@<TRIPOS>MOLECULE
3R540
247   249    1
SMALL
USER_CHARGES


@<TRIPOS>ATOM
      1 CA         -1.2384  -12.6623  -47.1743 C.3       0 UNK        -0.1800 
      2 C           0.0635  -12.3144  -47.8825 C.2       0 UNK         0.5000 
      3 O           0.1224  -11.3248  -48.6110 O.2       0 UNK        -0.5000 
      4 N           1.1091  -13.1226  -47.6656 N.am      1 UNK        -0.5000 
      5 CA          2.4328  -12.9955  -48.2959 C.3       1 UNK         0.1400 
      6 C6          3.2451  -14.3261  -48.2732 C.3       23 UNK        -0.0398 
      7 S7          2.2870  -15.8775  -48.3849 S.3       23 UNK        -0.2404 
      8 C8          1.3239  -15.6816  -49.9157 C.3       23 UNK        -0.0205 
      9 C9          0.0756  -16.5425  -49.8373 C.ar      23 UNK        -0.0193 
     10 C10         0.0571  -17.8256  -50.3897 C.ar      23 UNK        -0.1150 
     11 C11        -1.0684  -18.6428  -50.2453 C.ar      23 UNK        -0.0193 
     12 C12        -2.1796  -18.1613  -49.5450 C.ar      23 UNK        -0.1150 
     13 C13        -2.1794  -16.8747  -49.0017 C.ar      23 UNK        -0.0193 
     14 C14        -1.0509  -16.0680  -49.1615 C.ar      23 UNK        -0.1150 
     15 C15        -3.3868  -16.3459  -48.2393 C.3       23 UNK        -0.0205 
     16 S16        -3.0289  -16.1687  -46.4607 S.3       23 UNK        -0.2404 
     17 C17        -3.8713  -17.6015  -45.7041 C.3       23 UNK        -0.0398 
     18 CA         -3.4034  -18.9896  -46.2039 C.3       11 UNK         0.1400 
     19 N          -1.9668  -19.2222  -46.0255 N.am      11 UNK        -0.5000 
     20 C          -1.2982  -20.2354  -46.5945 C.2       10 UNK         0.5000 
     21 O          -1.8178  -21.0616  -47.3446 O.2       10 UNK        -0.5000 
     22 CA          0.1853  -20.3964  -46.2220 C.3       10 UNK         0.1400 
     23 CB          1.0606  -19.4081  -47.0075 C.3       10 UNK        -0.1800 
     24 N           0.4228  -20.2611  -44.7831 N.am      10 UNK        -0.5000 
     25 C          -0.0949  -21.0784  -43.8530 C.2       9 UNK         0.5000 
     26 O          -0.8015  -22.0512  -44.1164 O.2       9 UNK        -0.5000 
     27 CA          0.1840  -20.7368  -42.3782 C.3       9 UNK         0.1400 
     28 CB          1.5742  -21.2350  -41.9573 C.3       9 UNK        -0.1800 
     29 N           0.0603  -19.3084  -42.0894 N.am      9 UNK        -0.5000 
     30 C          -1.0695  -18.5979  -42.2238 C.2       8 UNK         0.5000 
     31 O          -2.1493  -19.0822  -42.5623 O.2       8 UNK        -0.5000 
     32 CA         -0.9583  -17.0768  -42.0102 C.3       8 UNK         0.1400 
     33 CB         -0.9308  -16.7277  -40.5151 C.3       8 UNK        -0.1800 
     34 N           0.2140  -16.5045  -42.6735 N.am      8 UNK        -0.5000 
     35 C           0.4427  -16.5745  -43.9926 C.2       7 UNK         0.5000 
     36 O          -0.3315  -17.0911  -44.7954 O.2       7 UNK        -0.5000 
     37 CA          1.7904  -16.0314  -44.4883 C.3       7 UNK         0.1400 
     38 CB          1.7628  -14.5005  -44.6067 C.3       7 UNK        -0.1800 
     39 N           2.8925  -16.4548  -43.6256 N.am      7 UNK        -0.5000 
     40 C           3.3389  -17.7172  -43.5513 C.2       6 UNK         0.5000 
     41 O           2.9159  -18.6341  -44.2546 O.2       6 UNK        -0.5000 
     42 CA          4.3981  -18.0175  -42.4765 C.3       6 UNK         0.1400 
     43 CB          5.8147  -17.7818  -43.0180 C.3       6 UNK        -0.1800 
     44 N           4.1921  -17.2275  -41.2614 N.am      6 UNK        -0.5000 
     45 C           3.1861  -17.4432  -40.4009 C.2       5 UNK         0.5000 
     46 O           2.3542  -18.3393  -40.5400 O.2       5 UNK        -0.5000 
     47 CA          3.0563  -16.4781  -39.2077 C.3       5 UNK         0.1400 
     48 CB          3.8741  -16.9885  -38.0123 C.3       5 UNK        -0.1800 
     49 N           3.4562  -15.1039  -39.5138 N.am      5 UNK        -0.5000 
     50 C           2.8843  -14.3213  -40.4386 C.2       4 UNK         0.5000 
     51 O           1.9497  -14.6885  -41.1525 O.2       4 UNK        -0.5000 
     52 CA          3.4596  -12.9009  -40.6243 C.3       4 UNK         0.1400 
     53 CB          4.4695  -12.4818  -39.5320 C.3       4 UNK        -0.1800 
     54 N           4.0498  -12.7093  -41.9540 N.am      4 UNK        -0.5000 
     55 C           5.0181  -13.4408  -42.5283 C.2       3 UNK         0.5000 
     56 O           5.5130  -14.4419  -42.0077 O.2       3 UNK        -0.5000 
     57 CA          5.5051  -12.9850  -43.9197 C.3       3 UNK         0.1400 
     58 CB          5.8460  -14.1781  -44.8312 C.3       3 UNK        -0.1800 
     59 N           4.5106  -12.1490  -44.5969 N.am      3 UNK        -0.5000 
     60 C           4.6811  -10.8797  -44.9905 C.2       2 UNK         0.5000 
     61 O           5.7028  -10.2253  -44.7767 O.2       2 UNK        -0.5000 
     62 CA          3.4911  -10.2515  -45.7503 C.3       2 UNK         0.1400 
     63 CB          3.8673   -8.9749  -46.5318 C.3       2 UNK        -0.1800 
     64 N           2.8018  -11.2268  -46.6075 N.am      2 UNK        -0.5000 
     65 C           3.2899  -11.8572  -47.6899 C.2       1 UNK         0.5000 
     66 O           4.3911  -11.6143  -48.1844 O.2       1 UNK        -0.5000 
     67 C          -4.2604  -20.1055  -45.5707 C.2       11 UNK         0.5000 
     68 O          -5.2650  -20.4979  -46.1644 O.2       11 UNK        -0.5000 
     69 N          -3.8547  -20.6031  -44.3929 N.am      12 UNK        -0.5000 
     70 CA         -4.5320  -21.6873  -43.6793 C.3       12 UNK         0.1400 
     71 CB         -3.9718  -21.8015  -42.2534 C.3       12 UNK        -0.1800 
     72 C          -4.4376  -23.0373  -44.4128 C.2       12 UNK         0.5000 
     73 O          -5.4431  -23.7412  -44.5170 O.2       12 UNK        -0.5000 
     74 N          -3.2397  -23.3714  -44.9115 N.am      13 UNK        -0.5000 
     75 CA         -2.9798  -24.5924  -45.6754 C.3       13 UNK         0.1400 
     76 CB         -1.4648  -24.8464  -45.7185 C.3       13 UNK        -0.1800 
     77 C          -3.5489  -24.5364  -47.1047 C.2       13 UNK         0.5000 
     78 O          -3.9603  -25.5695  -47.6320 O.2       13 UNK        -0.5000 
     79 N          -3.5272  -23.3372  -47.7046 N.am      14 UNK        -0.5000 
     80 CA         -3.8907  -23.0068  -49.0873 C.3       14 UNK         0.1400 
     81 CB         -5.3731  -23.3124  -49.3753 C.3       14 UNK        -0.1800 
     82 C          -2.9299  -23.5987  -50.1441 C.2       14 UNK         0.5000 
     83 O          -3.2706  -23.6391  -51.3291 O.2       14 UNK        -0.5000 
     84 N          -1.7365  -24.0174  -49.6930 N.am      15 UNK        -0.5000 
     85 CA         -0.6335  -24.6045  -50.4586 C.3       15 UNK         0.1400 
     86 CB          0.1017  -23.4928  -51.2386 C.3       15 UNK        -0.1800 
     87 C          -1.0697  -25.8021  -51.3345 C.2       15 UNK         0.5000 
     88 O          -1.9524  -26.5656  -50.9368 O.2       15 UNK        -0.5000 
     89 N          -0.4425  -25.9521  -52.5072 N.am      16 UNK        -0.5000 
     90 CA         -0.8204  -26.9280  -53.5306 C.3       16 UNK         0.1400 
     91 CB          0.4185  -27.2539  -54.3800 C.3       16 UNK        -0.1800 
     92 C          -1.9704  -26.4243  -54.4267 C.2       16 UNK         0.5000 
     93 O          -2.5688  -27.2280  -55.1427 O.2       16 UNK        -0.5000 
     94 N          -2.2432  -25.1107  -54.3962 N.am      17 UNK        -0.5000 
     95 CA         -3.2668  -24.4504  -55.2046 C.3       17 UNK         0.1400 
     96 CB         -3.0507  -22.9327  -55.1573 C.3       17 UNK        -0.1800 
     97 C          -4.6950  -24.8090  -54.7639 C.2       17 UNK         0.5000 
     98 O          -5.5456  -25.0497  -55.6236 O.2       17 UNK        -0.5000 
     99 N          -4.9182  -24.8465  -53.4413 N.am      18 UNK        -0.5000 
    100 CA        -6.1336  -25.2330  -52.7143 C.3       18 UNK         0.1400 
    101 CB        -6.4648  -26.7195  -52.9472 C.3       18 UNK        -0.1800 
    102 C         -7.3624  -24.3371  -52.9723 C.2       18 UNK         0.5000 
    103 O         -7.9221  -23.7852  -52.0246 O.2       18 UNK        -0.5000 
    104 N         -7.7647  -24.2287  -54.2407 N.am      19 UNK        -0.5000 
    105 CA        -8.8939  -23.4391  -54.7260 C.3       19 UNK         0.1400 
    106 CB       -10.1320  -24.3443  -54.8407 C.3       19 UNK        -0.1800 
    107 C         -8.5915  -22.7412  -56.0658 C.2       19 UNK         0.5000 
    108 O         -9.3463  -21.8466  -56.4493 O.2       19 UNK        -0.5000 
    109 N         -7.5068  -23.1293  -56.7583 N.am      20 UNK        -0.5000 
    110 CA        -7.0508  -22.4936  -58.0017 C.3       20 UNK         0.1400 
    111 CB        -6.0416  -23.4239  -58.6925 C.3       20 UNK        -0.1800 
    112 C         -6.4227  -21.1042  -57.7660 C.2       20 UNK         0.5000 
    113 O         -6.4036  -20.2720  -58.6734 O.2       20 UNK        -0.5000 
    114 N         -5.9349  -20.8918  -56.5428 N.am      21 UNK        -0.5000 
    115 CA        -5.3645  -19.6784  -55.9780 C.3       21 UNK         0.1400 
    116 CB        -3.9636  -19.4066  -56.5649 C.3       21 UNK        -0.1800 
    117 C         -5.3362  -19.8908  -54.4532 C.2       21 UNK         0.5000 
    118 O         -5.8755  -20.8936  -53.9726 O.2       21 UNK        -0.5000 
    119 N         -4.7091  -18.9626  -53.7200 N.am      22 UNK        -0.5000 
    120 CA        -4.5094  -19.0202  -52.2576 C.3       22 UNK         0.1400 
    121 C         -5.8011  -18.8268  -51.4029 C.2       22 UNK         0.5000 
    122 N         -6.9198  -18.3981  -51.9744 N.am      22 UNK        -0.7600 
    123 O         -5.7807  -19.0233  -50.1912 O.2       22 UNK        -0.5000 
    124 C124       -3.6856  -20.2642  -51.8139 C.3       23 UNK        -0.0398 
    125 S125       -1.9539  -20.1998  -52.3843 S.3       23 UNK        -0.2404 
    126 C126       -1.0559  -20.0588  -50.8045 C.3       23 UNK        -0.0205 
    127 H127       -2.0340  -12.8145  -47.9037 H         1 UNK         0.0600 
    128 H128       -1.5342  -11.8502  -46.5104 H         1 UNK         0.0600 
    129 H129       -1.1478  -13.5717  -46.5796 H         1 UNK         0.0600 
    130 H130        0.9857  -13.9484  -47.0982 H         1 UNK         0.3000 
    131 H131        2.2703  -12.7295  -49.3424 H         1 UNK         0.0600 
    132 H132        3.8244  -14.4089  -47.3516 H         1 UNK         0.0800 
    133 H133        3.9814  -14.3218  -49.0787 H         1 UNK         0.0800 
    134 H134        1.9384  -15.9620  -50.7723 H         1 UNK         0.0800 
    135 H135        1.0342  -14.6421  -50.0673 H         1 UNK         0.0800 
    136 H136        0.9303  -18.1975  -50.9068 H         1 UNK         0.1150 
    137 H137       -3.0455  -18.7890  -49.4117 H         1 UNK         0.1150 
    138 H138       -1.0382  -15.0794  -48.7283 H         1 UNK         0.1150 
    139 H139       -3.6513  -15.3659  -48.6388 H         1 UNK         0.0800 
    140 H140       -4.2615  -16.9799  -48.3926 H         1 UNK         0.0800 
    141 H141       -4.9423  -17.4783  -45.8759 H         1 UNK         0.0800 
    142 H142       -3.7283  -17.5283  -44.6244 H         1 UNK         0.0800 
    143 H143       -3.6064  -19.0378  -47.2725 H         1 UNK         0.0600 
    144 H144       -1.4568  -18.5463  -45.4622 H         1 UNK         0.3000 
    145 H145        0.4872  -21.4064  -46.5069 H         1 UNK         0.0600 
    146 H146        2.1170  -19.5410  -46.7749 H         1 UNK         0.0600 
    147 H147        0.7984  -18.3718  -46.7957 H         1 UNK         0.0600 
    148 H148        0.9437  -19.5569  -48.0813 H         1 UNK         0.0600 
    149 H149        1.0232  -19.4979  -44.4919 H         1 UNK         0.3000 
    150 H150       -0.5582  -21.2599  -41.7721 H         1 UNK         0.0600 
    151 H151        1.6806  -22.3035  -42.1483 H         1 UNK         0.0600 
    152 H152        1.7435  -21.0769  -40.8921 H         1 UNK         0.0600 
    153 H153        2.3678  -20.7230  -42.5018 H         1 UNK         0.0600 
    154 H154        0.8974  -18.8397  -41.7563 H         1 UNK         0.3000 
    155 H155       -1.8434  -16.6141  -42.4519 H         1 UNK         0.0600 
    156 H156       -1.8292  -17.0909  -40.0148 H         1 UNK         0.0600 
    157 H157       -0.8849  -15.6492  -40.3620 H         1 UNK         0.0600 
    158 H158       -0.0733  -17.1737  -40.0120 H         1 UNK         0.0600 
    159 H159        0.8869  -16.0203  -42.0862 H         1 UNK         0.3000 
    160 H160        1.9584  -16.4435  -45.4850 H         1 UNK         0.0600 
    161 H161        2.6162  -14.1428  -45.1786 H         1 UNK         0.0600 
    162 H162        0.8598  -14.1675  -45.1175 H         1 UNK         0.0600 
    163 H163        1.7758  -14.0115  -43.6338 H         1 UNK         0.0600 
    164 H164        3.2420  -15.7820  -42.9588 H         1 UNK         0.3000 
    165 H165        4.3132  -19.0746  -42.2154 H         1 UNK         0.0600 
    166 H166        6.5692  -18.0502  -42.2785 H         1 UNK         0.0600 
    167 H167        5.9983  -18.3884  -43.9057 H         1 UNK         0.0600 
    168 H168        5.9729  -16.7408  -43.2948 H         1 UNK         0.0600 
    169 H169        4.8076  -16.4361  -41.1168 H         1 UNK         0.3000 
    170 H170        2.0048  -16.4572  -38.9155 H         1 UNK         0.0600 
    171 H171        4.9426  -17.0006  -38.2312 H         1 UNK         0.0600 
    172 H172        3.7178  -16.3651  -37.1317 H         1 UNK         0.0600 
    173 H173        3.5820  -18.0050  -37.7450 H         1 UNK         0.0600 
    174 H174        4.2361  -14.7334  -38.9907 H         1 UNK         0.3000 
    175 H175        2.6075  -12.2226  -40.5617 H         1 UNK         0.0600 
    176 H176        5.3735  -13.0918  -39.5478 H         1 UNK         0.0600 
    177 H177        4.7746  -11.4439  -39.6660 H         1 UNK         0.0600 
    178 H178        4.0301  -12.5568  -38.5364 H         1 UNK         0.0600 
    179 H179        3.6965  -11.9195  -42.4740 H         1 UNK         0.3000 
    180 H180        6.4228  -12.4184  -43.7518 H         1 UNK         0.0600 
    181 H181        6.1442  -13.8414  -45.8243 H         1 UNK         0.0600 
    182 H182        5.0004  -14.8563  -44.9480 H         1 UNK         0.0600 
    183 H183        6.6789  -14.7533  -44.4261 H         1 UNK         0.0600 
    184 H184        3.6296  -12.5915  -44.8084 H         1 UNK         0.3000 
    185 H185        2.7698   -9.9595  -44.9857 H         1 UNK         0.0600 
    186 H186        3.0065   -8.5711  -47.0646 H         1 UNK         0.0600 
    187 H187        4.2241   -8.1965  -45.8564 H         1 UNK         0.0600 
    188 H188        4.6575   -9.1585  -47.2600 H         1 UNK         0.0600 
    189 H189        1.8715  -11.4866  -46.3121 H         1 UNK         0.3000 
    190 H190       -3.0487  -20.1903  -43.9326 H         1 UNK         0.3000 
    191 H191       -5.5897  -21.4265  -43.6025 H         1 UNK         0.0600 
    192 H192       -4.1205  -20.8762  -41.6966 H         1 UNK         0.0600 
    193 H193       -2.9044  -22.0226  -42.2559 H         1 UNK         0.0600 
    194 H194       -4.4711  -22.5974  -41.6996 H         1 UNK         0.0600 
    195 H195       -2.4427  -22.7640  -44.7345 H         1 UNK         0.3000 
    196 H196       -3.4510  -25.4319  -45.1597 H         1 UNK         0.0600 
    197 H197       -1.0574  -24.9622  -44.7139 H         1 UNK         0.0600 
    198 H198       -0.9323  -24.0252  -46.2003 H         1 UNK         0.0600 
    199 H199       -1.2350  -25.7588  -46.2702 H         1 UNK         0.0600 
    200 H200       -3.1112  -22.5633  -47.1952 H         1 UNK         0.3000 
    201 H201       -3.7706  -21.9266  -49.1502 H         1 UNK         0.0600 
    202 H202       -6.0203  -22.8509  -48.6294 H         1 UNK         0.0600 
    203 H203       -5.5749  -24.3833  -49.3792 H         1 UNK         0.0600 
    204 H204       -5.6709  -22.9176  -50.3475 H         1 UNK         0.0600 
    205 H205       -1.5827  -23.9453  -48.6987 H         1 UNK         0.3000 
    206 H206        0.0635  -25.0106  -49.7245 H         1 UNK         0.0600 
    207 H207       -0.5286  -23.0554  -52.0139 H         1 UNK         0.0600 
    208 H208        0.4057  -22.6915  -50.5660 H         1 UNK         0.0600 
    209 H209        1.0128  -23.8616  -51.7104 H         1 UNK         0.0600 
    210 H210        0.2923  -25.3040  -52.7518 H         1 UNK         0.3000 
    211 H211       -1.1546  -27.8496  -53.0494 H         1 UNK         0.0600 
    212 H212        0.7969  -26.3712  -54.8971 H         1 UNK         0.0600 
    213 H213        0.1871  -28.0039  -55.1375 H         1 UNK         0.0600 
    214 H214        1.2242  -27.6545  -53.7645 H         1 UNK         0.0600 
    215 H215       -1.7265  -24.5277  -53.7555 H         1 UNK         0.3000 
    216 H216       -3.1450  -24.7775  -56.2395 H         1 UNK         0.0600 
    217 H217       -3.7677  -22.4290  -55.8032 H         1 UNK         0.0600 
    218 H218       -2.0540  -22.6604  -55.5046 H         1 UNK         0.0600 
    219 H219       -3.1766  -22.5353  -54.1493 H         1 UNK         0.0600 
    220 H220       -4.1585  -24.5477  -52.8348 H         1 UNK         0.3000 
    221 H221       -5.8842  -25.1241  -51.6588 H         1 UNK         0.0600 
    222 H222       -6.7000  -26.9299  -53.9908 H         1 UNK         0.0600 
    223 H223       -5.6280  -27.3561  -52.6594 H         1 UNK         0.0600 
    224 H224       -7.3256  -27.0244  -52.3509 H         1 UNK         0.0600 
    225 H225       -7.1958  -24.7049  -54.9344 H         1 UNK         0.3000 
    226 H226       -9.1102  -22.6428  -54.0106 H         1 UNK         0.0600 
    227 H227      -10.3959  -24.7747  -53.8745 H         1 UNK         0.0600 
    228 H228      -10.9983  -23.7830  -55.1930 H         1 UNK         0.0600 
    229 H229       -9.9639  -25.1651  -55.5389 H         1 UNK         0.0600 
    230 H230       -6.9117  -23.8664  -56.3983 H         1 UNK         0.3000 
    231 H231       -7.9093  -22.3647  -58.6642 H         1 UNK         0.0600 
    232 H232       -5.7081  -23.0027  -59.6418 H         1 UNK         0.0600 
    233 H233       -6.4838  -24.3971  -58.9063 H         1 UNK         0.0600 
    234 H234       -5.1563  -23.5860  -58.0762 H         1 UNK         0.0600 
    235 H235       -6.0680  -21.6114  -55.8414 H         1 UNK         0.3000 
    236 H236       -6.0287  -18.8407  -56.1976 H         1 UNK         0.0600 
    237 H237       -3.2468  -20.1760  -56.2789 H         1 UNK         0.0600 
    238 H238       -3.9870  -19.3621  -57.6535 H         1 UNK         0.0600 
    239 H239       -3.5703  -18.4505  -56.2189 H         1 UNK         0.0600 
    240 H240       -4.2998  -18.1647  -54.1839 H         1 UNK         0.3000 
    241 H241       -3.9124  -18.1397  -52.0175 H         1 UNK         0.0600 
    242 H242       -6.9557  -18.2178  -52.9642 H         1 UNK         0.3800 
    243 H243       -7.7427  -18.2631  -51.4087 H         1 UNK         0.3800 
    244 H244       -4.1343  -21.1885  -52.1760 H         1 UNK         0.0800 
    245 H245       -3.6878  -20.3686  -50.7332 H         1 UNK         0.0800 
    246 H246       -0.0259  -20.3749  -50.9725 H         1 UNK         0.0800 
    247 H247       -1.4645  -20.7567  -50.0727 H         1 UNK         0.0800 
@<TRIPOS>BOND
     1    1    2 1    
     2    1  127 1    
     3    1  128 1    
     4    1  129 1    
     5    2    3 2    
     6    2    4 am   BACKBONE|DICT|INTERRES
     7    4    5 1    
     8    4  130 1    
     9    5    6 1    
    10    5   65 1    
    11    5  131 1    
    12    6    7 1    
    13    6  132 1    
    14    6  133 1    
    15    7    8 1    
    16    8    9 1    
    17    8  134 1    
    18    8  135 1    
    19    9   10 ar   
    20    9   14 ar   
    21   10   11 ar   
    22   10  136 1    
    23   11   12 ar   
    24   11  126 1    
    25   12   13 ar   
    26   12  137 1    
    27   13   14 ar   
    28   13   15 1    
    29   14  138 1    
    30   15   16 1    
    31   15  139 1    
    32   15  140 1    
    33   16   17 1    
    34   17   18 1    
    35   17  141 1    
    36   17  142 1    
    37   18   19 1    
    38   18   67 1    
    39   18  143 1    
    40   19   20 am   BACKBONE|DICT|INTERRES
    41   19  144 1    
    42   20   21 2    
    43   20   22 1    
    44   22   23 1    
    45   22   24 1    
    46   22  145 1    
    47   23  146 1    
    48   23  147 1    
    49   23  148 1    
    50   24   25 am   BACKBONE|DICT|INTERRES
    51   24  149 1    
    52   25   26 2    
    53   25   27 1    
    54   27   28 1    
    55   27   29 1    
    56   27  150 1    
    57   28  151 1    
    58   28  152 1    
    59   28  153 1    
    60   29   30 am   BACKBONE|DICT|INTERRES
    61   29  154 1    
    62   30   31 2    
    63   30   32 1    
    64   32   33 1    
    65   32   34 1    
    66   32  155 1    
    67   33  156 1    
    68   33  157 1    
    69   33  158 1    
    70   34   35 am   BACKBONE|DICT|INTERRES
    71   34  159 1    
    72   35   36 2    
    73   35   37 1    
    74   37   38 1    
    75   37   39 1    
    76   37  160 1    
    77   38  161 1    
    78   38  162 1    
    79   38  163 1    
    80   39   40 am   BACKBONE|DICT|INTERRES
    81   39  164 1    
    82   40   41 2    
    83   40   42 1    
    84   42   43 1    
    85   42   44 1    
    86   42  165 1    
    87   43  166 1    
    88   43  167 1    
    89   43  168 1    
    90   44   45 am   BACKBONE|DICT|INTERRES
    91   44  169 1    
    92   45   46 2    
    93   45   47 1    
    94   47   48 1    
    95   47   49 1    
    96   47  170 1    
    97   48  171 1    
    98   48  172 1    
    99   48  173 1    
   100   49   50 am   BACKBONE|DICT|INTERRES
   101   49  174 1    
   102   50   51 2    
   103   50   52 1    
   104   52   53 1    
   105   52   54 1    
   106   52  175 1    
   107   53  176 1    
   108   53  177 1    
   109   53  178 1    
   110   54   55 am   BACKBONE|DICT|INTERRES
   111   54  179 1    
   112   55   56 2    
   113   55   57 1    
   114   57   58 1    
   115   57   59 1    
   116   57  180 1    
   117   58  181 1    
   118   58  182 1    
   119   58  183 1    
   120   59   60 am   BACKBONE|DICT|INTERRES
   121   59  184 1    
   122   60   61 2    
   123   60   62 1    
   124   62   63 1    
   125   62   64 1    
   126   62  185 1    
   127   63  186 1    
   128   63  187 1    
   129   63  188 1    
   130   64   65 am   BACKBONE|DICT|INTERRES
   131   64  189 1    
   132   65   66 2    
   133   67   68 2    
   134   67   69 am   BACKBONE|DICT|INTERRES
   135   69   70 1    
   136   69  190 1    
   137   70   71 1    
   138   70   72 1    
   139   70  191 1    
   140   71  192 1    
   141   71  193 1    
   142   71  194 1    
   143   72   73 2    
   144   72   74 am   BACKBONE|DICT|INTERRES
   145   74   75 1    
   146   74  195 1    
   147   75   76 1    
   148   75   77 1    
   149   75  196 1    
   150   76  197 1    
   151   76  198 1    
   152   76  199 1    
   153   77   78 2    
   154   77   79 am   BACKBONE|DICT|INTERRES
   155   79   80 1    
   156   79  200 1    
   157   80   81 1    
   158   80   82 1    
   159   80  201 1    
   160   81  202 1    
   161   81  203 1    
   162   81  204 1    
   163   82   83 2    
   164   82   84 am   BACKBONE|DICT|INTERRES
   165   84   85 1    
   166   84  205 1    
   167   85   86 1    
   168   85   87 1    
   169   85  206 1    
   170   86  207 1    
   171   86  208 1    
   172   86  209 1    
   173   87   88 2    
   174   87   89 am   BACKBONE|DICT|INTERRES
   175   89   90 1    
   176   89  210 1    
   177   90   91 1    
   178   90   92 1    
   179   90  211 1    
   180   91  212 1    
   181   91  213 1    
   182   91  214 1    
   183   92   93 2    
   184   92   94 am   BACKBONE|DICT|INTERRES
   185   94   95 1    
   186   94  215 1    
   187   95   96 1    
   188   95   97 1    
   189   95  216 1    
   190   96  217 1    
   191   96  218 1    
   192   96  219 1    
   193   97   98 2    
   194   97   99 am   BACKBONE|DICT|INTERRES
   195   99  100 1    
   196   99  220 1    
   197  100  101 1    
   198  100  102 1    
   199  100  221 1    
   200  101  222 1    
   201  101  223 1    
   202  101  224 1    
   203  102  103 2    
   204  102  104 am   BACKBONE|DICT|INTERRES
   205  104  105 1    
   206  104  225 1    
   207  105  106 1    
   208  105  107 1    
   209  105  226 1    
   210  106  227 1    
   211  106  228 1    
   212  106  229 1    
   213  107  108 2    
   214  107  109 am   BACKBONE|DICT|INTERRES
   215  109  110 1    
   216  109  230 1    
   217  110  111 1    
   218  110  112 1    
   219  110  231 1    
   220  111  232 1    
   221  111  233 1    
   222  111  234 1    
   223  112  113 2    
   224  112  114 am   BACKBONE|DICT|INTERRES
   225  114  115 1    
   226  114  235 1    
   227  115  116 1    
   228  115  117 1    
   229  115  236 1    
   230  116  237 1    
   231  116  238 1    
   232  116  239 1    
   233  117  118 2    
   234  117  119 am   BACKBONE|DICT|INTERRES
   235  119  120 1    
   236  119  240 1    
   237  120  121 1    
   238  120  124 1    
   239  120  241 1    
   240  121  122 am   BACKBONE|DICT|INTERRES
   241  121  123 2    
   242  122  242 1    
   243  122  243 1    
   244  124  125 1    
   245  124  244 1    
   246  124  245 1    
   247  125  126 1    
   248  126  246 1    
   249  126  247 1    
@<TRIPOS>SUBSTRUCTURE
     1 UNK         1 GROUP             0       ****    0 ROOT    
