@<TRIPOS>MOLECULE
3R540
247   249    1
SMALL
USER_CHARGES


@<TRIPOS>ATOM
      1 CA          9.5414  -16.0042  -48.3609 C.3       0 UNK        -0.1800 
      2 C           8.0405  -16.1503  -48.1562 C.2       0 UNK         0.5000 
      3 O           7.5824  -17.1918  -47.6842 O.2       0 UNK        -0.5000 
      4 N           7.2701  -15.1096  -48.4962 N.am      1 UNK        -0.5000 
      5 CA          5.8057  -15.0569  -48.3946 C.3       1 UNK         0.1400 
      6 C6          5.1886  -14.0757  -49.4259 C.3       23 UNK        -0.0398 
      7 S7          5.5624  -14.5915  -51.1414 S.3       23 UNK        -0.2404 
      8 C8          3.9131  -14.9449  -51.8485 C.3       23 UNK        -0.0205 
      9 C9          3.0556  -15.9068  -51.0288 C.ar      23 UNK        -0.0193 
     10 C10         1.6892  -15.6460  -50.8778 C.ar      23 UNK        -0.1150 
     11 C11         0.8810  -16.4892  -50.1110 C.ar      23 UNK        -0.0193 
     12 C12         1.4569  -17.5921  -49.4769 C.ar      23 UNK        -0.1150 
     13 C13         2.8145  -17.8770  -49.6284 C.ar      23 UNK        -0.0193 
     14 C14         3.6043  -17.0446  -50.4252 C.ar      23 UNK        -0.1150 
     15 C15         3.4293  -19.0588  -48.8952 C.3       23 UNK        -0.0205 
     16 S16         3.5907  -20.5394  -49.9416 S.3       23 UNK        -0.2404 
     17 C17         1.8721  -20.9348  -50.4181 C.3       23 UNK        -0.0398 
     18 CA          1.1657  -21.8770  -49.4134 C.3       11 UNK         0.1400 
     19 N           0.8021  -21.2067  -48.1581 N.am      11 UNK        -0.5000 
     20 C           0.4385  -21.8564  -47.0439 C.2       10 UNK         0.5000 
     21 O           0.3667  -23.0830  -46.9642 O.2       10 UNK        -0.5000 
     22 CA          0.0592  -20.9953  -45.8234 C.3       10 UNK         0.1400 
     23 CB          1.3192  -20.4965  -45.0989 C.3       10 UNK        -0.1800 
     24 N          -0.8087  -19.8493  -46.1107 N.am      10 UNK        -0.5000 
     25 C          -1.9871  -19.8804  -46.7457 C.2       9 UNK         0.5000 
     26 O          -2.4330  -20.8840  -47.3015 O.2       9 UNK        -0.5000 
     27 CA         -2.8118  -18.5746  -46.7258 C.3       9 UNK         0.1400 
     28 CB         -4.0766  -18.6626  -47.6012 C.3       9 UNK        -0.1800 
     29 N          -3.2223  -18.1883  -45.3732 N.am      9 UNK        -0.5000 
     30 C          -2.4316  -17.6575  -44.4339 C.2       8 UNK         0.5000 
     31 O          -1.2180  -17.4943  -44.5699 O.2       8 UNK        -0.5000 
     32 CA         -3.0982  -17.2501  -43.1168 C.3       8 UNK         0.1400 
     33 CB         -2.9375  -18.3504  -42.0545 C.3       8 UNK        -0.1800 
     34 N          -2.4662  -16.0201  -42.6573 N.am      8 UNK        -0.5000 
     35 C          -3.0377  -15.0844  -41.8918 C.2       7 UNK         0.5000 
     36 O          -4.1913  -15.1631  -41.4644 O.2       7 UNK        -0.5000 
     37 CA         -2.1587  -13.8620  -41.5536 C.3       7 UNK         0.1400 
     38 CB         -2.7399  -12.9742  -40.4332 C.3       7 UNK        -0.1800 
     39 N          -0.7728  -14.2425  -41.2656 N.am      7 UNK        -0.5000 
     40 C          -0.3253  -15.0069  -40.2578 C.2       6 UNK         0.5000 
     41 O          -1.0368  -15.4568  -39.3590 O.2       6 UNK        -0.5000 
     42 CA          1.1791  -15.3396  -40.2609 C.3       6 UNK         0.1400 
     43 CB          1.4160  -16.7053  -40.9245 C.3       6 UNK        -0.1800 
     44 N           1.9979  -14.3342  -40.9410 N.am      6 UNK        -0.5000 
     45 C           2.2273  -13.0930  -40.4890 C.2       5 UNK         0.5000 
     46 O           1.7867  -12.6578  -39.4247 O.2       5 UNK        -0.5000 
     47 CA          3.0808  -12.1819  -41.3871 C.3       5 UNK         0.1400 
     48 CB          4.5787  -12.4539  -41.1759 C.3       5 UNK        -0.1800 
     49 N           2.7478  -12.3649  -42.7997 N.am      5 UNK        -0.5000 
     50 C           1.7541  -11.7267  -43.4330 C.2       4 UNK         0.5000 
     51 O           1.0430  -10.8727  -42.9029 O.2       4 UNK        -0.5000 
     52 CA          1.5015  -12.1104  -44.9045 C.3       4 UNK         0.1400 
     53 CB          2.3187  -11.2110  -45.8440 C.3       4 UNK        -0.1800 
     54 N           1.8127  -13.5095  -45.1965 N.am      4 UNK        -0.5000 
     55 C           1.1141  -14.5560  -44.7322 C.2       3 UNK         0.5000 
     56 O           0.1117  -14.4502  -44.0255 O.2       3 UNK        -0.5000 
     57 CA          1.6521  -15.9571  -45.0811 C.3       3 UNK         0.1400 
     58 CB          1.0846  -16.4106  -46.4312 C.3       3 UNK        -0.1800 
     59 N           3.1116  -16.0360  -45.1518 N.am      3 UNK        -0.5000 
     60 C           3.9796  -15.6414  -44.2110 C.2       2 UNK         0.5000 
     61 O           3.6418  -15.2319  -43.1009 O.2       2 UNK        -0.5000 
     62 CA          5.4726  -15.6493  -44.5902 C.3       2 UNK         0.1400 
     63 CB          6.1848  -16.8371  -43.9273 C.3       2 UNK        -0.1800 
     64 N           5.7332  -15.6859  -46.0335 N.am      2 UNK        -0.5000 
     65 C           5.3650  -14.7708  -46.9421 C.2       1 UNK         0.5000 
     66 O           4.7117  -13.7621  -46.6674 O.2       1 UNK        -0.5000 
     67 C          -0.0567  -22.5466  -50.0710 C.2       11 UNK         0.5000 
     68 O           0.0728  -23.6492  -50.6028 O.2       11 UNK        -0.5000 
     69 N          -1.2257  -21.8940  -49.9991 N.am      12 UNK        -0.5000 
     70 CA         -2.4814  -22.4347  -50.5154 C.3       12 UNK         0.1400 
     71 CB         -3.5278  -21.3222  -50.6224 C.3       12 UNK        -0.1800 
     72 C          -2.9978  -23.5955  -49.6529 C.2       12 UNK         0.5000 
     73 O          -3.4832  -24.5806  -50.2032 O.2       12 UNK        -0.5000 
     74 N          -2.8467  -23.4868  -48.3268 N.am      13 UNK        -0.5000 
     75 CA         -3.1548  -24.5435  -47.3635 C.3       13 UNK         0.1400 
     76 CB         -3.0151  -23.9965  -45.9355 C.3       13 UNK        -0.1800 
     77 C          -2.2881  -25.7984  -47.5703 C.2       13 UNK         0.5000 
     78 O          -2.8215  -26.9078  -47.5543 O.2       13 UNK        -0.5000 
     79 N          -0.9855  -25.6005  -47.8206 N.am      14 UNK        -0.5000 
     80 CA         -0.0343  -26.6617  -48.1602 C.3       14 UNK         0.1400 
     81 CB          1.3913  -26.0896  -48.1577 C.3       14 UNK        -0.1800 
     82 C          -0.3462  -27.3435  -49.5075 C.2       14 UNK         0.5000 
     83 O          -0.1990  -28.5608  -49.6209 O.2       14 UNK        -0.5000 
     84 N          -0.7938  -26.5541  -50.4933 N.am      15 UNK        -0.5000 
     85 CA         -1.2060  -27.0200  -51.8199 C.3       15 UNK         0.1400 
     86 CB         -1.1592  -25.8310  -52.7930 C.3       15 UNK        -0.1800 
     87 C          -2.6048  -27.6719  -51.8481 C.2       15 UNK         0.5000 
     88 O          -2.9544  -28.2820  -52.8593 O.2       15 UNK        -0.5000 
     89 N          -3.3828  -27.5085  -50.7667 N.am      16 UNK        -0.5000 
     90 CA         -4.7984  -27.8697  -50.6196 C.3       16 UNK         0.1400 
     91 CB         -4.9985  -29.3979  -50.6901 C.3       16 UNK        -0.1800 
     92 C          -5.7060  -27.0839  -51.5937 C.2       16 UNK         0.5000 
     93 O          -6.6588  -27.6346  -52.1482 O.2       16 UNK        -0.5000 
     94 N          -5.3771  -25.8005  -51.7782 N.am      17 UNK        -0.5000 
     95 CA         -6.0187  -24.8497  -52.6847 C.3       17 UNK         0.1400 
     96 CB         -4.9921  -24.4322  -53.7520 C.3       17 UNK        -0.1800 
     97 C          -6.5593  -23.6218  -51.9259 C.2       17 UNK         0.5000 
     98 O          -6.8578  -22.6031  -52.5509 O.2       17 UNK        -0.5000 
     99 N          -6.6822  -23.7184  -50.5934 N.am      18 UNK        -0.5000 
    100 CA        -7.1017  -22.6417  -49.6862 C.3       18 UNK         0.1400 
    101 CB        -6.9774  -23.1312  -48.2364 C.3       18 UNK        -0.1800 
    102 C         -8.5104  -22.0706  -49.9516 C.2       18 UNK         0.5000 
    103 O         -8.7861  -20.9429  -49.5431 O.2       18 UNK        -0.5000 
    104 N         -9.3624  -22.8350  -50.6495 N.am      19 UNK        -0.5000 
    105 CA       -10.6699  -22.3924  -51.1380 C.3       19 UNK         0.1400 
    106 CB       -11.4549  -23.6103  -51.6484 C.3       19 UNK        -0.1800 
    107 C        -10.5669  -21.3144  -52.2373 C.2       19 UNK         0.5000 
    108 O        -11.4281  -20.4364  -52.3031 O.2       19 UNK        -0.5000 
    109 N         -9.5156  -21.3911  -53.0657 N.am      20 UNK        -0.5000 
    110 CA        -9.1680  -20.3760  -54.0611 C.3       20 UNK         0.1400 
    111 CB        -8.4969  -21.0531  -55.2669 C.3       20 UNK        -0.1800 
    112 C         -8.2444  -19.3064  -53.4513 C.2       20 UNK         0.5000 
    113 O         -8.4268  -18.1208  -53.7307 O.2       20 UNK        -0.5000 
    114 N         -7.3020  -19.7602  -52.6104 N.am      21 UNK        -0.5000 
    115 CA        -6.2816  -19.0072  -51.8762 C.3       21 UNK         0.1400 
    116 CB        -6.9132  -17.9172  -50.9860 C.3       21 UNK        -0.1800 
    117 C         -5.1594  -18.4427  -52.7720 C.2       21 UNK         0.5000 
    118 O         -5.2776  -18.4002  -53.9985 O.2       21 UNK        -0.5000 
    119 N         -4.0657  -18.0359  -52.1196 N.am      22 UNK        -0.5000 
    120 CA        -2.8610  -17.4533  -52.7350 C.3       22 UNK         0.1400 
    121 C         -2.9262  -15.9116  -52.9481 C.2       22 UNK         0.5000 
    122 N         -3.9771  -15.2216  -52.5214 N.am      22 UNK        -0.7600 
    123 O         -2.0122  -15.3309  -53.5267 O.2       22 UNK        -0.5000 
    124 C124       -1.5747  -17.8868  -51.9787 C.3       23 UNK        -0.0398 
    125 S125       -1.6649  -17.6412  -50.1695 S.3       23 UNK        -0.2404 
    126 C126       -0.6005  -16.1810  -49.9312 C.3       23 UNK        -0.0205 
    127 H127        9.9040  -16.7777  -49.0379 H         1 UNK         0.0600 
    128 H128       10.0617  -16.1108  -47.4091 H         1 UNK         0.0600 
    129 H129        9.8002  -15.0333  -48.7839 H         1 UNK         0.0600 
    130 H130        7.7068  -14.2763  -48.8639 H         1 UNK         0.3000 
    131 H131        5.4176  -16.0497  -48.6250 H         1 UNK         0.0600 
    132 H132        5.5738  -13.0661  -49.2740 H         1 UNK         0.0800 
    133 H133        4.1070  -14.0085  -49.2968 H         1 UNK         0.0800 
    134 H134        3.3941  -13.9941  -51.9799 H         1 UNK         0.0800 
    135 H135        4.0441  -15.3632  -52.8470 H         1 UNK         0.0800 
    136 H136        1.2537  -14.7775  -51.3520 H         1 UNK         0.1150 
    137 H137        0.8407  -18.2267  -48.8583 H         1 UNK         0.1150 
    138 H138        4.6544  -17.2686  -50.5501 H         1 UNK         0.1150 
    139 H139        4.4219  -18.7810  -48.5370 H         1 UNK         0.0800 
    140 H140        2.8526  -19.3016  -48.0030 H         1 UNK         0.0800 
    141 H141        1.2919  -20.0289  -50.5891 H         1 UNK         0.0800 
    142 H142        1.9449  -21.4162  -51.3955 H         1 UNK         0.0800 
    143 H143        1.8616  -22.6826  -49.1674 H         1 UNK         0.0600 
    144 H144        0.8149  -20.2000  -48.1495 H         1 UNK         0.3000 
    145 H145       -0.4896  -21.6411  -45.1353 H         1 UNK         0.0600 
    146 H146        1.0634  -19.9891  -44.1683 H         1 UNK         0.0600 
    147 H147        1.8894  -19.7984  -45.7123 H         1 UNK         0.0600 
    148 H148        1.9798  -21.3265  -44.8446 H         1 UNK         0.0600 
    149 H149       -0.5852  -18.9847  -45.6261 H         1 UNK         0.3000 
    150 H150       -2.1770  -17.7850  -47.1330 H         1 UNK         0.0600 
    151 H151       -4.6112  -17.7128  -47.6187 H         1 UNK         0.0600 
    152 H152       -3.8257  -18.9054  -48.6324 H         1 UNK         0.0600 
    153 H153       -4.7646  -19.4295  -47.2428 H         1 UNK         0.0600 
    154 H154       -4.1990  -18.3270  -45.1582 H         1 UNK         0.3000 
    155 H155       -4.1596  -17.0695  -43.2999 H         1 UNK         0.0600 
    156 H156       -3.4228  -18.0707  -41.1194 H         1 UNK         0.0600 
    157 H157       -1.8864  -18.5479  -41.8389 H         1 UNK         0.0600 
    158 H158       -3.3877  -19.2860  -42.3884 H         1 UNK         0.0600 
    159 H159       -1.5341  -15.8603  -43.0247 H         1 UNK         0.3000 
    160 H160       -2.1210  -13.2580  -42.4613 H         1 UNK         0.0600 
    161 H161       -2.8766  -13.5271  -39.5037 H         1 UNK         0.0600 
    162 H162       -3.7130  -12.5738  -40.7196 H         1 UNK         0.0600 
    163 H163       -2.0882  -12.1253  -40.2264 H         1 UNK         0.0600 
    164 H164       -0.1102  -14.0020  -41.9938 H         1 UNK         0.3000 
    165 H165        1.5094  -15.4000  -39.2219 H         1 UNK         0.0600 
    166 H166        1.0828  -16.7088  -41.9623 H         1 UNK         0.0600 
    167 H167        2.4721  -16.9755  -40.9101 H         1 UNK         0.0600 
    168 H168        0.8701  -17.4929  -40.4036 H         1 UNK         0.0600 
    169 H169        2.4615  -14.6302  -41.7964 H         1 UNK         0.3000 
    170 H170        2.8856  -11.1464  -41.1000 H         1 UNK         0.0600 
    171 H171        4.8593  -12.2941  -40.1341 H         1 UNK         0.0600 
    172 H172        4.8476  -13.4788  -41.4333 H         1 UNK         0.0600 
    173 H173        5.1892  -11.7853  -41.7830 H         1 UNK         0.0600 
    174 H174        3.2441  -13.0986  -43.2877 H         1 UNK         0.3000 
    175 H175        0.4416  -11.9480  -45.1119 H         1 UNK         0.0600 
    176 H176        3.3912  -11.3450  -45.6963 H         1 UNK         0.0600 
    177 H177        2.0959  -11.4267  -46.8891 H         1 UNK         0.0600 
    178 H178        2.0916  -10.1579  -45.6734 H         1 UNK         0.0600 
    179 H179        2.6414  -13.6828  -45.7527 H         1 UNK         0.3000 
    180 H180        1.3155  -16.6479  -44.3074 H         1 UNK         0.0600 
    181 H181        1.5154  -15.8381  -47.2532 H         1 UNK         0.0600 
    182 H182        0.0039  -16.2766  -46.4799 H         1 UNK         0.0600 
    183 H183        1.2903  -17.4664  -46.6019 H         1 UNK         0.0600 
    184 H184        3.4971  -16.3571  -46.0264 H         1 UNK         0.3000 
    185 H185        5.9066  -14.7264  -44.2007 H         1 UNK         0.0600 
    186 H186        6.0409  -16.8269  -42.8459 H         1 UNK         0.0600 
    187 H187        5.8079  -17.7902  -44.3006 H         1 UNK         0.0600 
    188 H188        7.2590  -16.8056  -44.1111 H         1 UNK         0.0600 
    189 H189        6.3004  -16.4590  -46.3692 H         1 UNK         0.3000 
    190 H190       -1.2798  -21.0299  -49.4797 H         1 UNK         0.3000 
    191 H191       -2.2980  -22.8166  -51.5219 H         1 UNK         0.0600 
    192 H192       -4.3947  -21.6709  -51.1823 H         1 UNK         0.0600 
    193 H193       -3.1276  -20.4587  -51.1503 H         1 UNK         0.0600 
    194 H194       -3.8742  -20.9947  -49.6428 H         1 UNK         0.0600 
    195 H195       -2.5019  -22.6074  -47.9479 H         1 UNK         0.3000 
    196 H196       -4.1944  -24.8396  -47.5125 H         1 UNK         0.0600 
    197 H197       -3.2754  -24.7572  -45.1987 H         1 UNK         0.0600 
    198 H198       -3.6772  -23.1454  -45.7745 H         1 UNK         0.0600 
    199 H199       -1.9965  -23.6703  -45.7258 H         1 UNK         0.0600 
    200 H200       -0.6141  -24.6575  -47.7611 H         1 UNK         0.3000 
    201 H201       -0.0944  -27.4250  -47.3817 H         1 UNK         0.0600 
    202 H202        1.6470  -25.6733  -47.1831 H         1 UNK         0.0600 
    203 H203        1.5098  -25.2993  -48.8994 H         1 UNK         0.0600 
    204 H204        2.1244  -26.8650  -48.3831 H         1 UNK         0.0600 
    205 H205       -0.8244  -25.5527  -50.3382 H         1 UNK         0.3000 
    206 H206       -0.4897  -27.7690  -52.1638 H         1 UNK         0.0600 
    207 H207       -0.1624  -25.3915  -52.8322 H         1 UNK         0.0600 
    208 H208       -1.4169  -26.1408  -53.8065 H         1 UNK         0.0600 
    209 H209       -1.8599  -25.0482  -52.5021 H         1 UNK         0.0600 
    210 H210       -2.9976  -26.9649  -50.0055 H         1 UNK         0.3000 
    211 H211       -5.0849  -27.5497  -49.6168 H         1 UNK         0.0600 
    212 H212       -4.8016  -29.7903  -51.6879 H         1 UNK         0.0600 
    213 H213       -6.0226  -29.6684  -50.4309 H         1 UNK         0.0600 
    214 H214       -4.3405  -29.9132  -49.9904 H         1 UNK         0.0600 
    215 H215       -4.5905  -25.4283  -51.2442 H         1 UNK         0.3000 
    216 H216       -6.8707  -25.3138  -53.1845 H         1 UNK         0.0600 
    217 H217       -5.4393  -23.7697  -54.4941 H         1 UNK         0.0600 
    218 H218       -4.6046  -25.3006  -54.2853 H         1 UNK         0.0600 
    219 H219       -4.1447  -23.9078  -53.3085 H         1 UNK         0.0600 
    220 H220       -6.4188  -24.5921  -50.1623 H         1 UNK         0.3000 
    221 H221       -6.4039  -21.8135  -49.8178 H         1 UNK         0.0600 
    222 H222       -7.5893  -24.0156  -48.0554 H         1 UNK         0.0600 
    223 H223       -5.9446  -23.3770  -47.9948 H         1 UNK         0.0600 
    224 H224       -7.2947  -22.3610  -47.5320 H         1 UNK         0.0600 
    225 H225       -9.0596  -23.7565  -50.9273 H         1 UNK         0.3000 
    226 H226      -11.2182  -21.9595  -50.2985 H         1 UNK         0.0600 
    227 H227      -11.5968  -24.3478  -50.8582 H         1 UNK         0.0600 
    228 H228      -12.4452  -23.3169  -51.9991 H         1 UNK         0.0600 
    229 H229      -10.9445  -24.1002  -52.4786 H         1 UNK         0.0600 
    230 H230       -8.8249  -22.1152  -52.9097 H         1 UNK         0.3000 
    231 H231      -10.0745  -19.8807  -54.4159 H         1 UNK         0.0600 
    232 H232       -8.2421  -20.3190  -56.0323 H         1 UNK         0.0600 
    233 H233       -9.1607  -21.7857  -55.7263 H         1 UNK         0.0600 
    234 H234       -7.5761  -21.5654  -54.9858 H         1 UNK         0.0600 
    235 H235       -7.2129  -20.7699  -52.5340 H         1 UNK         0.3000 
    236 H236       -5.8185  -19.7361  -51.2121 H         1 UNK         0.0600 
    237 H237       -7.7244  -18.3250  -50.3824 H         1 UNK         0.0600 
    238 H238       -6.1803  -17.4984  -50.2958 H         1 UNK         0.0600 
    239 H239       -7.3144  -17.0910  -51.5732 H         1 UNK         0.0600 
    240 H240       -4.0383  -18.0889  -51.1119 H         1 UNK         0.3000 
    241 H241       -2.7730  -17.8636  -53.7427 H         1 UNK         0.0600 
    242 H242       -4.7405  -15.6838  -52.0559 H         1 UNK         0.3800 
    243 H243       -4.0103  -14.2257  -52.6727 H         1 UNK         0.3800 
    244 H244       -1.4062  -18.9507  -52.1481 H         1 UNK         0.0800 
    245 H245       -0.6895  -17.3921  -52.3826 H         1 UNK         0.0800 
    246 H246       -0.9214  -15.3912  -50.6122 H         1 UNK         0.0800 
    247 H247       -0.7543  -15.7985  -48.9217 H         1 UNK         0.0800 
@<TRIPOS>BOND
     1    1    2 1    
     2    1  127 1    
     3    1  128 1    
     4    1  129 1    
     5    2    3 2    
     6    2    4 am   BACKBONE|DICT|INTERRES
     7    4    5 1    
     8    4  130 1    
     9    5    6 1    
    10    5   65 1    
    11    5  131 1    
    12    6    7 1    
    13    6  132 1    
    14    6  133 1    
    15    7    8 1    
    16    8    9 1    
    17    8  134 1    
    18    8  135 1    
    19    9   10 ar   
    20    9   14 ar   
    21   10   11 ar   
    22   10  136 1    
    23   11   12 ar   
    24   11  126 1    
    25   12   13 ar   
    26   12  137 1    
    27   13   14 ar   
    28   13   15 1    
    29   14  138 1    
    30   15   16 1    
    31   15  139 1    
    32   15  140 1    
    33   16   17 1    
    34   17   18 1    
    35   17  141 1    
    36   17  142 1    
    37   18   19 1    
    38   18   67 1    
    39   18  143 1    
    40   19   20 am   BACKBONE|DICT|INTERRES
    41   19  144 1    
    42   20   21 2    
    43   20   22 1    
    44   22   23 1    
    45   22   24 1    
    46   22  145 1    
    47   23  146 1    
    48   23  147 1    
    49   23  148 1    
    50   24   25 am   BACKBONE|DICT|INTERRES
    51   24  149 1    
    52   25   26 2    
    53   25   27 1    
    54   27   28 1    
    55   27   29 1    
    56   27  150 1    
    57   28  151 1    
    58   28  152 1    
    59   28  153 1    
    60   29   30 am   BACKBONE|DICT|INTERRES
    61   29  154 1    
    62   30   31 2    
    63   30   32 1    
    64   32   33 1    
    65   32   34 1    
    66   32  155 1    
    67   33  156 1    
    68   33  157 1    
    69   33  158 1    
    70   34   35 am   BACKBONE|DICT|INTERRES
    71   34  159 1    
    72   35   36 2    
    73   35   37 1    
    74   37   38 1    
    75   37   39 1    
    76   37  160 1    
    77   38  161 1    
    78   38  162 1    
    79   38  163 1    
    80   39   40 am   BACKBONE|DICT|INTERRES
    81   39  164 1    
    82   40   41 2    
    83   40   42 1    
    84   42   43 1    
    85   42   44 1    
    86   42  165 1    
    87   43  166 1    
    88   43  167 1    
    89   43  168 1    
    90   44   45 am   BACKBONE|DICT|INTERRES
    91   44  169 1    
    92   45   46 2    
    93   45   47 1    
    94   47   48 1    
    95   47   49 1    
    96   47  170 1    
    97   48  171 1    
    98   48  172 1    
    99   48  173 1    
   100   49   50 am   BACKBONE|DICT|INTERRES
   101   49  174 1    
   102   50   51 2    
   103   50   52 1    
   104   52   53 1    
   105   52   54 1    
   106   52  175 1    
   107   53  176 1    
   108   53  177 1    
   109   53  178 1    
   110   54   55 am   BACKBONE|DICT|INTERRES
   111   54  179 1    
   112   55   56 2    
   113   55   57 1    
   114   57   58 1    
   115   57   59 1    
   116   57  180 1    
   117   58  181 1    
   118   58  182 1    
   119   58  183 1    
   120   59   60 am   BACKBONE|DICT|INTERRES
   121   59  184 1    
   122   60   61 2    
   123   60   62 1    
   124   62   63 1    
   125   62   64 1    
   126   62  185 1    
   127   63  186 1    
   128   63  187 1    
   129   63  188 1    
   130   64   65 am   BACKBONE|DICT|INTERRES
   131   64  189 1    
   132   65   66 2    
   133   67   68 2    
   134   67   69 am   BACKBONE|DICT|INTERRES
   135   69   70 1    
   136   69  190 1    
   137   70   71 1    
   138   70   72 1    
   139   70  191 1    
   140   71  192 1    
   141   71  193 1    
   142   71  194 1    
   143   72   73 2    
   144   72   74 am   BACKBONE|DICT|INTERRES
   145   74   75 1    
   146   74  195 1    
   147   75   76 1    
   148   75   77 1    
   149   75  196 1    
   150   76  197 1    
   151   76  198 1    
   152   76  199 1    
   153   77   78 2    
   154   77   79 am   BACKBONE|DICT|INTERRES
   155   79   80 1    
   156   79  200 1    
   157   80   81 1    
   158   80   82 1    
   159   80  201 1    
   160   81  202 1    
   161   81  203 1    
   162   81  204 1    
   163   82   83 2    
   164   82   84 am   BACKBONE|DICT|INTERRES
   165   84   85 1    
   166   84  205 1    
   167   85   86 1    
   168   85   87 1    
   169   85  206 1    
   170   86  207 1    
   171   86  208 1    
   172   86  209 1    
   173   87   88 2    
   174   87   89 am   BACKBONE|DICT|INTERRES
   175   89   90 1    
   176   89  210 1    
   177   90   91 1    
   178   90   92 1    
   179   90  211 1    
   180   91  212 1    
   181   91  213 1    
   182   91  214 1    
   183   92   93 2    
   184   92   94 am   BACKBONE|DICT|INTERRES
   185   94   95 1    
   186   94  215 1    
   187   95   96 1    
   188   95   97 1    
   189   95  216 1    
   190   96  217 1    
   191   96  218 1    
   192   96  219 1    
   193   97   98 2    
   194   97   99 am   BACKBONE|DICT|INTERRES
   195   99  100 1    
   196   99  220 1    
   197  100  101 1    
   198  100  102 1    
   199  100  221 1    
   200  101  222 1    
   201  101  223 1    
   202  101  224 1    
   203  102  103 2    
   204  102  104 am   BACKBONE|DICT|INTERRES
   205  104  105 1    
   206  104  225 1    
   207  105  106 1    
   208  105  107 1    
   209  105  226 1    
   210  106  227 1    
   211  106  228 1    
   212  106  229 1    
   213  107  108 2    
   214  107  109 am   BACKBONE|DICT|INTERRES
   215  109  110 1    
   216  109  230 1    
   217  110  111 1    
   218  110  112 1    
   219  110  231 1    
   220  111  232 1    
   221  111  233 1    
   222  111  234 1    
   223  112  113 2    
   224  112  114 am   BACKBONE|DICT|INTERRES
   225  114  115 1    
   226  114  235 1    
   227  115  116 1    
   228  115  117 1    
   229  115  236 1    
   230  116  237 1    
   231  116  238 1    
   232  116  239 1    
   233  117  118 2    
   234  117  119 am   BACKBONE|DICT|INTERRES
   235  119  120 1    
   236  119  240 1    
   237  120  121 1    
   238  120  124 1    
   239  120  241 1    
   240  121  122 am   BACKBONE|DICT|INTERRES
   241  121  123 2    
   242  122  242 1    
   243  122  243 1    
   244  124  125 1    
   245  124  244 1    
   246  124  245 1    
   247  125  126 1    
   248  126  246 1    
   249  126  247 1    
@<TRIPOS>SUBSTRUCTURE
     1 UNK         1 GROUP             0       ****    0 ROOT    
