@<TRIPOS>MOLECULE
3R540
247   249    1
SMALL
USER_CHARGES


@<TRIPOS>ATOM
      1 CA          8.7164  -14.7650  -49.2823 C.3       0 UNK        -0.1800 
      2 C           7.3504  -15.0190  -48.6596 C.2       0 UNK         0.5000 
      3 O           6.9428  -14.2792  -47.7635 O.2       0 UNK        -0.5000 
      4 N           6.6466  -16.0541  -49.1394 N.am      1 UNK        -0.5000 
      5 CA          5.3390  -16.5223  -48.6600 C.3       1 UNK         0.1400 
      6 C6          4.2449  -15.4157  -48.7272 C.3       23 UNK        -0.0398 
      7 S7          2.5651  -16.0829  -48.9666 S.3       23 UNK        -0.2404 
      8 C8          2.5319  -16.2723  -50.7750 C.3       23 UNK        -0.0205 
      9 C9          1.4933  -17.3054  -51.1681 C.ar      23 UNK        -0.0193 
     10 C10         0.2401  -16.9131  -51.6398 C.ar      23 UNK        -0.1150 
     11 C11        -0.7301  -17.8716  -51.9442 C.ar      23 UNK        -0.0193 
     12 C12        -0.4403  -19.2272  -51.7656 C.ar      23 UNK        -0.1150 
     13 C13         0.8107  -19.6351  -51.2931 C.ar      23 UNK        -0.0193 
     14 C14         1.7803  -18.6634  -51.0195 C.ar      23 UNK        -0.1150 
     15 C15         1.0857  -21.1244  -51.0894 C.3       23 UNK        -0.0205 
     16 S16         2.2516  -21.4941  -49.7331 S.3       23 UNK        -0.2404 
     17 C17         1.2947  -20.9568  -48.2746 C.3       23 UNK        -0.0398 
     18 CA          1.1554  -22.1040  -47.2466 C.3       11 UNK         0.1400 
     19 N           1.0403  -21.6231  -45.8673 N.am      11 UNK        -0.5000 
     20 C           1.1460  -22.4158  -44.7901 C.2       10 UNK         0.5000 
     21 O           1.4335  -23.6104  -44.8491 O.2       10 UNK        -0.5000 
     22 CA          0.8018  -21.7983  -43.4251 C.3       10 UNK         0.1400 
     23 CB          2.0244  -21.1482  -42.7655 C.3       10 UNK        -0.1800 
     24 N          -0.2892  -20.8309  -43.5264 N.am      10 UNK        -0.5000 
     25 C          -1.5647  -21.1822  -43.7315 C.2       9 UNK         0.5000 
     26 O          -1.9415  -22.3504  -43.8265 O.2       9 UNK        -0.5000 
     27 CA         -2.5865  -20.0410  -43.8691 C.3       9 UNK         0.1400 
     28 CB         -3.0393  -19.5779  -42.4766 C.3       9 UNK        -0.1800 
     29 N          -2.1122  -18.8873  -44.6404 N.am      9 UNK        -0.5000 
     30 C          -1.6991  -18.9208  -45.9170 C.2       8 UNK         0.5000 
     31 O          -1.5703  -19.9607  -46.5617 O.2       8 UNK        -0.5000 
     32 CA         -1.3921  -17.5606  -46.5748 C.3       8 UNK         0.1400 
     33 CB         -1.2835  -17.6276  -48.1140 C.3       8 UNK        -0.1800 
     34 N          -2.3276  -16.5131  -46.1470 N.am      8 UNK        -0.5000 
     35 C          -3.6420  -16.4419  -46.4064 C.2       7 UNK         0.5000 
     36 O          -4.2534  -17.2663  -47.0872 O.2       7 UNK        -0.5000 
     37 CA         -4.3872  -15.2218  -45.8269 C.3       7 UNK         0.1400 
     38 CB         -5.9225  -15.3998  -45.7970 C.3       7 UNK        -0.1800 
     39 N          -3.8672  -14.8040  -44.5203 N.am      7 UNK        -0.5000 
     40 C          -3.9753  -15.4613  -43.3546 C.2       6 UNK         0.5000 
     41 O          -4.5711  -16.5302  -43.2323 O.2       6 UNK        -0.5000 
     42 CA         -3.2953  -14.8319  -42.1206 C.3       6 UNK         0.1400 
     43 CB         -2.6936  -15.9044  -41.1950 C.3       6 UNK        -0.1800 
     44 N          -2.2354  -13.9037  -42.5122 N.am      6 UNK        -0.5000 
     45 C          -2.3377  -12.5685  -42.5472 C.2       5 UNK         0.5000 
     46 O          -3.3393  -11.9510  -42.1852 O.2       5 UNK        -0.5000 
     47 CA         -1.1292  -11.7860  -43.1036 C.3       5 UNK         0.1400 
     48 CB         -0.3042  -11.1871  -41.9543 C.3       5 UNK        -0.1800 
     49 N          -0.2424  -12.5864  -43.9535 N.am      5 UNK        -0.5000 
     50 C          -0.5699  -13.1052  -45.1455 C.2       4 UNK         0.5000 
     51 O          -1.6705  -12.9601  -45.6776 O.2       4 UNK        -0.5000 
     52 CA          0.4925  -13.9961  -45.8189 C.3       4 UNK         0.1400 
     53 CB          1.4747  -13.1286  -46.6191 C.3       4 UNK        -0.1800 
     54 N           1.2435  -14.8394  -44.8788 N.am      4 UNK        -0.5000 
     55 C           0.7072  -15.7093  -44.0097 C.2       3 UNK         0.5000 
     56 O          -0.5072  -15.8875  -43.8920 O.2       3 UNK        -0.5000 
     57 CA          1.6973  -16.4967  -43.1292 C.3       3 UNK         0.1400 
     58 CB          1.0107  -17.5957  -42.2940 C.3       3 UNK        -0.1800 
     59 N           2.8291  -17.0422  -43.8880 N.am      3 UNK        -0.5000 
     60 C           2.7922  -17.9522  -44.8720 C.2       2 UNK         0.5000 
     61 O           1.7622  -18.4689  -45.3124 O.2       2 UNK        -0.5000 
     62 CA          4.1519  -18.3343  -45.4703 C.3       2 UNK         0.1400 
     63 CB          4.3174  -19.8538  -45.6571 C.3       2 UNK        -0.1800 
     64 N           4.2851  -17.6559  -46.7519 N.am      2 UNK        -0.5000 
     65 C           5.4343  -17.2228  -47.2804 C.2       1 UNK         0.5000 
     66 O           6.5298  -17.3933  -46.7376 O.2       1 UNK        -0.5000 
     67 C          -0.0039  -23.0543  -47.6057 C.2       11 UNK         0.5000 
     68 O           0.2432  -24.1284  -48.1512 O.2       11 UNK        -0.5000 
     69 N          -1.2327  -22.6791  -47.2226 N.am      12 UNK        -0.5000 
     70 CA         -2.4456  -23.4778  -47.3924 C.3       12 UNK         0.1400 
     71 CB         -3.6671  -22.6711  -46.9301 C.3       12 UNK        -0.1800 
     72 C          -2.3808  -24.8373  -46.6726 C.2       12 UNK         0.5000 
     73 O          -2.8644  -25.8308  -47.2136 O.2       12 UNK        -0.5000 
     74 N          -1.7582  -24.8677  -45.4880 N.am      13 UNK        -0.5000 
     75 CA         -1.4886  -26.0906  -44.7369 C.3       13 UNK         0.1400 
     76 CB         -1.1259  -25.7288  -43.2881 C.3       13 UNK        -0.1800 
     77 C          -0.3836  -26.9503  -45.3815 C.2       13 UNK         0.5000 
     78 O          -0.5531  -28.1648  -45.4971 O.2       13 UNK        -0.5000 
     79 N           0.7331  -26.3161  -45.7639 N.am      14 UNK        -0.5000 
     80 CA          1.9409  -26.9956  -46.2321 C.3       14 UNK         0.1400 
     81 CB          3.1510  -26.0694  -46.0315 C.3       14 UNK        -0.1800 
     82 C           1.8781  -27.4689  -47.6949 C.2       14 UNK         0.5000 
     83 O           2.3241  -28.5808  -47.9828 O.2       14 UNK        -0.5000 
     84 N           1.3836  -26.6100  -48.5942 N.am      15 UNK        -0.5000 
     85 CA          1.5257  -26.7557  -50.0463 C.3       15 UNK         0.1400 
     86 CB          2.5835  -25.7448  -50.5254 C.3       15 UNK        -0.1800 
     87 C           0.2064  -26.5706  -50.8184 C.2       15 UNK         0.5000 
     88 O           0.2225  -26.6898  -52.0449 O.2       15 UNK        -0.5000 
     89 N          -0.8953  -26.2967  -50.1041 N.am      16 UNK        -0.5000 
     90 CA         -2.2287  -25.9322  -50.6012 C.3       16 UNK         0.1400 
     91 CB         -2.7832  -26.9755  -51.5955 C.3       16 UNK        -0.1800 
     92 C          -2.2919  -24.4974  -51.1688 C.2       16 UNK         0.5000 
     93 O          -1.2596  -23.8760  -51.4231 O.2       16 UNK        -0.5000 
     94 N          -3.5318  -24.0149  -51.3384 N.am      17 UNK        -0.5000 
     95 CA         -3.9495  -22.6715  -51.7548 C.3       17 UNK         0.1400 
     96 CB         -3.3062  -22.2326  -53.0868 C.3       17 UNK        -0.1800 
     97 C          -3.7525  -21.6144  -50.6507 C.2       17 UNK         0.5000 
     98 O          -2.6238  -21.3006  -50.2758 O.2       17 UNK        -0.5000 
     99 N          -4.8746  -21.0642  -50.1748 N.am      18 UNK        -0.5000 
    100 CA        -4.9321  -19.8342  -49.3837 C.3       18 UNK         0.1400 
    101 CB        -6.1374  -19.9271  -48.4330 C.3       18 UNK        -0.1800 
    102 C         -5.0835  -18.6287  -50.3302 C.2       18 UNK         0.5000 
    103 O         -5.3062  -18.8127  -51.5301 O.2       18 UNK        -0.5000 
    104 N         -5.0086  -17.4046  -49.7918 N.am      19 UNK        -0.5000 
    105 CA        -5.1550  -16.1518  -50.5494 C.3       19 UNK         0.1400 
    106 CB        -4.9410  -14.9483  -49.6228 C.3       19 UNK        -0.1800 
    107 C         -6.4893  -16.0265  -51.3133 C.2       19 UNK         0.5000 
    108 O         -6.5208  -15.4197  -52.3840 O.2       19 UNK        -0.5000 
    109 N         -7.5463  -16.6593  -50.7865 N.am      20 UNK        -0.5000 
    110 CA        -8.8520  -16.7946  -51.4332 C.3       20 UNK         0.1400 
    111 CB        -9.8535  -17.3548  -50.4117 C.3       20 UNK        -0.1800 
    112 C         -8.8296  -17.6733  -52.7028 C.2       20 UNK         0.5000 
    113 O         -9.6747  -17.4784  -53.5771 O.2       20 UNK        -0.5000 
    114 N         -7.8773  -18.6142  -52.7893 N.am      21 UNK        -0.5000 
    115 CA        -7.6553  -19.4579  -53.9638 C.3       21 UNK         0.1400 
    116 CB        -7.0649  -20.8101  -53.5328 C.3       21 UNK        -0.1800 
    117 C         -6.7447  -18.7604  -54.9892 C.2       21 UNK         0.5000 
    118 O         -6.9808  -18.9012  -56.1900 O.2       21 UNK        -0.5000 
    119 N         -5.7418  -18.0083  -54.5096 N.am      22 UNK        -0.5000 
    120 CA        -4.8989  -17.1359  -55.3469 C.3       22 UNK         0.1400 
    121 C         -5.6897  -15.9576  -55.9847 C.2       22 UNK         0.5000 
    122 N         -6.5550  -15.2785  -55.2417 N.am      22 UNK        -0.7600 
    123 O         -5.5154  -15.6580  -57.1627 O.2       22 UNK        -0.5000 
    124 C124       -3.6629  -16.5863  -54.5923 C.3       23 UNK        -0.0398 
    125 S125       -2.4414  -17.8668  -54.1424 S.3       23 UNK        -0.2404 
    126 C126       -2.1082  -17.4345  -52.4069 C.3       23 UNK        -0.0205 
    127 H127        8.9445  -15.4844  -50.0692 H         1 UNK         0.0600 
    128 H128        9.4938  -14.8357  -48.5216 H         1 UNK         0.0600 
    129 H129        8.7515  -13.7654  -49.7155 H         1 UNK         0.0600 
    130 H130        7.0653  -16.6290  -49.8572 H         1 UNK         0.3000 
    131 H131        5.0651  -17.3101  -49.3633 H         1 UNK         0.0600 
    132 H132        4.2597  -14.7986  -47.8277 H         1 UNK         0.0800 
    133 H133        4.4468  -14.7316  -49.5529 H         1 UNK         0.0800 
    134 H134        2.3209  -15.3075  -51.2388 H         1 UNK         0.0800 
    135 H135        3.5094  -16.5877  -51.1424 H         1 UNK         0.0800 
    136 H136        0.0146  -15.8616  -51.7486 H         1 UNK         0.1150 
    137 H137       -1.1984  -19.9650  -51.9866 H         1 UNK         0.1150 
    138 H138        2.7557  -18.9539  -50.6574 H         1 UNK         0.1150 
    139 H139        0.1518  -21.6541  -50.8927 H         1 UNK         0.0800 
    140 H140        1.4852  -21.5343  -52.0174 H         1 UNK         0.0800 
    141 H141        1.8245  -20.1095  -47.8390 H         1 UNK         0.0800 
    142 H142        0.3195  -20.5674  -48.5740 H         1 UNK         0.0800 
    143 H143        2.0739  -22.6952  -47.2764 H         1 UNK         0.0600 
    144 H144        0.7796  -20.6539  -45.7405 H         1 UNK         0.3000 
    145 H145        0.4773  -22.6140  -42.7751 H         1 UNK         0.0600 
    146 H146        1.8025  -20.8482  -41.7413 H         1 UNK         0.0600 
    147 H147        2.8649  -21.8424  -42.7264 H         1 UNK         0.0600 
    148 H148        2.3512  -20.2639  -43.3058 H         1 UNK         0.0600 
    149 H149       -0.0479  -19.8517  -43.5000 H         1 UNK         0.3000 
    150 H150       -3.4554  -20.4452  -44.3920 H         1 UNK         0.0600 
    151 H151       -3.3442  -20.4250  -41.8604 H         1 UNK         0.0600 
    152 H152       -3.8970  -18.9110  -42.5426 H         1 UNK         0.0600 
    153 H153       -2.2430  -19.0554  -41.9454 H         1 UNK         0.0600 
    154 H154       -2.1890  -17.9840  -44.1946 H         1 UNK         0.3000 
    155 H155       -0.4112  -17.2643  -46.2076 H         1 UNK         0.0600 
    156 H156       -1.0917  -16.6434  -48.5412 H         1 UNK         0.0600 
    157 H157       -2.1881  -18.0238  -48.5746 H         1 UNK         0.0600 
    158 H158       -0.4583  -18.2721  -48.4178 H         1 UNK         0.0600 
    159 H159       -1.9357  -15.8288  -45.5124 H         1 UNK         0.3000 
    160 H160       -4.1725  -14.3968  -46.5076 H         1 UNK         0.0600 
    161 H161       -6.2247  -16.2520  -45.1885 H         1 UNK         0.0600 
    162 H162       -6.3229  -15.5719  -46.7949 H         1 UNK         0.0600 
    163 H163       -6.4145  -14.5120  -45.4002 H         1 UNK         0.0600 
    164 H164       -3.3238  -13.9497  -44.5311 H         1 UNK         0.3000 
    165 H165       -4.0710  -14.3045  -41.5623 H         1 UNK         0.0600 
    166 H166       -1.9814  -16.5361  -41.7248 H         1 UNK         0.0600 
    167 H167       -2.1775  -15.4523  -40.3481 H         1 UNK         0.0600 
    168 H168       -3.4695  -16.5554  -40.7906 H         1 UNK         0.0600 
    169 H169       -1.3979  -14.3400  -42.8800 H         1 UNK         0.3000 
    170 H170       -1.5226  -10.9657  -43.7075 H         1 UNK         0.0600 
    171 H171       -0.9236  -10.5564  -41.3151 H         1 UNK         0.0600 
    172 H172        0.1319  -11.9640  -41.3250 H         1 UNK         0.0600 
    173 H173        0.5071  -10.5650  -42.3326 H         1 UNK         0.0600 
    174 H174        0.6817  -12.7706  -43.5916 H         1 UNK         0.3000 
    175 H175       -0.0226  -14.6587  -46.5170 H         1 UNK         0.0600 
    176 H176        2.0395  -12.4558  -45.9727 H         1 UNK         0.0600 
    177 H177        2.1879  -13.7412  -47.1669 H         1 UNK         0.0600 
    178 H178        0.9477  -12.5159  -47.3518 H         1 UNK         0.0600 
    179 H179        2.2492  -14.7627  -44.9151 H         1 UNK         0.3000 
    180 H180        2.1196  -15.7745  -42.4292 H         1 UNK         0.0600 
    181 H181        0.4464  -18.2815  -42.9223 H         1 UNK         0.0600 
    182 H182        0.3131  -17.1604  -41.5786 H         1 UNK         0.0600 
    183 H183        1.7371  -18.1745  -41.7240 H         1 UNK         0.0600 
    184 H184        3.7330  -16.6761  -43.6225 H         1 UNK         0.3000 
    185 H185        4.9343  -17.9913  -44.7896 H         1 UNK         0.0600 
    186 H186        5.2965  -20.0934  -46.0718 H         1 UNK         0.0600 
    187 H187        4.2368  -20.3779  -44.7054 H         1 UNK         0.0600 
    188 H188        3.5664  -20.2675  -46.3278 H         1 UNK         0.0600 
    189 H189        3.4167  -17.4707  -47.2402 H         1 UNK         0.3000 
    190 H190       -1.3541  -21.7471  -46.8302 H         1 UNK         0.3000 
    191 H191       -2.5541  -23.6682  -48.4592 H         1 UNK         0.0600 
    192 H192       -3.7007  -21.6974  -47.4168 H         1 UNK         0.0600 
    193 H193       -4.5931  -23.1920  -47.1755 H         1 UNK         0.0600 
    194 H194       -3.6596  -22.5039  -45.8537 H         1 UNK         0.0600 
    195 H195       -1.4507  -23.9940  -45.0765 H         1 UNK         0.3000 
    196 H196       -2.4038  -26.6860  -44.7131 H         1 UNK         0.0600 
    197 H197       -0.9467  -26.6263  -42.6949 H         1 UNK         0.0600 
    198 H198       -1.9329  -25.1757  -42.8071 H         1 UNK         0.0600 
    199 H199       -0.2258  -25.1158  -43.2365 H         1 UNK         0.0600 
    200 H200        0.8119  -25.3160  -45.6046 H         1 UNK         0.3000 
    201 H201        2.0987  -27.8787  -45.6089 H         1 UNK         0.0600 
    202 H202        3.2718  -25.8010  -44.9818 H         1 UNK         0.0600 
    203 H203        3.0496  -25.1457  -46.6029 H         1 UNK         0.0600 
    204 H204        4.0742  -26.5544  -46.3512 H         1 UNK         0.0600 
    205 H205        1.0205  -25.7100  -48.2791 H         1 UNK         0.3000 
    206 H206        1.8786  -27.7582  -50.2956 H         1 UNK         0.0600 
    207 H207        3.5387  -25.9054  -50.0254 H         1 UNK         0.0600 
    208 H208        2.7606  -25.8341  -51.5978 H         1 UNK         0.0600 
    209 H209        2.2699  -24.7186  -50.3280 H         1 UNK         0.0600 
    210 H210       -0.7708  -26.1876  -49.1074 H         1 UNK         0.3000 
    211 H211       -2.8800  -25.9512  -49.7295 H         1 UNK         0.0600 
    212 H212       -2.2929  -26.9177  -52.5674 H         1 UNK         0.0600 
    213 H213       -3.8491  -26.8239  -51.7674 H         1 UNK         0.0600 
    214 H214       -2.6605  -27.9896  -51.2150 H         1 UNK         0.0600 
    215 H215       -4.2983  -24.6241  -51.0891 H         1 UNK         0.3000 
    216 H216       -5.0206  -22.7577  -51.9450 H         1 UNK         0.0600 
    217 H217       -3.4805  -22.9678  -53.8721 H         1 UNK         0.0600 
    218 H218       -2.2302  -22.0842  -52.9961 H         1 UNK         0.0600 
    219 H219       -3.7267  -21.2850  -53.4258 H         1 UNK         0.0600 
    220 H220       -5.7562  -21.3643  -50.5631 H         1 UNK         0.3000 
    221 H221       -4.0187  -19.7089  -48.7982 H         1 UNK         0.0600 
    222 H222       -7.0793  -19.9976  -48.9788 H         1 UNK         0.0600 
    223 H223       -6.0610  -20.8005  -47.7855 H         1 UNK         0.0600 
    224 H224       -6.1985  -19.0530  -47.7839 H         1 UNK         0.0600 
    225 H225       -4.8082  -17.3225  -48.7953 H         1 UNK         0.3000 
    226 H226       -4.3645  -16.1311  -51.2975 H         1 UNK         0.0600 
    227 H227       -4.9626  -14.0153  -50.1876 H         1 UNK         0.0600 
    228 H228       -5.7177  -14.8844  -48.8628 H         1 UNK         0.0600 
    229 H229       -3.9737  -15.0004  -49.1233 H         1 UNK         0.0600 
    230 H230       -7.4254  -17.1335  -49.9040 H         1 UNK         0.3000 
    231 H231       -9.1861  -15.7981  -51.7298 H         1 UNK         0.0600 
    232 H232      -10.8490  -17.4443  -50.8488 H         1 UNK         0.0600 
    233 H233       -9.9393  -16.7014  -49.5432 H         1 UNK         0.0600 
    234 H234       -9.5589  -18.3447  -50.0607 H         1 UNK         0.0600 
    235 H235       -7.1709  -18.6724  -52.0643 H         1 UNK         0.3000 
    236 H236       -8.6139  -19.6574  -54.4477 H         1 UNK         0.0600 
    237 H237       -7.7021  -21.3042  -52.7994 H         1 UNK         0.0600 
    238 H238       -6.9707  -21.4809  -54.3876 H         1 UNK         0.0600 
    239 H239       -6.0729  -20.6997  -53.0984 H         1 UNK         0.0600 
    240 H240       -5.5786  -17.9902  -53.5111 H         1 UNK         0.3000 
    241 H241       -4.5293  -17.7454  -56.1742 H         1 UNK         0.0600 
    242 H242       -7.0706  -14.5183  -55.6551 H         1 UNK         0.3800 
    243 H243       -6.6432  -15.4577  -54.2442 H         1 UNK         0.3800 
    244 H244       -3.9874  -16.0416  -53.7052 H         1 UNK         0.0800 
    245 H245       -3.1320  -15.8592  -55.2100 H         1 UNK         0.0800 
    246 H246       -2.2172  -16.3587  -52.2648 H         1 UNK         0.0800 
    247 H247       -2.8496  -17.9145  -51.7753 H         1 UNK         0.0800 
@<TRIPOS>BOND
     1    1    2 1    
     2    1  127 1    
     3    1  128 1    
     4    1  129 1    
     5    2    3 2    
     6    2    4 am   BACKBONE|DICT|INTERRES
     7    4    5 1    
     8    4  130 1    
     9    5    6 1    
    10    5   65 1    
    11    5  131 1    
    12    6    7 1    
    13    6  132 1    
    14    6  133 1    
    15    7    8 1    
    16    8    9 1    
    17    8  134 1    
    18    8  135 1    
    19    9   10 ar   
    20    9   14 ar   
    21   10   11 ar   
    22   10  136 1    
    23   11   12 ar   
    24   11  126 1    
    25   12   13 ar   
    26   12  137 1    
    27   13   14 ar   
    28   13   15 1    
    29   14  138 1    
    30   15   16 1    
    31   15  139 1    
    32   15  140 1    
    33   16   17 1    
    34   17   18 1    
    35   17  141 1    
    36   17  142 1    
    37   18   19 1    
    38   18   67 1    
    39   18  143 1    
    40   19   20 am   BACKBONE|DICT|INTERRES
    41   19  144 1    
    42   20   21 2    
    43   20   22 1    
    44   22   23 1    
    45   22   24 1    
    46   22  145 1    
    47   23  146 1    
    48   23  147 1    
    49   23  148 1    
    50   24   25 am   BACKBONE|DICT|INTERRES
    51   24  149 1    
    52   25   26 2    
    53   25   27 1    
    54   27   28 1    
    55   27   29 1    
    56   27  150 1    
    57   28  151 1    
    58   28  152 1    
    59   28  153 1    
    60   29   30 am   BACKBONE|DICT|INTERRES
    61   29  154 1    
    62   30   31 2    
    63   30   32 1    
    64   32   33 1    
    65   32   34 1    
    66   32  155 1    
    67   33  156 1    
    68   33  157 1    
    69   33  158 1    
    70   34   35 am   BACKBONE|DICT|INTERRES
    71   34  159 1    
    72   35   36 2    
    73   35   37 1    
    74   37   38 1    
    75   37   39 1    
    76   37  160 1    
    77   38  161 1    
    78   38  162 1    
    79   38  163 1    
    80   39   40 am   BACKBONE|DICT|INTERRES
    81   39  164 1    
    82   40   41 2    
    83   40   42 1    
    84   42   43 1    
    85   42   44 1    
    86   42  165 1    
    87   43  166 1    
    88   43  167 1    
    89   43  168 1    
    90   44   45 am   BACKBONE|DICT|INTERRES
    91   44  169 1    
    92   45   46 2    
    93   45   47 1    
    94   47   48 1    
    95   47   49 1    
    96   47  170 1    
    97   48  171 1    
    98   48  172 1    
    99   48  173 1    
   100   49   50 am   BACKBONE|DICT|INTERRES
   101   49  174 1    
   102   50   51 2    
   103   50   52 1    
   104   52   53 1    
   105   52   54 1    
   106   52  175 1    
   107   53  176 1    
   108   53  177 1    
   109   53  178 1    
   110   54   55 am   BACKBONE|DICT|INTERRES
   111   54  179 1    
   112   55   56 2    
   113   55   57 1    
   114   57   58 1    
   115   57   59 1    
   116   57  180 1    
   117   58  181 1    
   118   58  182 1    
   119   58  183 1    
   120   59   60 am   BACKBONE|DICT|INTERRES
   121   59  184 1    
   122   60   61 2    
   123   60   62 1    
   124   62   63 1    
   125   62   64 1    
   126   62  185 1    
   127   63  186 1    
   128   63  187 1    
   129   63  188 1    
   130   64   65 am   BACKBONE|DICT|INTERRES
   131   64  189 1    
   132   65   66 2    
   133   67   68 2    
   134   67   69 am   BACKBONE|DICT|INTERRES
   135   69   70 1    
   136   69  190 1    
   137   70   71 1    
   138   70   72 1    
   139   70  191 1    
   140   71  192 1    
   141   71  193 1    
   142   71  194 1    
   143   72   73 2    
   144   72   74 am   BACKBONE|DICT|INTERRES
   145   74   75 1    
   146   74  195 1    
   147   75   76 1    
   148   75   77 1    
   149   75  196 1    
   150   76  197 1    
   151   76  198 1    
   152   76  199 1    
   153   77   78 2    
   154   77   79 am   BACKBONE|DICT|INTERRES
   155   79   80 1    
   156   79  200 1    
   157   80   81 1    
   158   80   82 1    
   159   80  201 1    
   160   81  202 1    
   161   81  203 1    
   162   81  204 1    
   163   82   83 2    
   164   82   84 am   BACKBONE|DICT|INTERRES
   165   84   85 1    
   166   84  205 1    
   167   85   86 1    
   168   85   87 1    
   169   85  206 1    
   170   86  207 1    
   171   86  208 1    
   172   86  209 1    
   173   87   88 2    
   174   87   89 am   BACKBONE|DICT|INTERRES
   175   89   90 1    
   176   89  210 1    
   177   90   91 1    
   178   90   92 1    
   179   90  211 1    
   180   91  212 1    
   181   91  213 1    
   182   91  214 1    
   183   92   93 2    
   184   92   94 am   BACKBONE|DICT|INTERRES
   185   94   95 1    
   186   94  215 1    
   187   95   96 1    
   188   95   97 1    
   189   95  216 1    
   190   96  217 1    
   191   96  218 1    
   192   96  219 1    
   193   97   98 2    
   194   97   99 am   BACKBONE|DICT|INTERRES
   195   99  100 1    
   196   99  220 1    
   197  100  101 1    
   198  100  102 1    
   199  100  221 1    
   200  101  222 1    
   201  101  223 1    
   202  101  224 1    
   203  102  103 2    
   204  102  104 am   BACKBONE|DICT|INTERRES
   205  104  105 1    
   206  104  225 1    
   207  105  106 1    
   208  105  107 1    
   209  105  226 1    
   210  106  227 1    
   211  106  228 1    
   212  106  229 1    
   213  107  108 2    
   214  107  109 am   BACKBONE|DICT|INTERRES
   215  109  110 1    
   216  109  230 1    
   217  110  111 1    
   218  110  112 1    
   219  110  231 1    
   220  111  232 1    
   221  111  233 1    
   222  111  234 1    
   223  112  113 2    
   224  112  114 am   BACKBONE|DICT|INTERRES
   225  114  115 1    
   226  114  235 1    
   227  115  116 1    
   228  115  117 1    
   229  115  236 1    
   230  116  237 1    
   231  116  238 1    
   232  116  239 1    
   233  117  118 2    
   234  117  119 am   BACKBONE|DICT|INTERRES
   235  119  120 1    
   236  119  240 1    
   237  120  121 1    
   238  120  124 1    
   239  120  241 1    
   240  121  122 am   BACKBONE|DICT|INTERRES
   241  121  123 2    
   242  122  242 1    
   243  122  243 1    
   244  124  125 1    
   245  124  244 1    
   246  124  245 1    
   247  125  126 1    
   248  126  246 1    
   249  126  247 1    
@<TRIPOS>SUBSTRUCTURE
     1 UNK         1 GROUP             0       ****    0 ROOT    
