@<TRIPOS>MOLECULE
3R540
247   249    1
SMALL
USER_CHARGES


@<TRIPOS>ATOM
      1 CA          3.1196  -10.3284  -48.6041 C.3       0 UNK        -0.1800 
      2 C           3.2026  -11.8142  -48.2854 C.2       0 UNK         0.5000 
      3 O           2.2814  -12.3601  -47.6797 O.2       0 UNK        -0.5000 
      4 N           4.3107  -12.4603  -48.6738 N.am      1 UNK        -0.5000 
      5 CA          4.6376  -13.8909  -48.5275 C.3       1 UNK         0.1400 
      6 C6          3.5957  -14.8534  -49.1545 C.3       23 UNK        -0.0398 
      7 S7          3.4005  -14.5911  -50.9500 S.3       23 UNK        -0.2404 
      8 C8          4.1834  -16.0921  -51.6258 C.3       23 UNK        -0.0205 
      9 C9          3.4068  -17.3538  -51.2735 C.ar      23 UNK        -0.0193 
     10 C10         2.1055  -17.5295  -51.7508 C.ar      23 UNK        -0.1150 
     11 C11         1.3730  -18.6752  -51.4300 C.ar      23 UNK        -0.0193 
     12 C12         1.9603  -19.6530  -50.6166 C.ar      23 UNK        -0.1150 
     13 C13         3.2741  -19.5056  -50.1571 C.ar      23 UNK        -0.0193 
     14 C14         3.9891  -18.3499  -50.4839 C.ar      23 UNK        -0.1150 
     15 C15         3.9472  -20.6246  -49.3714 C.3       23 UNK        -0.0205 
     16 S16         4.2752  -20.2149  -47.6233 S.3       23 UNK        -0.2404 
     17 C17         2.6077  -20.0189  -46.9129 C.3       23 UNK        -0.0398 
     18 CA          1.9721  -21.3501  -46.4220 C.3       11 UNK         0.1400 
     19 N           1.1030  -21.1506  -45.2535 N.am      11 UNK        -0.5000 
     20 C           0.4948  -22.1302  -44.5666 C.2       10 UNK         0.5000 
     21 O           0.7135  -23.3261  -44.7553 O.2       10 UNK        -0.5000 
     22 CA         -0.5733  -21.7146  -43.5358 C.3       10 UNK         0.1400 
     23 CB          0.0572  -21.4614  -42.1587 C.3       10 UNK        -0.1800 
     24 N          -1.3381  -20.5395  -43.9605 N.am      10 UNK        -0.5000 
     25 C          -2.2147  -20.5339  -44.9763 C.2       9 UNK         0.5000 
     26 O          -2.5369  -21.5414  -45.6031 O.2       9 UNK        -0.5000 
     27 CA         -2.8028  -19.1727  -45.3949 C.3       9 UNK         0.1400 
     28 CB         -4.0666  -18.8509  -44.5849 C.3       9 UNK        -0.1800 
     29 N          -1.8415  -18.0744  -45.2749 N.am      9 UNK        -0.5000 
     30 C          -0.7148  -17.9711  -45.9943 C.2       8 UNK         0.5000 
     31 O          -0.4027  -18.7670  -46.8789 O.2       8 UNK        -0.5000 
     32 CA          0.2601  -16.8392  -45.6139 C.3       8 UNK         0.1400 
     33 CB         -0.1492  -15.5059  -46.2554 C.3       8 UNK        -0.1800 
     34 N           0.3789  -16.6807  -44.1628 N.am      8 UNK        -0.5000 
     35 C           0.9143  -17.6026  -43.3498 C.2       7 UNK         0.5000 
     36 O           1.4319  -18.6421  -43.7558 O.2       7 UNK        -0.5000 
     37 CA          0.7980  -17.3583  -41.8340 C.3       7 UNK         0.1400 
     38 CB          1.9622  -16.5125  -41.2996 C.3       7 UNK        -0.1800 
     39 N          -0.4709  -16.7247  -41.4809 N.am      7 UNK        -0.5000 
     40 C          -1.6526  -17.3564  -41.4882 C.2       6 UNK         0.5000 
     41 O          -1.7845  -18.5508  -41.7522 O.2       6 UNK        -0.5000 
     42 CA         -2.8966  -16.4987  -41.1908 C.3       6 UNK         0.1400 
     43 CB         -3.1268  -16.3872  -39.6764 C.3       6 UNK        -0.1800 
     44 N          -2.8026  -15.1558  -41.7666 N.am      6 UNK        -0.5000 
     45 C          -2.7898  -14.8953  -43.0816 C.2       5 UNK         0.5000 
     46 O          -2.9078  -15.7601  -43.9478 O.2       5 UNK        -0.5000 
     47 CA         -2.5503  -13.4322  -43.4988 C.3       5 UNK         0.1400 
     48 CB         -3.8824  -12.6742  -43.5958 C.3       5 UNK        -0.1800 
     49 N          -1.6463  -12.7152  -42.5947 N.am      5 UNK        -0.5000 
     50 C          -0.3631  -13.0376  -42.3884 C.2       4 UNK         0.5000 
     51 O           0.2046  -13.9860  -42.9376 O.2       4 UNK        -0.5000 
     52 CA          0.3873  -12.1978  -41.3492 C.3       4 UNK         0.1400 
     53 CB          0.0608  -12.6808  -39.9245 C.3       4 UNK        -0.1800 
     54 N           1.8216  -12.3113  -41.5849 N.am      4 UNK        -0.5000 
     55 C           2.7317  -11.3815  -41.2742 C.2       3 UNK         0.5000 
     56 O           2.4496  -10.3109  -40.7337 O.2       3 UNK        -0.5000 
     57 CA          4.2085  -11.6881  -41.6003 C.3       3 UNK         0.1400 
     58 CB          4.9828  -12.0080  -40.3114 C.3       3 UNK        -0.1800 
     59 N           4.4073  -12.7889  -42.5474 N.am      3 UNK        -0.5000 
     60 C           4.1417  -12.7319  -43.8579 C.2       2 UNK         0.5000 
     61 O           3.6542  -11.7461  -44.4172 O.2       2 UNK        -0.5000 
     62 CA          4.4838  -13.9930  -44.6658 C.3       2 UNK         0.1400 
     63 CB          3.5985  -15.1827  -44.2599 C.3       2 UNK        -0.1800 
     64 N           4.3073  -13.7248  -46.0863 N.am      2 UNK        -0.5000 
     65 C           4.9662  -14.3221  -47.0817 C.2       1 UNK         0.5000 
     66 O           5.8237  -15.1874  -46.8991 O.2       1 UNK        -0.5000 
     67 C           1.1925  -22.0383  -47.5620 C.2       11 UNK         0.5000 
     68 O           1.6475  -23.0345  -48.1238 O.2       11 UNK        -0.5000 
     69 N          -0.0033  -21.5075  -47.8380 N.am      12 UNK        -0.5000 
     70 CA         -0.9292  -21.9548  -48.8720 C.3       12 UNK         0.1400 
     71 CB         -1.8454  -20.7773  -49.2233 C.3       12 UNK        -0.1800 
     72 C          -1.7604  -23.1968  -48.4931 C.2       12 UNK         0.5000 
     73 O          -2.7404  -23.4830  -49.1835 O.2       12 UNK        -0.5000 
     74 N          -1.3928  -23.9241  -47.4278 N.am      13 UNK        -0.5000 
     75 CA         -2.0830  -25.1313  -46.9582 C.3       13 UNK         0.1400 
     76 CB         -1.4499  -25.6126  -45.6464 C.3       13 UNK        -0.1800 
     77 C          -2.1087  -26.2674  -47.9997 C.2       13 UNK         0.5000 
     78 O          -3.0948  -27.0003  -48.0757 O.2       13 UNK        -0.5000 
     79 N          -1.0599  -26.3435  -48.8320 N.am      14 UNK        -0.5000 
     80 CA         -0.9606  -27.2409  -49.9879 C.3       14 UNK         0.1400 
     81 CB          0.4818  -27.2075  -50.5155 C.3       14 UNK        -0.1800 
     82 C          -1.9557  -26.9017  -51.1195 C.2       14 UNK         0.5000 
     83 O          -2.2631  -27.7696  -51.9365 O.2       14 UNK        -0.5000 
     84 N          -2.4550  -25.6595  -51.1305 N.am      15 UNK        -0.5000 
     85 CA         -3.4848  -25.1420  -52.0287 C.3       15 UNK         0.1400 
     86 CB         -2.9915  -23.8041  -52.6068 C.3       15 UNK        -0.1800 
     87 C          -4.8296  -24.9874  -51.2869 C.2       15 UNK         0.5000 
     88 O          -5.6346  -24.1327  -51.6592 O.2       15 UNK        -0.5000 
     89 N          -5.0355  -25.7934  -50.2324 N.am      16 UNK        -0.5000 
     90 CA         -6.2215  -25.8594  -49.3715 C.3       16 UNK         0.1400 
     91 CB         -7.4196  -26.4471  -50.1440 C.3       16 UNK        -0.1800 
     92 C          -6.5402  -24.5233  -48.6676 C.2       16 UNK         0.5000 
     93 O          -7.7035  -24.1268  -48.5858 O.2       16 UNK        -0.5000 
     94 N          -5.4823  -23.8620  -48.1763 N.am      17 UNK        -0.5000 
     95 CA         -5.4735  -22.5478  -47.5267 C.3       17 UNK         0.1400 
     96 CB         -6.3011  -22.5456  -46.2246 C.3       17 UNK        -0.1800 
     97 C          -5.8542  -21.4275  -48.5128 C.2       17 UNK         0.5000 
     98 O          -6.7076  -20.5913  -48.2121 O.2       17 UNK        -0.5000 
     99 N          -5.1907  -21.4509  -49.6778 N.am      18 UNK        -0.5000 
    100 CA        -5.3294  -20.5197  -50.8005 C.3       18 UNK         0.1400 
    101 CB        -4.8842  -19.0933  -50.4078 C.3       18 UNK        -0.1800 
    102 C         -6.7291  -20.5514  -51.4436 C.2       18 UNK         0.5000 
    103 O         -7.3276  -19.5006  -51.6860 O.2       18 UNK        -0.5000 
    104 N         -7.2176  -21.7576  -51.7586 N.am      19 UNK        -0.5000 
    105 CA        -8.4663  -21.9929  -52.4864 C.3       19 UNK         0.1400 
    106 CB        -8.9657  -23.4130  -52.1723 C.3       19 UNK        -0.1800 
    107 C         -8.2703  -21.7555  -53.9991 C.2       19 UNK         0.5000 
    108 O         -8.3693  -22.6907  -54.7951 O.2       19 UNK        -0.5000 
    109 N         -7.9273  -20.5099  -54.3577 N.am      20 UNK        -0.5000 
    110 CA        -7.6141  -19.9632  -55.6872 C.3       20 UNK         0.1400 
    111 CB        -8.8081  -20.1103  -56.6487 C.3       20 UNK        -0.1800 
    112 C         -6.3186  -20.5034  -56.3300 C.2       20 UNK         0.5000 
    113 O         -5.6197  -19.7435  -57.0019 O.2       20 UNK        -0.5000 
    114 N         -5.9992  -21.7827  -56.0983 N.am      21 UNK        -0.5000 
    115 CA        -4.8645  -22.5192  -56.6633 C.3       21 UNK         0.1400 
    116 CB        -4.9622  -23.9873  -56.2190 C.3       21 UNK        -0.1800 
    117 C         -3.4741  -21.9391  -56.3308 C.2       21 UNK         0.5000 
    118 O         -2.5310  -22.1773  -57.0865 O.2       21 UNK        -0.5000 
    119 N         -3.3719  -21.1817  -55.2303 N.am      22 UNK        -0.5000 
    120 CA        -2.1646  -20.4307  -54.8440 C.3       22 UNK         0.1400 
    121 C         -1.9784  -19.0842  -55.6096 C.2       22 UNK         0.5000 
    122 N         -2.9298  -18.6328  -56.4201 N.am      22 UNK        -0.7600 
    123 O         -0.9447  -18.4363  -55.4767 O.2       22 UNK        -0.5000 
    124 C124       -2.0822  -20.2440  -53.3029 C.3       23 UNK        -0.0398 
    125 S125       -0.3938  -20.4765  -52.6495 S.3       23 UNK        -0.2404 
    126 C126       -0.0501  -18.8239  -51.9615 C.3       23 UNK        -0.0205 
    127 H127        4.0024   -9.9773  -49.1389 H         1 UNK         0.0600 
    128 H128        3.0281   -9.7528  -47.6829 H         1 UNK         0.0600 
    129 H129        2.2448  -10.1264  -49.2223 H         1 UNK         0.0600 
    130 H130        5.0274  -11.9234  -49.1420 H         1 UNK         0.3000 
    131 H131        5.5673  -14.0221  -49.0839 H         1 UNK         0.0600 
    132 H132        3.8847  -15.8899  -48.9752 H         1 UNK         0.0800 
    133 H133        2.6196  -14.7392  -48.6815 H         1 UNK         0.0800 
    134 H134        4.2394  -16.0028  -52.7115 H         1 UNK         0.0800 
    135 H135        5.2128  -16.1520  -51.2688 H         1 UNK         0.0800 
    136 H136        1.6612  -16.7617  -52.3690 H         1 UNK         0.1150 
    137 H137        1.4031  -20.5441  -50.3667 H         1 UNK         0.1150 
    138 H138        5.0037  -18.2338  -50.1289 H         1 UNK         0.1150 
    139 H139        3.3665  -21.5440  -49.4337 H         1 UNK         0.0800 
    140 H140        4.9010  -20.8532  -49.8489 H         1 UNK         0.0800 
    141 H141        1.9707  -19.4825  -47.6175 H         1 UNK         0.0800 
    142 H142        2.7294  -19.3399  -46.0681 H         1 UNK         0.0800 
    143 H143        2.7687  -22.0262  -46.1045 H         1 UNK         0.0600 
    144 H144        0.9267  -20.1912  -44.9759 H         1 UNK         0.3000 
    145 H145       -1.2725  -22.5473  -43.4339 H         1 UNK         0.0600 
    146 H146       -0.6994  -21.1937  -41.4209 H         1 UNK         0.0600 
    147 H147        0.5646  -22.3556  -41.7948 H         1 UNK         0.0600 
    148 H148        0.7939  -20.6599  -42.1898 H         1 UNK         0.0600 
    149 H149       -1.1880  -19.6826  -43.4414 H         1 UNK         0.3000 
    150 H150       -3.0893  -19.2474  -46.4458 H         1 UNK         0.0600 
    151 H151       -4.5274  -17.9236  -44.9258 H         1 UNK         0.0600 
    152 H152       -4.8099  -19.6418  -44.6913 H         1 UNK         0.0600 
    153 H153       -3.8488  -18.7455  -43.5223 H         1 UNK         0.0600 
    154 H154       -2.0701  -17.3380  -44.6127 H         1 UNK         0.3000 
    155 H155        1.2454  -17.1060  -46.0020 H         1 UNK         0.0600 
    156 H156       -1.1389  -15.1873  -45.9302 H         1 UNK         0.0600 
    157 H157       -0.1730  -15.5902  -47.3426 H         1 UNK         0.0600 
    158 H158        0.5576  -14.7135  -46.0066 H         1 UNK         0.0600 
    159 H159        0.0268  -15.8191  -43.7594 H         1 UNK         0.3000 
    160 H160        0.8439  -18.3310  -41.3401 H         1 UNK         0.0600 
    161 H161        1.9650  -15.5089  -41.7222 H         1 UNK         0.0600 
    162 H162        2.9199  -16.9775  -41.5360 H         1 UNK         0.0600 
    163 H163        1.9099  -16.4150  -40.2151 H         1 UNK         0.0600 
    164 H164       -0.4505  -15.7307  -41.3096 H         1 UNK         0.3000 
    165 H165       -3.7606  -16.9994  -41.6328 H         1 UNK         0.0600 
    166 H166       -4.0464  -15.8447  -39.4565 H         1 UNK         0.0600 
    167 H167       -3.2169  -17.3749  -39.2222 H         1 UNK         0.0600 
    168 H168       -2.3045  -15.8708  -39.1794 H         1 UNK         0.0600 
    169 H169       -2.7077  -14.3858  -41.1214 H         1 UNK         0.3000 
    170 H170       -2.0913  -13.4424  -44.4893 H         1 UNK         0.0600 
    171 H171       -4.5677  -13.1762  -44.2802 H         1 UNK         0.0600 
    172 H172       -4.3786  -12.6040  -42.6270 H         1 UNK         0.0600 
    173 H173       -3.7338  -11.6619  -43.9720 H         1 UNK         0.0600 
    174 H174       -2.0402  -11.9286  -42.0984 H         1 UNK         0.3000 
    175 H175        0.0772  -11.1571  -41.4659 H         1 UNK         0.0600 
    176 H176        0.3623  -13.7182  -39.7733 H         1 UNK         0.0600 
    177 H177        0.5707  -12.0740  -39.1760 H         1 UNK         0.0600 
    178 H178       -1.0081  -12.6139  -39.7187 H         1 UNK         0.0600 
    179 H179        2.1042  -13.1405  -42.0896 H         1 UNK         0.3000 
    180 H180        4.6359  -10.7831  -42.0373 H         1 UNK         0.0600 
    181 H181        4.6088  -12.9138  -39.8325 H         1 UNK         0.0600 
    182 H182        4.8953  -11.1953  -39.5890 H         1 UNK         0.0600 
    183 H183        6.0453  -12.1469  -40.5125 H         1 UNK         0.0600 
    184 H184        4.8054  -13.6349  -42.1659 H         1 UNK         0.3000 
    185 H185        5.5308  -14.2359  -44.4729 H         1 UNK         0.0600 
    186 H186        3.8180  -15.4965  -43.2408 H         1 UNK         0.0600 
    187 H187        2.5406  -14.9252  -44.3135 H         1 UNK         0.0600 
    188 H188        3.7649  -16.0482  -44.9015 H         1 UNK         0.0600 
    189 H189        3.6233  -13.0073  -46.3105 H         1 UNK         0.3000 
    190 H190       -0.2816  -20.6727  -47.3296 H         1 UNK         0.3000 
    191 H191       -0.3522  -22.2128  -49.7620 H         1 UNK         0.0600 
    192 H192       -1.2765  -19.8595  -49.3610 H         1 UNK         0.0600 
    193 H193       -2.3823  -20.9712  -50.1513 H         1 UNK         0.0600 
    194 H194       -2.5803  -20.5938  -48.4392 H         1 UNK         0.0600 
    195 H195       -0.5927  -23.6203  -46.8901 H         1 UNK         0.3000 
    196 H196       -3.1185  -24.8575  -46.7479 H         1 UNK         0.0600 
    197 H197       -1.9313  -26.5235  -45.2882 H         1 UNK         0.0600 
    198 H198       -1.5574  -24.8624  -44.8630 H         1 UNK         0.0600 
    199 H199       -0.3869  -25.8255  -45.7661 H         1 UNK         0.0600 
    200 H200       -0.2964  -25.6964  -48.6951 H         1 UNK         0.3000 
    201 H201       -1.1810  -28.2556  -49.6501 H         1 UNK         0.0600 
    202 H202        1.1906  -27.5164  -49.7470 H         1 UNK         0.0600 
    203 H203        0.7638  -26.2088  -50.8517 H         1 UNK         0.0600 
    204 H204        0.6052  -27.8858  -51.3608 H         1 UNK         0.0600 
    205 H205       -2.1916  -25.0261  -50.3848 H         1 UNK         0.3000 
    206 H206       -3.6544  -25.8315  -52.8577 H         1 UNK         0.0600 
    207 H207       -2.0705  -23.9350  -53.1749 H         1 UNK         0.0600 
    208 H208       -3.7257  -23.3631  -53.2800 H         1 UNK         0.0600 
    209 H209       -2.7944  -23.0808  -51.8162 H         1 UNK         0.0600 
    210 H210       -4.2874  -26.4235  -49.9737 H         1 UNK         0.3000 
    211 H211       -5.9759  -26.5617  -48.5736 H         1 UNK         0.0600 
    212 H212       -7.7341  -25.7964  -50.9579 H         1 UNK         0.0600 
    213 H213       -8.2788  -26.5908  -49.4879 H         1 UNK         0.0600 
    214 H214       -7.1729  -27.4192  -50.5707 H         1 UNK         0.0600 
    215 H215       -4.5646  -24.2326  -48.3900 H         1 UNK         0.3000 
    216 H216       -4.4381  -22.3585  -47.2444 H         1 UNK         0.0600 
    217 H217       -6.1721  -21.6055  -45.6874 H         1 UNK         0.0600 
    218 H218       -5.9840  -23.3460  -45.5563 H         1 UNK         0.0600 
    219 H219       -7.3675  -22.6669  -46.4148 H         1 UNK         0.0600 
    220 H220       -4.5324  -22.2080  -49.8146 H         1 UNK         0.3000 
    221 H221       -4.6445  -20.8763  -51.5686 H         1 UNK         0.0600 
    222 H222       -5.5564  -18.6453  -49.6756 H         1 UNK         0.0600 
    223 H223       -3.8813  -19.0818  -49.9861 H         1 UNK         0.0600 
    224 H224       -4.8705  -18.4371  -51.2789 H         1 UNK         0.0600 
    225 H225       -6.6487  -22.5837  -51.5809 H         1 UNK         0.3000 
    226 H226       -9.2241  -21.2897  -52.1348 H         1 UNK         0.0600 
    227 H227       -9.0868  -23.5612  -51.0990 H         1 UNK         0.0600 
    228 H228       -9.9334  -23.5991  -52.6395 H         1 UNK         0.0600 
    229 H229       -8.2727  -24.1700  -52.5402 H         1 UNK         0.0600 
    230 H230       -7.8195  -19.8502  -53.5925 H         1 UNK         0.3000 
    231 H231       -7.4537  -18.8955  -55.5300 H         1 UNK         0.0600 
    232 H232       -9.0197  -21.1542  -56.8817 H         1 UNK         0.0600 
    233 H233       -8.6107  -19.6015  -57.5931 H         1 UNK         0.0600 
    234 H234       -9.7114  -19.6706  -56.2259 H         1 UNK         0.0600 
    235 H235       -6.6736  -22.3273  -55.5680 H         1 UNK         0.3000 
    236 H236       -4.9675  -22.4869  -57.7497 H         1 UNK         0.0600 
    237 H237       -5.8745  -24.4503  -56.5955 H         1 UNK         0.0600 
    238 H238       -4.1227  -24.5720  -56.5977 H         1 UNK         0.0600 
    239 H239       -4.9675  -24.0813  -55.1332 H         1 UNK         0.0600 
    240 H240       -4.2058  -21.0172  -54.6881 H         1 UNK         0.3000 
    241 H241       -1.3140  -21.0457  -55.1446 H         1 UNK         0.0600 
    242 H242       -2.7831  -17.7638  -56.9084 H         1 UNK         0.3800 
    243 H243       -3.7947  -19.1431  -56.5670 H         1 UNK         0.3800 
    244 H244       -2.4912  -19.2819  -52.9887 H         1 UNK         0.0800 
    245 H245       -2.6948  -20.9896  -52.8021 H         1 UNK         0.0800 
    246 H246       -0.7548  -18.6006  -51.1614 H         1 UNK         0.0800 
    247 H247       -0.2346  -18.0876  -52.7455 H         1 UNK         0.0800 
@<TRIPOS>BOND
     1    1    2 1    
     2    1  127 1    
     3    1  128 1    
     4    1  129 1    
     5    2    3 2    
     6    2    4 am   BACKBONE|DICT|INTERRES
     7    4    5 1    
     8    4  130 1    
     9    5    6 1    
    10    5   65 1    
    11    5  131 1    
    12    6    7 1    
    13    6  132 1    
    14    6  133 1    
    15    7    8 1    
    16    8    9 1    
    17    8  134 1    
    18    8  135 1    
    19    9   10 ar   
    20    9   14 ar   
    21   10   11 ar   
    22   10  136 1    
    23   11   12 ar   
    24   11  126 1    
    25   12   13 ar   
    26   12  137 1    
    27   13   14 ar   
    28   13   15 1    
    29   14  138 1    
    30   15   16 1    
    31   15  139 1    
    32   15  140 1    
    33   16   17 1    
    34   17   18 1    
    35   17  141 1    
    36   17  142 1    
    37   18   19 1    
    38   18   67 1    
    39   18  143 1    
    40   19   20 am   BACKBONE|DICT|INTERRES
    41   19  144 1    
    42   20   21 2    
    43   20   22 1    
    44   22   23 1    
    45   22   24 1    
    46   22  145 1    
    47   23  146 1    
    48   23  147 1    
    49   23  148 1    
    50   24   25 am   BACKBONE|DICT|INTERRES
    51   24  149 1    
    52   25   26 2    
    53   25   27 1    
    54   27   28 1    
    55   27   29 1    
    56   27  150 1    
    57   28  151 1    
    58   28  152 1    
    59   28  153 1    
    60   29   30 am   BACKBONE|DICT|INTERRES
    61   29  154 1    
    62   30   31 2    
    63   30   32 1    
    64   32   33 1    
    65   32   34 1    
    66   32  155 1    
    67   33  156 1    
    68   33  157 1    
    69   33  158 1    
    70   34   35 am   BACKBONE|DICT|INTERRES
    71   34  159 1    
    72   35   36 2    
    73   35   37 1    
    74   37   38 1    
    75   37   39 1    
    76   37  160 1    
    77   38  161 1    
    78   38  162 1    
    79   38  163 1    
    80   39   40 am   BACKBONE|DICT|INTERRES
    81   39  164 1    
    82   40   41 2    
    83   40   42 1    
    84   42   43 1    
    85   42   44 1    
    86   42  165 1    
    87   43  166 1    
    88   43  167 1    
    89   43  168 1    
    90   44   45 am   BACKBONE|DICT|INTERRES
    91   44  169 1    
    92   45   46 2    
    93   45   47 1    
    94   47   48 1    
    95   47   49 1    
    96   47  170 1    
    97   48  171 1    
    98   48  172 1    
    99   48  173 1    
   100   49   50 am   BACKBONE|DICT|INTERRES
   101   49  174 1    
   102   50   51 2    
   103   50   52 1    
   104   52   53 1    
   105   52   54 1    
   106   52  175 1    
   107   53  176 1    
   108   53  177 1    
   109   53  178 1    
   110   54   55 am   BACKBONE|DICT|INTERRES
   111   54  179 1    
   112   55   56 2    
   113   55   57 1    
   114   57   58 1    
   115   57   59 1    
   116   57  180 1    
   117   58  181 1    
   118   58  182 1    
   119   58  183 1    
   120   59   60 am   BACKBONE|DICT|INTERRES
   121   59  184 1    
   122   60   61 2    
   123   60   62 1    
   124   62   63 1    
   125   62   64 1    
   126   62  185 1    
   127   63  186 1    
   128   63  187 1    
   129   63  188 1    
   130   64   65 am   BACKBONE|DICT|INTERRES
   131   64  189 1    
   132   65   66 2    
   133   67   68 2    
   134   67   69 am   BACKBONE|DICT|INTERRES
   135   69   70 1    
   136   69  190 1    
   137   70   71 1    
   138   70   72 1    
   139   70  191 1    
   140   71  192 1    
   141   71  193 1    
   142   71  194 1    
   143   72   73 2    
   144   72   74 am   BACKBONE|DICT|INTERRES
   145   74   75 1    
   146   74  195 1    
   147   75   76 1    
   148   75   77 1    
   149   75  196 1    
   150   76  197 1    
   151   76  198 1    
   152   76  199 1    
   153   77   78 2    
   154   77   79 am   BACKBONE|DICT|INTERRES
   155   79   80 1    
   156   79  200 1    
   157   80   81 1    
   158   80   82 1    
   159   80  201 1    
   160   81  202 1    
   161   81  203 1    
   162   81  204 1    
   163   82   83 2    
   164   82   84 am   BACKBONE|DICT|INTERRES
   165   84   85 1    
   166   84  205 1    
   167   85   86 1    
   168   85   87 1    
   169   85  206 1    
   170   86  207 1    
   171   86  208 1    
   172   86  209 1    
   173   87   88 2    
   174   87   89 am   BACKBONE|DICT|INTERRES
   175   89   90 1    
   176   89  210 1    
   177   90   91 1    
   178   90   92 1    
   179   90  211 1    
   180   91  212 1    
   181   91  213 1    
   182   91  214 1    
   183   92   93 2    
   184   92   94 am   BACKBONE|DICT|INTERRES
   185   94   95 1    
   186   94  215 1    
   187   95   96 1    
   188   95   97 1    
   189   95  216 1    
   190   96  217 1    
   191   96  218 1    
   192   96  219 1    
   193   97   98 2    
   194   97   99 am   BACKBONE|DICT|INTERRES
   195   99  100 1    
   196   99  220 1    
   197  100  101 1    
   198  100  102 1    
   199  100  221 1    
   200  101  222 1    
   201  101  223 1    
   202  101  224 1    
   203  102  103 2    
   204  102  104 am   BACKBONE|DICT|INTERRES
   205  104  105 1    
   206  104  225 1    
   207  105  106 1    
   208  105  107 1    
   209  105  226 1    
   210  106  227 1    
   211  106  228 1    
   212  106  229 1    
   213  107  108 2    
   214  107  109 am   BACKBONE|DICT|INTERRES
   215  109  110 1    
   216  109  230 1    
   217  110  111 1    
   218  110  112 1    
   219  110  231 1    
   220  111  232 1    
   221  111  233 1    
   222  111  234 1    
   223  112  113 2    
   224  112  114 am   BACKBONE|DICT|INTERRES
   225  114  115 1    
   226  114  235 1    
   227  115  116 1    
   228  115  117 1    
   229  115  236 1    
   230  116  237 1    
   231  116  238 1    
   232  116  239 1    
   233  117  118 2    
   234  117  119 am   BACKBONE|DICT|INTERRES
   235  119  120 1    
   236  119  240 1    
   237  120  121 1    
   238  120  124 1    
   239  120  241 1    
   240  121  122 am   BACKBONE|DICT|INTERRES
   241  121  123 2    
   242  122  242 1    
   243  122  243 1    
   244  124  125 1    
   245  124  244 1    
   246  124  245 1    
   247  125  126 1    
   248  126  246 1    
   249  126  247 1    
@<TRIPOS>SUBSTRUCTURE
     1 UNK         1 GROUP             0       ****    0 ROOT    
