@<TRIPOS>MOLECULE
3R540
247   249    1
SMALL
USER_CHARGES


@<TRIPOS>ATOM
      1 CA          4.1282  -15.4638  -47.2197 C.3       0 UNK        -0.1800 
      2 C           2.8972  -15.6251  -48.1004 C.2       0 UNK         0.5000 
      3 O           3.0242  -15.9619  -49.2774 O.2       0 UNK        -0.5000 
      4 N           1.7104  -15.3802  -47.5383 N.am      1 UNK        -0.5000 
      5 CA          0.4180  -15.5045  -48.2028 C.3       1 UNK         0.1400 
      6 C6          0.1504  -14.2984  -49.1482 C.3       23 UNK        -0.0398 
      7 S7         -1.5020  -14.1900  -49.9265 S.3       23 UNK        -0.2404 
      8 C8         -1.3265  -15.2543  -51.3956 C.3       23 UNK        -0.0205 
      9 C9         -1.7274  -16.6874  -51.0827 C.ar      23 UNK        -0.0193 
     10 C10        -3.0739  -17.0597  -51.1105 C.ar      23 UNK        -0.1150 
     11 C11        -3.4676  -18.3549  -50.7606 C.ar      23 UNK        -0.0193 
     12 C12        -2.4929  -19.2687  -50.3404 C.ar      23 UNK        -0.1150 
     13 C13        -1.1410  -18.9148  -50.3251 C.ar      23 UNK        -0.0193 
     14 C14        -0.7631  -17.6346  -50.7353 C.ar      23 UNK        -0.1150 
     15 C15        -0.0877  -19.9109  -49.8625 C.3       23 UNK        -0.0205 
     16 S16         0.7091  -19.4134  -48.2999 S.3       23 UNK        -0.2404 
     17 C17        -0.6136  -19.7465  -47.0885 C.3       23 UNK        -0.0398 
     18 CA         -0.6386  -21.2233  -46.6205 C.3       11 UNK         0.1400 
     19 N           0.6321  -21.6342  -46.0141 N.am      11 UNK        -0.5000 
     20 C           1.2089  -22.8356  -46.1609 C.2       10 UNK         0.5000 
     21 O           0.7454  -23.7426  -46.8496 O.2       10 UNK        -0.5000 
     22 CA          2.5144  -23.0857  -45.3772 C.3       10 UNK         0.1400 
     23 CB          3.7332  -22.7661  -46.2555 C.3       10 UNK        -0.1800 
     24 N           2.6091  -22.3186  -44.1327 N.am      10 UNK        -0.5000 
     25 C           1.7647  -22.4296  -43.0981 C.2       9 UNK         0.5000 
     26 O           0.8448  -23.2460  -43.0622 O.2       9 UNK        -0.5000 
     27 CA          1.9218  -21.4152  -41.9491 C.3       9 UNK         0.1400 
     28 CB          2.7859  -22.0029  -40.8248 C.3       9 UNK        -0.1800 
     29 N           2.4777  -20.1218  -42.3583 N.am      9 UNK        -0.5000 
     30 C           1.9558  -19.3032  -43.2813 C.2       8 UNK         0.5000 
     31 O           0.9640  -19.5819  -43.9580 O.2       8 UNK        -0.5000 
     32 CA          2.6711  -17.9534  -43.4713 C.3       8 UNK         0.1400 
     33 CB          2.0800  -17.1401  -44.6331 C.3       8 UNK        -0.1800 
     34 N           2.6001  -17.1448  -42.2572 N.am      8 UNK        -0.5000 
     35 C           3.3843  -17.2729  -41.1792 C.2       7 UNK         0.5000 
     36 O           4.2794  -18.1140  -41.0841 O.2       7 UNK        -0.5000 
     37 CA          3.0947  -16.3247  -40.0053 C.3       7 UNK         0.1400 
     38 CB          3.5863  -14.9026  -40.3199 C.3       7 UNK        -0.1800 
     39 N           1.6602  -16.2895  -39.7292 N.am      7 UNK        -0.5000 
     40 C           1.0484  -16.9846  -38.7609 C.2       6 UNK         0.5000 
     41 O           1.6432  -17.6599  -37.9200 O.2       6 UNK        -0.5000 
     42 CA         -0.4934  -16.9275  -38.7290 C.3       6 UNK         0.1400 
     43 CB         -0.9713  -15.7953  -37.8073 C.3       6 UNK        -0.1800 
     44 N          -1.0922  -16.7493  -40.0535 N.am      6 UNK        -0.5000 
     45 C          -1.0283  -17.6482  -41.0457 C.2       5 UNK         0.5000 
     46 O          -0.5391  -18.7692  -40.9123 O.2       5 UNK        -0.5000 
     47 CA         -1.5868  -17.2260  -42.4213 C.3       5 UNK         0.1400 
     48 CB         -2.9955  -17.8115  -42.6101 C.3       5 UNK        -0.1800 
     49 N          -1.6314  -15.7770  -42.6771 N.am      5 UNK        -0.5000 
     50 C          -0.6007  -14.9192  -42.5964 C.2       4 UNK         0.5000 
     51 O           0.5230  -15.2474  -42.2124 O.2       4 UNK        -0.5000 
     52 CA         -0.8744  -13.4600  -43.0070 C.3       4 UNK         0.1400 
     53 CB          0.4189  -12.6647  -43.2634 C.3       4 UNK        -0.1800 
     54 N          -1.6957  -13.4340  -44.2123 N.am      4 UNK        -0.5000 
     55 C          -2.8061  -12.7088  -44.4005 C.2       3 UNK         0.5000 
     56 O          -3.2528  -11.9173  -43.5695 O.2       3 UNK        -0.5000 
     57 CA         -3.5608  -12.9069  -45.7358 C.3       3 UNK         0.1400 
     58 CB         -3.2278  -11.7692  -46.7131 C.3       3 UNK        -0.1800 
     59 N          -3.2716  -14.1842  -46.3924 N.am      3 UNK        -0.5000 
     60 C          -3.5367  -15.3937  -45.8796 C.2       2 UNK         0.5000 
     61 O          -4.1918  -15.5619  -44.8515 O.2       2 UNK        -0.5000 
     62 CA         -2.9219  -16.6162  -46.5944 C.3       2 UNK         0.1400 
     63 CB         -3.9990  -17.3531  -47.4015 C.3       2 UNK        -0.1800 
     64 N          -1.7828  -16.3176  -47.4722 N.am      2 UNK        -0.5000 
     65 C          -0.6429  -15.7116  -47.1084 C.2       1 UNK         0.5000 
     66 O          -0.4220  -15.3047  -45.9652 O.2       1 UNK        -0.5000 
     67 C          -1.8319  -21.4802  -45.6715 C.2       11 UNK         0.5000 
     68 O          -2.9732  -21.2391  -46.0664 O.2       11 UNK        -0.5000 
     69 N          -1.5647  -21.9557  -44.4463 N.am      12 UNK        -0.5000 
     70 CA         -2.5729  -22.4021  -43.4867 C.3       12 UNK         0.1400 
     71 CB         -2.1745  -21.9467  -42.0730 C.3       12 UNK        -0.1800 
     72 C          -2.7151  -23.9322  -43.5424 C.2       12 UNK         0.5000 
     73 O          -3.8363  -24.4406  -43.5606 O.2       12 UNK        -0.5000 
     74 N          -1.5748  -24.6372  -43.5722 N.am      13 UNK        -0.5000 
     75 CA         -1.4822  -26.0977  -43.5947 C.3       13 UNK         0.1400 
     76 CB         -0.0386  -26.5024  -43.2577 C.3       13 UNK        -0.1800 
     77 C          -1.9148  -26.7306  -44.9309 C.2       13 UNK         0.5000 
     78 O          -2.3363  -27.8882  -44.9411 O.2       13 UNK        -0.5000 
     79 N          -1.8024  -25.9746  -46.0266 N.am      14 UNK        -0.5000 
     80 CA         -2.1805  -26.3689  -47.3780 C.3       14 UNK         0.1400 
     81 CB         -0.9991  -27.0921  -48.0499 C.3       14 UNK        -0.1800 
     82 C          -2.5783  -25.1130  -48.1640 C.2       14 UNK         0.5000 
     83 O          -2.2902  -23.9988  -47.7255 O.2       14 UNK        -0.5000 
     84 N          -3.2238  -25.3080  -49.3200 N.am      15 UNK        -0.5000 
     85 CA         -3.5739  -24.2229  -50.2393 C.3       15 UNK         0.1400 
     86 CB         -4.6419  -24.7187  -51.2268 C.3       15 UNK        -0.1800 
     87 C          -2.3461  -23.6831  -50.9958 C.2       15 UNK         0.5000 
     88 O          -2.2778  -22.4858  -51.2657 O.2       15 UNK        -0.5000 
     89 N          -1.4116  -24.5795  -51.3493 N.am      16 UNK        -0.5000 
     90 CA         -0.1410  -24.3666  -52.0647 C.3       16 UNK         0.1400 
     91 CB          0.7986  -23.4580  -51.2506 C.3       16 UNK        -0.1800 
     92 C          -0.2632  -23.8555  -53.5193 C.2       16 UNK         0.5000 
     93 O           0.5991  -24.1779  -54.3370 O.2       16 UNK        -0.5000 
     94 N          -1.3183  -23.0845  -53.8148 N.am      17 UNK        -0.5000 
     95 CA         -1.6572  -22.4548  -55.0944 C.3       17 UNK         0.1400 
     96 CB         -1.9739  -23.5132  -56.1703 C.3       17 UNK        -0.1800 
     97 C          -0.6132  -21.4124  -55.5433 C.2       17 UNK         0.5000 
     98 O          -0.3116  -21.3007  -56.7328 O.2       17 UNK        -0.5000 
     99 N          -0.0849  -20.6560  -54.5708 N.am      18 UNK        -0.5000 
    100 CA         0.9035  -19.5943  -54.7800 C.3       18 UNK         0.1400 
    101 CB         1.5695  -19.2689  -53.4352 C.3       18 UNK        -0.1800 
    102 C          0.3110  -18.3163  -55.4095 C.2       18 UNK         0.5000 
    103 O          1.0663  -17.4967  -55.9340 O.2       18 UNK        -0.5000 
    104 N         -1.0163  -18.1671  -55.3485 N.am      19 UNK        -0.5000 
    105 CA        -1.7836  -17.0756  -55.9332 C.3       19 UNK         0.1400 
    106 CB        -1.9930  -15.9792  -54.8775 C.3       19 UNK        -0.1800 
    107 C         -3.1310  -17.6275  -56.4130 C.2       19 UNK         0.5000 
    108 O         -3.5683  -18.6811  -55.9389 O.2       19 UNK        -0.5000 
    109 N         -3.7927  -16.8824  -57.3076 N.am      20 UNK        -0.5000 
    110 CA        -5.0802  -17.2253  -57.9271 C.3       20 UNK         0.1400 
    111 CB        -5.4136  -16.1679  -58.9910 C.3       20 UNK        -0.1800 
    112 C         -6.2563  -17.3850  -56.9400 C.2       20 UNK         0.5000 
    113 O         -7.2553  -18.0150  -57.2883 O.2       20 UNK        -0.5000 
    114 N         -6.1115  -16.8359  -55.7261 N.am      21 UNK        -0.5000 
    115 CA        -7.0359  -17.0112  -54.6054 C.3       21 UNK         0.1400 
    116 CB        -6.6482  -16.0289  -53.4888 C.3       21 UNK        -0.1800 
    117 C         -7.0754  -18.4559  -54.0631 C.2       21 UNK         0.5000 
    118 O         -8.1028  -18.8602  -53.5173 O.2       21 UNK        -0.5000 
    119 N         -5.9701  -19.1958  -54.2211 N.am      22 UNK        -0.5000 
    120 CA        -5.8262  -20.6052  -53.8256 C.3       22 UNK         0.1400 
    121 C         -5.5632  -21.5450  -55.0356 C.2       22 UNK         0.5000 
    122 N         -4.9756  -21.0827  -56.1320 N.am      22 UNK        -0.7600 
    123 O         -5.9105  -22.7210  -54.9816 O.2       22 UNK        -0.5000 
    124 C124       -4.7260  -20.7729  -52.7459 C.3       23 UNK        -0.0398 
    125 S125       -5.3510  -20.4672  -51.0590 S.3       23 UNK        -0.2404 
    126 C126       -4.9553  -18.7044  -50.7943 C.3       23 UNK        -0.0205 
    127 H127        4.5022  -16.4414  -46.9152 H         1 UNK         0.0600 
    128 H128        3.9088  -14.8836  -46.3231 H         1 UNK         0.0600 
    129 H129        4.9187  -14.9493  -47.7663 H         1 UNK         0.0600 
    130 H130        1.6344  -15.1426  -46.5566 H         1 UNK         0.3000 
    131 H131        0.4478  -16.4226  -48.7809 H         1 UNK         0.0600 
    132 H132        0.9014  -14.2781  -49.9386 H         1 UNK         0.0800 
    133 H133        0.2937  -13.3704  -48.5921 H         1 UNK         0.0800 
    134 H134       -1.9716  -14.8585  -52.1804 H         1 UNK         0.0800 
    135 H135       -0.3089  -15.2093  -51.7865 H         1 UNK         0.0800 
    136 H136       -3.8202  -16.3289  -51.3888 H         1 UNK         0.1150 
    137 H137       -2.7830  -20.2593  -50.0219 H         1 UNK         0.1150 
    138 H138        0.2840  -17.3664  -50.7437 H         1 UNK         0.1150 
    139 H139       -0.5225  -20.9040  -49.7431 H         1 UNK         0.0800 
    140 H140        0.6805  -20.0026  -50.6299 H         1 UNK         0.0800 
    141 H141       -1.5682  -19.4658  -47.5339 H         1 UNK         0.0800 
    142 H142       -0.4685  -19.0781  -46.2381 H         1 UNK         0.0800 
    143 H143       -0.8190  -21.8350  -47.5059 H         1 UNK         0.0600 
    144 H144        1.0506  -20.9522  -45.3897 H         1 UNK         0.3000 
    145 H145        2.5442  -24.1463  -45.1184 H         1 UNK         0.0600 
    146 H146        4.6644  -23.0125  -45.7451 H         1 UNK         0.0600 
    147 H147        3.7087  -23.3427  -47.1813 H         1 UNK         0.0600 
    148 H148        3.7663  -21.7103  -46.5278 H         1 UNK         0.0600 
    149 H149        3.3325  -21.6167  -44.0844 H         1 UNK         0.3000 
    150 H150        0.9242  -21.2238  -41.5487 H         1 UNK         0.0600 
    151 H151        2.3821  -22.9553  -40.4784 H         1 UNK         0.0600 
    152 H152        2.8209  -21.3338  -39.9647 H         1 UNK         0.0600 
    153 H153        3.8101  -22.1797  -41.1555 H         1 UNK         0.0600 
    154 H154        3.2754  -19.7813  -41.8330 H         1 UNK         0.3000 
    155 H155        3.7177  -18.1594  -43.7044 H         1 UNK         0.0600 
    156 H156        2.5879  -16.1824  -44.7378 H         1 UNK         0.0600 
    157 H157        2.1784  -17.6749  -45.5787 H         1 UNK         0.0600 
    158 H158        1.0204  -16.9373  -44.4792 H         1 UNK         0.0600 
    159 H159        1.8675  -16.4384  -42.2424 H         1 UNK         0.3000 
    160 H160        3.6438  -16.6865  -39.1335 H         1 UNK         0.0600 
    161 H161        3.0710  -14.4745  -41.1808 H         1 UNK         0.0600 
    162 H162        4.6545  -14.8988  -40.5401 H         1 UNK         0.0600 
    163 H163        3.4266  -14.2367  -39.4717 H         1 UNK         0.0600 
    164 H164        1.0886  -15.8018  -40.4109 H         1 UNK         0.3000 
    165 H165       -0.8508  -17.8755  -38.3214 H         1 UNK         0.0600 
    166 H166       -2.0577  -15.7917  -37.7166 H         1 UNK         0.0600 
    167 H167       -0.5629  -15.9115  -36.8025 H         1 UNK         0.0600 
    168 H168       -0.6606  -14.8171  -38.1768 H         1 UNK         0.0600 
    169 H169       -1.5234  -15.8571  -40.2434 H         1 UNK         0.3000 
    170 H170       -0.9328  -17.6677  -43.1752 H         1 UNK         0.0600 
    171 H171       -3.0256  -18.8704  -42.3552 H         1 UNK         0.0600 
    172 H172       -3.7282  -17.3046  -41.9813 H         1 UNK         0.0600 
    173 H173       -3.3261  -17.7310  -43.6434 H         1 UNK         0.0600 
    174 H174       -2.5153  -15.4182  -43.0125 H         1 UNK         0.3000 
    175 H175       -1.4058  -12.9974  -42.1733 H         1 UNK         0.0600 
    176 H176        1.0430  -12.6280  -42.3697 H         1 UNK         0.0600 
    177 H177        1.0108  -13.1135  -44.0623 H         1 UNK         0.0600 
    178 H178        0.1983  -11.6357  -43.5471 H         1 UNK         0.0600 
    179 H179       -1.3935  -14.0757  -44.9426 H         1 UNK         0.3000 
    180 H180       -4.6301  -12.8749  -45.5174 H         1 UNK         0.0600 
    181 H181       -2.1709  -11.7686  -46.9832 H         1 UNK         0.0600 
    182 H182       -3.4558  -10.7968  -46.2745 H         1 UNK         0.0600 
    183 H183       -3.8088  -11.8545  -47.6316 H         1 UNK         0.0600 
    184 H184       -2.7369  -14.1403  -47.2476 H         1 UNK         0.3000 
    185 H185       -2.5559  -17.2904  -45.8187 H         1 UNK         0.0600 
    186 H186       -4.8615  -17.5944  -46.7787 H         1 UNK         0.0600 
    187 H187       -4.3550  -16.7482  -48.2362 H         1 UNK         0.0600 
    188 H188       -3.6225  -18.2940  -47.8004 H         1 UNK         0.0600 
    189 H189       -1.8907  -16.5929  -48.4393 H         1 UNK         0.3000 
    190 H190       -0.5999  -22.1289  -44.1978 H         1 UNK         0.3000 
    191 H191       -3.5416  -21.9565  -43.7221 H         1 UNK         0.0600 
    192 H192       -1.2967  -22.4746  -41.7008 H         1 UNK         0.0600 
    193 H193       -2.9848  -22.1279  -41.3662 H         1 UNK         0.0600 
    194 H194       -1.9494  -20.8818  -42.0479 H         1 UNK         0.0600 
    195 H195       -0.6911  -24.1393  -43.4933 H         1 UNK         0.3000 
    196 H196       -2.1387  -26.4915  -42.8160 H         1 UNK         0.0600 
    197 H197        0.0705  -27.5875  -43.2360 H         1 UNK         0.0600 
    198 H198        0.2582  -26.1259  -42.2786 H         1 UNK         0.0600 
    199 H199        0.6678  -26.1142  -43.9929 H         1 UNK         0.0600 
    200 H200       -1.4861  -25.0154  -45.9471 H         1 UNK         0.3000 
    201 H201       -3.0468  -27.0326  -47.3384 H         1 UNK         0.0600 
    202 H202       -0.7107  -27.9825  -47.4910 H         1 UNK         0.0600 
    203 H203       -0.1241  -26.4440  -48.1207 H         1 UNK         0.0600 
    204 H204       -1.2539  -27.4139  -49.0600 H         1 UNK         0.0600 
    205 H205       -3.4513  -26.2478  -49.6114 H         1 UNK         0.3000 
    206 H206       -4.0004  -23.3968  -49.6653 H         1 UNK         0.0600 
    207 H207       -5.5361  -25.0555  -50.7021 H         1 UNK         0.0600 
    208 H208       -4.9491  -23.9230  -51.9058 H         1 UNK         0.0600 
    209 H209       -4.2779  -25.5467  -51.8362 H         1 UNK         0.0600 
    210 H210       -1.5940  -25.5409  -51.1013 H         1 UNK         0.3000 
    211 H211        0.3264  -25.3508  -52.1229 H         1 UNK         0.0600 
    212 H212        0.8889  -23.7988  -50.2187 H         1 UNK         0.0600 
    213 H213        1.8003  -23.4490  -51.6818 H         1 UNK         0.0600 
    214 H214        0.4454  -22.4284  -51.2361 H         1 UNK         0.0600 
    215 H215       -1.9071  -22.8311  -53.0252 H         1 UNK         0.3000 
    216 H216       -2.5721  -21.8917  -54.9132 H         1 UNK         0.0600 
    217 H217       -1.0912  -24.0907  -56.4456 H         1 UNK         0.0600 
    218 H218       -2.3542  -23.0442  -57.0784 H         1 UNK         0.0600 
    219 H219       -2.7377  -24.2090  -55.8231 H         1 UNK         0.0600 
    220 H220       -0.3808  -20.8190  -53.6195 H         1 UNK         0.3000 
    221 H221        1.6722  -19.9698  -55.4588 H         1 UNK         0.0600 
    222 H222        2.0098  -20.1578  -52.9828 H         1 UNK         0.0600 
    223 H223        0.8531  -18.8483  -52.7311 H         1 UNK         0.0600 
    224 H224        2.3693  -18.5382  -53.5619 H         1 UNK         0.0600 
    225 H225       -1.5782  -18.9109  -54.9576 H         1 UNK         0.3000 
    226 H226       -1.2529  -16.6652  -56.7949 H         1 UNK         0.0600 
    227 H227       -1.0395  -15.6060  -54.5035 H         1 UNK         0.0600 
    228 H228       -2.5346  -15.1282  -55.2916 H         1 UNK         0.0600 
    229 H229       -2.5650  -16.3528  -54.0275 H         1 UNK         0.0600 
    230 H230       -3.3702  -16.0211  -57.6238 H         1 UNK         0.3000 
    231 H231       -4.9551  -18.1867  -58.4294 H         1 UNK         0.0600 
    232 H232       -5.5216  -15.1758  -58.5509 H         1 UNK         0.0600 
    233 H233       -6.3490  -16.4047  -59.5000 H         1 UNK         0.0600 
    234 H234       -4.6365  -16.1155  -59.7537 H         1 UNK         0.0600 
    235 H235       -5.2654  -16.3197  -55.5389 H         1 UNK         0.3000 
    236 H236       -8.0412  -16.7610  -54.9504 H         1 UNK         0.0600 
    237 H237       -6.7257  -14.9961  -53.8288 H         1 UNK         0.0600 
    238 H238       -7.3063  -16.1361  -52.6255 H         1 UNK         0.0600 
    239 H239       -5.6260  -16.1928  -53.1463 H         1 UNK         0.0600 
    240 H240       -5.1825  -18.7962  -54.7171 H         1 UNK         0.3000 
    241 H241       -6.7671  -20.9630  -53.4030 H         1 UNK         0.0600 
    242 H242       -4.8423  -21.7038  -56.9131 H         1 UNK         0.3800 
    243 H243       -4.5812  -20.1463  -56.1629 H         1 UNK         0.3800 
    244 H244       -3.8639  -20.1378  -52.9553 H         1 UNK         0.0800 
    245 H245       -4.3420  -21.7929  -52.7405 H         1 UNK         0.0800 
    246 H246       -5.3998  -18.3974  -49.8477 H         1 UNK         0.0800 
    247 H247       -5.4557  -18.1226  -51.5676 H         1 UNK         0.0800 
@<TRIPOS>BOND
     1    1    2 1    
     2    1  127 1    
     3    1  128 1    
     4    1  129 1    
     5    2    3 2    
     6    2    4 am   BACKBONE|DICT|INTERRES
     7    4    5 1    
     8    4  130 1    
     9    5    6 1    
    10    5   65 1    
    11    5  131 1    
    12    6    7 1    
    13    6  132 1    
    14    6  133 1    
    15    7    8 1    
    16    8    9 1    
    17    8  134 1    
    18    8  135 1    
    19    9   10 ar   
    20    9   14 ar   
    21   10   11 ar   
    22   10  136 1    
    23   11   12 ar   
    24   11  126 1    
    25   12   13 ar   
    26   12  137 1    
    27   13   14 ar   
    28   13   15 1    
    29   14  138 1    
    30   15   16 1    
    31   15  139 1    
    32   15  140 1    
    33   16   17 1    
    34   17   18 1    
    35   17  141 1    
    36   17  142 1    
    37   18   19 1    
    38   18   67 1    
    39   18  143 1    
    40   19   20 am   BACKBONE|DICT|INTERRES
    41   19  144 1    
    42   20   21 2    
    43   20   22 1    
    44   22   23 1    
    45   22   24 1    
    46   22  145 1    
    47   23  146 1    
    48   23  147 1    
    49   23  148 1    
    50   24   25 am   BACKBONE|DICT|INTERRES
    51   24  149 1    
    52   25   26 2    
    53   25   27 1    
    54   27   28 1    
    55   27   29 1    
    56   27  150 1    
    57   28  151 1    
    58   28  152 1    
    59   28  153 1    
    60   29   30 am   BACKBONE|DICT|INTERRES
    61   29  154 1    
    62   30   31 2    
    63   30   32 1    
    64   32   33 1    
    65   32   34 1    
    66   32  155 1    
    67   33  156 1    
    68   33  157 1    
    69   33  158 1    
    70   34   35 am   BACKBONE|DICT|INTERRES
    71   34  159 1    
    72   35   36 2    
    73   35   37 1    
    74   37   38 1    
    75   37   39 1    
    76   37  160 1    
    77   38  161 1    
    78   38  162 1    
    79   38  163 1    
    80   39   40 am   BACKBONE|DICT|INTERRES
    81   39  164 1    
    82   40   41 2    
    83   40   42 1    
    84   42   43 1    
    85   42   44 1    
    86   42  165 1    
    87   43  166 1    
    88   43  167 1    
    89   43  168 1    
    90   44   45 am   BACKBONE|DICT|INTERRES
    91   44  169 1    
    92   45   46 2    
    93   45   47 1    
    94   47   48 1    
    95   47   49 1    
    96   47  170 1    
    97   48  171 1    
    98   48  172 1    
    99   48  173 1    
   100   49   50 am   BACKBONE|DICT|INTERRES
   101   49  174 1    
   102   50   51 2    
   103   50   52 1    
   104   52   53 1    
   105   52   54 1    
   106   52  175 1    
   107   53  176 1    
   108   53  177 1    
   109   53  178 1    
   110   54   55 am   BACKBONE|DICT|INTERRES
   111   54  179 1    
   112   55   56 2    
   113   55   57 1    
   114   57   58 1    
   115   57   59 1    
   116   57  180 1    
   117   58  181 1    
   118   58  182 1    
   119   58  183 1    
   120   59   60 am   BACKBONE|DICT|INTERRES
   121   59  184 1    
   122   60   61 2    
   123   60   62 1    
   124   62   63 1    
   125   62   64 1    
   126   62  185 1    
   127   63  186 1    
   128   63  187 1    
   129   63  188 1    
   130   64   65 am   BACKBONE|DICT|INTERRES
   131   64  189 1    
   132   65   66 2    
   133   67   68 2    
   134   67   69 am   BACKBONE|DICT|INTERRES
   135   69   70 1    
   136   69  190 1    
   137   70   71 1    
   138   70   72 1    
   139   70  191 1    
   140   71  192 1    
   141   71  193 1    
   142   71  194 1    
   143   72   73 2    
   144   72   74 am   BACKBONE|DICT|INTERRES
   145   74   75 1    
   146   74  195 1    
   147   75   76 1    
   148   75   77 1    
   149   75  196 1    
   150   76  197 1    
   151   76  198 1    
   152   76  199 1    
   153   77   78 2    
   154   77   79 am   BACKBONE|DICT|INTERRES
   155   79   80 1    
   156   79  200 1    
   157   80   81 1    
   158   80   82 1    
   159   80  201 1    
   160   81  202 1    
   161   81  203 1    
   162   81  204 1    
   163   82   83 2    
   164   82   84 am   BACKBONE|DICT|INTERRES
   165   84   85 1    
   166   84  205 1    
   167   85   86 1    
   168   85   87 1    
   169   85  206 1    
   170   86  207 1    
   171   86  208 1    
   172   86  209 1    
   173   87   88 2    
   174   87   89 am   BACKBONE|DICT|INTERRES
   175   89   90 1    
   176   89  210 1    
   177   90   91 1    
   178   90   92 1    
   179   90  211 1    
   180   91  212 1    
   181   91  213 1    
   182   91  214 1    
   183   92   93 2    
   184   92   94 am   BACKBONE|DICT|INTERRES
   185   94   95 1    
   186   94  215 1    
   187   95   96 1    
   188   95   97 1    
   189   95  216 1    
   190   96  217 1    
   191   96  218 1    
   192   96  219 1    
   193   97   98 2    
   194   97   99 am   BACKBONE|DICT|INTERRES
   195   99  100 1    
   196   99  220 1    
   197  100  101 1    
   198  100  102 1    
   199  100  221 1    
   200  101  222 1    
   201  101  223 1    
   202  101  224 1    
   203  102  103 2    
   204  102  104 am   BACKBONE|DICT|INTERRES
   205  104  105 1    
   206  104  225 1    
   207  105  106 1    
   208  105  107 1    
   209  105  226 1    
   210  106  227 1    
   211  106  228 1    
   212  106  229 1    
   213  107  108 2    
   214  107  109 am   BACKBONE|DICT|INTERRES
   215  109  110 1    
   216  109  230 1    
   217  110  111 1    
   218  110  112 1    
   219  110  231 1    
   220  111  232 1    
   221  111  233 1    
   222  111  234 1    
   223  112  113 2    
   224  112  114 am   BACKBONE|DICT|INTERRES
   225  114  115 1    
   226  114  235 1    
   227  115  116 1    
   228  115  117 1    
   229  115  236 1    
   230  116  237 1    
   231  116  238 1    
   232  116  239 1    
   233  117  118 2    
   234  117  119 am   BACKBONE|DICT|INTERRES
   235  119  120 1    
   236  119  240 1    
   237  120  121 1    
   238  120  124 1    
   239  120  241 1    
   240  121  122 am   BACKBONE|DICT|INTERRES
   241  121  123 2    
   242  122  242 1    
   243  122  243 1    
   244  124  125 1    
   245  124  244 1    
   246  124  245 1    
   247  125  126 1    
   248  126  246 1    
   249  126  247 1    
@<TRIPOS>SUBSTRUCTURE
     1 UNK         1 GROUP             0       ****    0 ROOT    
