@<TRIPOS>MOLECULE
3R540
247   249    1
SMALL
USER_CHARGES


@<TRIPOS>ATOM
      1 CA          7.5662  -15.2007  -50.5131 C.3       0 UNK        -0.1800 
      2 C           6.1942  -15.6132  -49.9985 C.2       0 UNK         0.5000 
      3 O           5.9436  -16.8035  -49.8085 O.2       0 UNK        -0.5000 
      4 N           5.3055  -14.6368  -49.7800 N.am      1 UNK        -0.5000 
      5 CA          3.9550  -14.8303  -49.2489 C.3       1 UNK         0.1400 
      6 C6          3.0771  -13.5653  -49.4261 C.3       23 UNK        -0.0398 
      7 S7          2.7069  -13.1999  -51.1745 S.3       23 UNK        -0.2404 
      8 C8          0.9658  -13.7241  -51.2993 C.3       23 UNK        -0.0205 
      9 C9          0.8354  -15.2360  -51.4026 C.ar      23 UNK        -0.0193 
     10 C10         0.8053  -15.8501  -52.6575 C.ar      23 UNK        -0.1150 
     11 C11         0.6630  -17.2358  -52.7685 C.ar      23 UNK        -0.0193 
     12 C12         0.5874  -18.0128  -51.6083 C.ar      23 UNK        -0.1150 
     13 C13         0.6304  -17.4127  -50.3475 C.ar      23 UNK        -0.0193 
     14 C14         0.7363  -16.0224  -50.2513 C.ar      23 UNK        -0.1150 
     15 C15         0.6242  -18.2636  -49.0881 C.3       23 UNK        -0.0205 
     16 S16        -0.8881  -18.0469  -48.1022 S.3       23 UNK        -0.2404 
     17 C17        -1.8715  -19.5105  -48.5735 C.3       23 UNK        -0.0398 
     18 CA         -1.3927  -20.8164  -47.8868 C.3       11 UNK         0.1400 
     19 N          -1.1526  -20.6565  -46.4498 N.am      11 UNK        -0.5000 
     20 C          -0.4656  -21.5166  -45.6871 C.2       10 UNK         0.5000 
     21 O           0.0649  -22.5394  -46.1183 O.2       10 UNK        -0.5000 
     22 CA         -0.4122  -21.2038  -44.1817 C.3       10 UNK         0.1400 
     23 CB          0.7219  -20.2141  -43.8743 C.3       10 UNK        -0.1800 
     24 N          -1.6858  -20.6692  -43.6938 N.am      10 UNK        -0.5000 
     25 C          -2.8120  -21.3941  -43.5996 C.2       9 UNK         0.5000 
     26 O          -2.8599  -22.5984  -43.8449 O.2       9 UNK        -0.5000 
     27 CA         -4.1136  -20.6562  -43.2232 C.3       9 UNK         0.1400 
     28 CB         -4.3303  -20.6950  -41.7036 C.3       9 UNK        -0.1800 
     29 N          -4.1456  -19.2655  -43.6743 N.am      9 UNK        -0.5000 
     30 C          -4.0479  -18.8588  -44.9476 C.2       8 UNK         0.5000 
     31 O          -4.0500  -19.6306  -45.9069 O.2       8 UNK        -0.5000 
     32 CA         -3.8475  -17.3466  -45.1878 C.3       8 UNK         0.1400 
     33 CB         -5.1467  -16.7071  -45.6959 C.3       8 UNK        -0.1800 
     34 N          -3.3636  -16.5941  -44.0196 N.am      8 UNK        -0.5000 
     35 C          -2.2187  -16.8338  -43.3656 C.2       7 UNK         0.5000 
     36 O          -1.4471  -17.7506  -43.6630 O.2       7 UNK        -0.5000 
     37 CA         -1.8974  -15.9328  -42.1630 C.3       7 UNK         0.1400 
     38 CB         -2.9255  -16.1228  -41.0314 C.3       7 UNK        -0.1800 
     39 N          -0.5655  -16.2860  -41.6860 N.am      7 UNK        -0.5000 
     40 C           0.2463  -15.5397  -40.9317 C.2       6 UNK         0.5000 
     41 O          -0.0497  -14.4203  -40.5116 O.2       6 UNK        -0.5000 
     42 CA          1.6175  -16.1436  -40.5753 C.3       6 UNK         0.1400 
     43 CB          1.7588  -17.6382  -40.9340 C.3       6 UNK        -0.1800 
     44 N           2.6610  -15.4043  -41.2748 N.am      6 UNK        -0.5000 
     45 C           3.5030  -14.5244  -40.7204 C.2       5 UNK         0.5000 
     46 O           3.4963  -14.2174  -39.5276 O.2       5 UNK        -0.5000 
     47 CA          4.5344  -13.8825  -41.6628 C.3       5 UNK         0.1400 
     48 CB          5.6613  -14.8751  -41.9923 C.3       5 UNK        -0.1800 
     49 N           3.9082  -13.4391  -42.9068 N.am      5 UNK        -0.5000 
     50 C           3.4581  -12.1972  -43.1335 C.2       4 UNK         0.5000 
     51 O           3.5608  -11.2729  -42.3261 O.2       4 UNK        -0.5000 
     52 CA          2.7772  -11.9379  -44.4920 C.3       4 UNK         0.1400 
     53 CB          3.7896  -11.3862  -45.5074 C.3       4 UNK        -0.1800 
     54 N           2.1471  -13.1420  -45.0367 N.am      4 UNK        -0.5000 
     55 C           0.9928  -13.6465  -44.5749 C.2       3 UNK         0.5000 
     56 O           0.3058  -13.0902  -43.7188 O.2       3 UNK        -0.5000 
     57 CA          0.5164  -14.9990  -45.1399 C.3       3 UNK         0.1400 
     58 CB         -0.6509  -14.7941  -46.1170 C.3       3 UNK        -0.1800 
     59 N           1.5565  -15.7965  -45.7888 N.am      3 UNK        -0.5000 
     60 C           2.6398  -16.2995  -45.1800 C.2       2 UNK         0.5000 
     61 O           2.8764  -16.1545  -43.9811 O.2       2 UNK        -0.5000 
     62 CA          3.6642  -17.0211  -46.0766 C.3       2 UNK         0.1400 
     63 CB          3.3751  -18.5298  -46.1080 C.3       2 UNK        -0.1800 
     64 N           3.7132  -16.4927  -47.4469 N.am      2 UNK        -0.5000 
     65 C           4.0184  -15.2248  -47.7610 C.2       1 UNK         0.5000 
     66 O           4.3052  -14.3681  -46.9229 O.2       1 UNK        -0.5000 
     67 C          -2.3630  -21.9844  -48.1559 C.2       11 UNK         0.5000 
     68 O          -2.1661  -22.7277  -49.1165 O.2       11 UNK        -0.5000 
     69 N          -3.3551  -22.1605  -47.2687 N.am      12 UNK        -0.5000 
     70 CA         -4.2682  -23.3025  -47.2513 C.3       12 UNK         0.1400 
     71 CB         -5.4187  -23.0372  -46.2662 C.3       12 UNK        -0.1800 
     72 C          -3.5596  -24.6262  -46.9189 C.2       12 UNK         0.5000 
     73 O          -3.8100  -25.6223  -47.5955 O.2       12 UNK        -0.5000 
     74 N          -2.6675  -24.6097  -45.9179 N.am      13 UNK        -0.5000 
     75 CA         -1.8432  -25.7542  -45.5179 C.3       13 UNK         0.1400 
     76 CB         -1.1050  -25.4284  -44.2110 C.3       13 UNK        -0.1800 
     77 C          -0.8508  -26.1865  -46.6136 C.2       13 UNK         0.5000 
     78 O          -0.6548  -27.3846  -46.8198 O.2       13 UNK        -0.5000 
     79 N          -0.2778  -25.2045  -47.3228 N.am      14 UNK        -0.5000 
     80 CA          0.5618  -25.4069  -48.5053 C.3       14 UNK         0.1400 
     81 CB          1.3211  -24.1031  -48.7994 C.3       14 UNK        -0.1800 
     82 C          -0.2325  -25.8505  -49.7522 C.2       14 UNK         0.5000 
     83 O           0.3730  -26.3597  -50.6960 O.2       14 UNK        -0.5000 
     84 N          -1.5564  -25.6308  -49.7379 N.am      15 UNK        -0.5000 
     85 CA         -2.5190  -25.8253  -50.8258 C.3       15 UNK         0.1400 
     86 CB         -2.7010  -27.3242  -51.1387 C.3       15 UNK        -0.1800 
     87 C          -2.1626  -24.9777  -52.0632 C.2       15 UNK         0.5000 
     88 O          -2.1527  -25.4844  -53.1873 O.2       15 UNK        -0.5000 
     89 N          -1.8324  -23.7028  -51.8184 N.am      16 UNK        -0.5000 
     90 CA         -1.4260  -22.7270  -52.8231 C.3       16 UNK         0.1400 
     91 CB         -0.7815  -21.5267  -52.1181 C.3       16 UNK        -0.1800 
     92 C          -2.6267  -22.3157  -53.6925 C.2       16 UNK         0.5000 
     93 O          -3.4228  -21.4676  -53.2870 O.2       16 UNK        -0.5000 
     94 N          -2.7536  -22.9788  -54.8484 N.am      17 UNK        -0.5000 
     95 CA         -3.8634  -22.9647  -55.8084 C.3       17 UNK         0.1400 
     96 CB         -4.2348  -21.5415  -56.2705 C.3       17 UNK        -0.1800 
     97 C          -5.0903  -23.7595  -55.3194 C.2       17 UNK         0.5000 
     98 O          -5.6205  -24.5665  -56.0839 O.2       17 UNK        -0.5000 
     99 N          -5.4900  -23.5591  -54.0593 N.am      18 UNK        -0.5000 
    100 CA        -6.5397  -24.2824  -53.3448 C.3       18 UNK         0.1400 
    101 CB        -7.9370  -23.9923  -53.9424 C.3       18 UNK        -0.1800 
    102 C         -6.4349  -23.9304  -51.8485 C.2       18 UNK         0.5000 
    103 O         -5.3585  -23.5443  -51.3867 O.2       18 UNK        -0.5000 
    104 N         -7.5437  -24.0651  -51.1091 N.am      19 UNK        -0.5000 
    105 CA        -7.6706  -23.6342  -49.7183 C.3       19 UNK         0.1400 
    106 CB        -8.9596  -24.2176  -49.1190 C.3       19 UNK        -0.1800 
    107 C         -7.6603  -22.0965  -49.6353 C.2       19 UNK         0.5000 
    108 O         -8.5754  -21.4566  -50.1580 O.2       19 UNK        -0.5000 
    109 N         -6.6106  -21.5486  -49.0093 N.am      20 UNK        -0.5000 
    110 CA        -6.2361  -20.1352  -48.9133 C.3       20 UNK         0.1400 
    111 CB        -7.3093  -19.2881  -48.1990 C.3       20 UNK        -0.1800 
    112 C         -5.8311  -19.5773  -50.2871 C.2       20 UNK         0.5000 
    113 O         -4.6343  -19.4422  -50.5390 O.2       20 UNK        -0.5000 
    114 N         -6.8390  -19.3196  -51.1341 N.am      21 UNK        -0.5000 
    115 CA        -6.8084  -18.9727  -52.5582 C.3       21 UNK         0.1400 
    116 CB        -6.7473  -20.2598  -53.3963 C.3       21 UNK        -0.1800 
    117 C         -5.7406  -17.9380  -52.9602 C.2       21 UNK         0.5000 
    118 O         -6.0469  -16.7451  -52.9950 O.2       21 UNK        -0.5000 
    119 N         -4.5223  -18.4075  -53.2605 N.am      22 UNK        -0.5000 
    120 CA        -3.3470  -17.5684  -53.5359 C.3       22 UNK         0.1400 
    121 C         -2.9222  -16.6665  -52.3375 C.2       22 UNK         0.5000 
    122 N         -3.0931  -17.1107  -51.0978 N.am      22 UNK        -0.7600 
    123 O         -2.4785  -15.5394  -52.5356 O.2       22 UNK        -0.5000 
    124 C124       -2.1720  -18.4416  -54.0446 C.3       23 UNK        -0.0398 
    125 S125       -0.9406  -17.5231  -55.0299 S.3       23 UNK        -0.2404 
    126 C126        0.6109  -17.8876  -54.1430 C.3       23 UNK        -0.0205 
    127 H127        8.3399  -15.5177  -49.8137 H         1 UNK         0.0600 
    128 H128        7.6442  -14.1205  -50.6399 H         1 UNK         0.0600 
    129 H129        7.7624  -15.6710  -51.4766 H         1 UNK         0.0600 
    130 H130        5.5729  -13.6778  -49.9491 H         1 UNK         0.3000 
    131 H131        3.4903  -15.6486  -49.8024 H         1 UNK         0.0600 
    132 H132        2.1384  -13.6600  -48.8781 H         1 UNK         0.0800 
    133 H133        3.5753  -12.6932  -48.9983 H         1 UNK         0.0800 
    134 H134        0.3942  -13.3483  -50.4494 H         1 UNK         0.0800 
    135 H135        0.5250  -13.2591  -52.1824 H         1 UNK         0.0800 
    136 H136        0.8726  -15.2474  -53.5523 H         1 UNK         0.1150 
    137 H137        0.5093  -19.0859  -51.6831 H         1 UNK         0.1150 
    138 H138        0.7543  -15.5565  -49.2773 H         1 UNK         0.1150 
    139 H139        0.7762  -19.3166  -49.3269 H         1 UNK         0.0800 
    140 H140        1.4751  -17.9722  -48.4760 H         1 UNK         0.0800 
    141 H141       -1.8532  -19.6130  -49.6590 H         1 UNK         0.0800 
    142 H142       -2.9083  -19.2968  -48.3107 H         1 UNK         0.0800 
    143 H143       -0.4393  -21.0931  -48.3405 H         1 UNK         0.0600 
    144 H144       -1.5739  -19.8484  -46.0156 H         1 UNK         0.3000 
    145 H145       -0.2045  -22.1346  -43.6499 H         1 UNK         0.0600 
    146 H146        0.7709  -19.9918  -42.8086 H         1 UNK         0.0600 
    147 H147        1.6875  -20.6294  -44.1646 H         1 UNK         0.0600 
    148 H148        0.5979  -19.2721  -44.4101 H         1 UNK         0.0600 
    149 H149       -1.7182  -19.6688  -43.5213 H         1 UNK         0.3000 
    150 H150       -4.9427  -21.1796  -43.7028 H         1 UNK         0.0600 
    151 H151       -4.3352  -21.7222  -41.3361 H         1 UNK         0.0600 
    152 H152       -5.2865  -20.2488  -41.4295 H         1 UNK         0.0600 
    153 H153       -3.5435  -20.1591  -41.1710 H         1 UNK         0.0600 
    154 H154       -4.1412  -18.5592  -42.9543 H         1 UNK         0.3000 
    155 H155       -3.0942  -17.2509  -45.9719 H         1 UNK         0.0600 
    156 H156       -5.9402  -16.7590  -44.9494 H         1 UNK         0.0600 
    157 H157       -4.9959  -15.6595  -45.9570 H         1 UNK         0.0600 
    158 H158       -5.5038  -17.2136  -46.5927 H         1 UNK         0.0600 
    159 H159       -3.9506  -15.8325  -43.7104 H         1 UNK         0.3000 
    160 H160       -1.8969  -14.8945  -42.5012 H         1 UNK         0.0600 
    161 H161       -2.9563  -17.1575  -40.6874 H         1 UNK         0.0600 
    162 H162       -3.9307  -15.8525  -41.3563 H         1 UNK         0.0600 
    163 H163       -2.6897  -15.4944  -40.1725 H         1 UNK         0.0600 
    164 H164       -0.2356  -17.1739  -42.0451 H         1 UNK         0.3000 
    165 H165        1.7359  -16.0482  -39.4942 H         1 UNK         0.0600 
    166 H166        2.7193  -18.0267  -40.5950 H         1 UNK         0.0600 
    167 H167        0.9848  -18.2379  -40.4531 H         1 UNK         0.0600 
    168 H168        1.7012  -17.8088  -42.0098 H         1 UNK         0.0600 
    169 H169        2.7417  -15.5984  -42.2708 H         1 UNK         0.3000 
    170 H170        4.9814  -13.0313  -41.1448 H         1 UNK         0.0600 
    171 H171        6.1508  -15.2251  -41.0826 H         1 UNK         0.0600 
    172 H172        5.2890  -15.7520  -42.5235 H         1 UNK         0.0600 
    173 H173        6.4257  -14.4084  -42.6138 H         1 UNK         0.0600 
    174 H174        3.7437  -14.1500  -43.6069 H         1 UNK         0.3000 
    175 H175        2.0067  -11.1787  -44.3407 H         1 UNK         0.0600 
    176 H176        3.3247  -11.2136  -46.4782 H         1 UNK         0.0600 
    177 H177        4.6290  -12.0669  -45.6519 H         1 UNK         0.0600 
    178 H178        4.1987  -10.4338  -45.1680 H         1 UNK         0.0600 
    179 H179        2.6769  -13.6540  -45.7322 H         1 UNK         0.3000 
    180 H180        0.1580  -15.5780  -44.2909 H         1 UNK         0.0600 
    181 H181       -0.3276  -14.3066  -47.0373 H         1 UNK         0.0600 
    182 H182       -1.4330  -14.1763  -45.6736 H         1 UNK         0.0600 
    183 H183       -1.1119  -15.7443  -46.3797 H         1 UNK         0.0600 
    184 H184        1.4401  -15.9707  -46.7746 H         1 UNK         0.3000 
    185 H185        4.6507  -16.8718  -45.6326 H         1 UNK         0.0600 
    186 H186        3.4495  -18.9557  -45.1066 H         1 UNK         0.0600 
    187 H187        2.3726  -18.7478  -46.4766 H         1 UNK         0.0600 
    188 H188        4.0906  -19.0592  -46.7374 H         1 UNK         0.0600 
    189 H189        3.5585  -17.1544  -48.1937 H         1 UNK         0.3000 
    190 H190       -3.4726  -21.4639  -46.5403 H         1 UNK         0.3000 
    191 H191       -4.6815  -23.4023  -48.2559 H         1 UNK         0.0600 
    192 H192       -5.0861  -23.1000  -45.2305 H         1 UNK         0.0600 
    193 H193       -6.2137  -23.7728  -46.3931 H         1 UNK         0.0600 
    194 H194       -5.8582  -22.0499  -46.4065 H         1 UNK         0.0600 
    195 H195       -2.5743  -23.7681  -45.3565 H         1 UNK         0.3000 
    196 H196       -2.5128  -26.5955  -45.3277 H         1 UNK         0.0600 
    197 H197       -0.5057  -26.2771  -43.8790 H         1 UNK         0.0600 
    198 H198       -1.8063  -25.1928  -43.4103 H         1 UNK         0.0600 
    199 H199       -0.4332  -24.5781  -44.3284 H         1 UNK         0.0600 
    200 H200       -0.4239  -24.2432  -47.0299 H         1 UNK         0.3000 
    201 H201        1.2919  -26.1875  -48.2819 H         1 UNK         0.0600 
    202 H202        1.9279  -23.7981  -47.9467 H         1 UNK         0.0600 
    203 H203        0.6380  -23.2861  -49.0338 H         1 UNK         0.0600 
    204 H204        1.9926  -24.2235  -49.6504 H         1 UNK         0.0600 
    205 H205       -1.9395  -25.1940  -48.9105 H         1 UNK         0.3000 
    206 H206       -3.4743  -25.4456  -50.4607 H         1 UNK         0.0600 
    207 H207       -3.4972  -27.4751  -51.8686 H         1 UNK         0.0600 
    208 H208       -1.7931  -27.7678  -51.5481 H         1 UNK         0.0600 
    209 H209       -2.9726  -27.8814  -50.2420 H         1 UNK         0.0600 
    210 H210       -1.9184  -23.3593  -50.8642 H         1 UNK         0.3000 
    211 H211       -0.6654  -23.1852  -53.4588 H         1 UNK         0.0600 
    212 H212       -1.5027  -20.9777  -51.5127 H         1 UNK         0.0600 
    213 H213       -0.3665  -20.8412  -52.8552 H         1 UNK         0.0600 
    214 H214        0.0351  -21.8388  -51.4667 H         1 UNK         0.0600 
    215 H215       -2.0732  -23.7065  -55.0231 H         1 UNK         0.3000 
    216 H216       -3.4856  -23.4925  -56.6856 H         1 UNK         0.0600 
    217 H217       -4.9690  -21.5778  -57.0759 H         1 UNK         0.0600 
    218 H218       -3.3619  -21.0099  -56.6492 H         1 UNK         0.0600 
    219 H219       -4.6679  -20.9451  -55.4692 H         1 UNK         0.0600 
    220 H220       -4.9613  -22.9099  -53.4826 H         1 UNK         0.3000 
    221 H221       -6.3328  -25.3502  -53.4357 H         1 UNK         0.0600 
    222 H222       -8.2284  -22.9521  -53.8074 H         1 UNK         0.0600 
    223 H223       -7.9762  -24.2073  -55.0095 H         1 UNK         0.0600 
    224 H224       -8.7043  -24.6129  -53.4790 H         1 UNK         0.0600 
    225 H225       -8.3957  -24.3588  -51.5636 H         1 UNK         0.3000 
    226 H226       -6.8277  -24.0369  -49.1535 H         1 UNK         0.0600 
    227 H227       -8.9466  -25.3075  -49.1412 H         1 UNK         0.0600 
    228 H228       -9.0753  -23.9153  -48.0774 H         1 UNK         0.0600 
    229 H229       -9.8460  -23.8817  -49.6587 H         1 UNK         0.0600 
    230 H230       -5.8956  -22.1792  -48.6826 H         1 UNK         0.3000 
    231 H231       -5.3410  -20.1030  -48.2906 H         1 UNK         0.0600 
    232 H232       -7.0064  -18.2421  -48.1511 H         1 UNK         0.0600 
    233 H233       -7.4541  -19.6308  -47.1744 H         1 UNK         0.0600 
    234 H234       -8.2767  -19.3194  -48.6991 H         1 UNK         0.0600 
    235 H235       -7.7626  -19.5400  -50.7818 H         1 UNK         0.3000 
    236 H236       -7.7707  -18.5042  -52.7707 H         1 UNK         0.0600 
    237 H237       -7.6571  -20.8408  -53.2566 H         1 UNK         0.0600 
    238 H238       -6.6627  -20.0412  -54.4612 H         1 UNK         0.0600 
    239 H239       -5.9086  -20.8905  -53.1085 H         1 UNK         0.0600 
    240 H240       -4.3451  -19.3988  -53.1425 H         1 UNK         0.3000 
    241 H241       -3.6386  -16.8977  -54.3464 H         1 UNK         0.0600 
    242 H242       -3.5437  -18.0075  -50.9303 H         1 UNK         0.3800 
    243 H243       -2.8106  -16.5336  -50.3238 H         1 UNK         0.3800 
    244 H244       -1.6944  -18.9549  -53.2107 H         1 UNK         0.0800 
    245 H245       -2.5517  -19.2294  -54.6966 H         1 UNK         0.0800 
    246 H246        0.7414  -18.9681  -54.0695 H         1 UNK         0.0800 
    247 H247        1.4481  -17.5219  -54.7391 H         1 UNK         0.0800 
@<TRIPOS>BOND
     1    1    2 1    
     2    1  127 1    
     3    1  128 1    
     4    1  129 1    
     5    2    3 2    
     6    2    4 am   BACKBONE|DICT|INTERRES
     7    4    5 1    
     8    4  130 1    
     9    5    6 1    
    10    5   65 1    
    11    5  131 1    
    12    6    7 1    
    13    6  132 1    
    14    6  133 1    
    15    7    8 1    
    16    8    9 1    
    17    8  134 1    
    18    8  135 1    
    19    9   10 ar   
    20    9   14 ar   
    21   10   11 ar   
    22   10  136 1    
    23   11   12 ar   
    24   11  126 1    
    25   12   13 ar   
    26   12  137 1    
    27   13   14 ar   
    28   13   15 1    
    29   14  138 1    
    30   15   16 1    
    31   15  139 1    
    32   15  140 1    
    33   16   17 1    
    34   17   18 1    
    35   17  141 1    
    36   17  142 1    
    37   18   19 1    
    38   18   67 1    
    39   18  143 1    
    40   19   20 am   BACKBONE|DICT|INTERRES
    41   19  144 1    
    42   20   21 2    
    43   20   22 1    
    44   22   23 1    
    45   22   24 1    
    46   22  145 1    
    47   23  146 1    
    48   23  147 1    
    49   23  148 1    
    50   24   25 am   BACKBONE|DICT|INTERRES
    51   24  149 1    
    52   25   26 2    
    53   25   27 1    
    54   27   28 1    
    55   27   29 1    
    56   27  150 1    
    57   28  151 1    
    58   28  152 1    
    59   28  153 1    
    60   29   30 am   BACKBONE|DICT|INTERRES
    61   29  154 1    
    62   30   31 2    
    63   30   32 1    
    64   32   33 1    
    65   32   34 1    
    66   32  155 1    
    67   33  156 1    
    68   33  157 1    
    69   33  158 1    
    70   34   35 am   BACKBONE|DICT|INTERRES
    71   34  159 1    
    72   35   36 2    
    73   35   37 1    
    74   37   38 1    
    75   37   39 1    
    76   37  160 1    
    77   38  161 1    
    78   38  162 1    
    79   38  163 1    
    80   39   40 am   BACKBONE|DICT|INTERRES
    81   39  164 1    
    82   40   41 2    
    83   40   42 1    
    84   42   43 1    
    85   42   44 1    
    86   42  165 1    
    87   43  166 1    
    88   43  167 1    
    89   43  168 1    
    90   44   45 am   BACKBONE|DICT|INTERRES
    91   44  169 1    
    92   45   46 2    
    93   45   47 1    
    94   47   48 1    
    95   47   49 1    
    96   47  170 1    
    97   48  171 1    
    98   48  172 1    
    99   48  173 1    
   100   49   50 am   BACKBONE|DICT|INTERRES
   101   49  174 1    
   102   50   51 2    
   103   50   52 1    
   104   52   53 1    
   105   52   54 1    
   106   52  175 1    
   107   53  176 1    
   108   53  177 1    
   109   53  178 1    
   110   54   55 am   BACKBONE|DICT|INTERRES
   111   54  179 1    
   112   55   56 2    
   113   55   57 1    
   114   57   58 1    
   115   57   59 1    
   116   57  180 1    
   117   58  181 1    
   118   58  182 1    
   119   58  183 1    
   120   59   60 am   BACKBONE|DICT|INTERRES
   121   59  184 1    
   122   60   61 2    
   123   60   62 1    
   124   62   63 1    
   125   62   64 1    
   126   62  185 1    
   127   63  186 1    
   128   63  187 1    
   129   63  188 1    
   130   64   65 am   BACKBONE|DICT|INTERRES
   131   64  189 1    
   132   65   66 2    
   133   67   68 2    
   134   67   69 am   BACKBONE|DICT|INTERRES
   135   69   70 1    
   136   69  190 1    
   137   70   71 1    
   138   70   72 1    
   139   70  191 1    
   140   71  192 1    
   141   71  193 1    
   142   71  194 1    
   143   72   73 2    
   144   72   74 am   BACKBONE|DICT|INTERRES
   145   74   75 1    
   146   74  195 1    
   147   75   76 1    
   148   75   77 1    
   149   75  196 1    
   150   76  197 1    
   151   76  198 1    
   152   76  199 1    
   153   77   78 2    
   154   77   79 am   BACKBONE|DICT|INTERRES
   155   79   80 1    
   156   79  200 1    
   157   80   81 1    
   158   80   82 1    
   159   80  201 1    
   160   81  202 1    
   161   81  203 1    
   162   81  204 1    
   163   82   83 2    
   164   82   84 am   BACKBONE|DICT|INTERRES
   165   84   85 1    
   166   84  205 1    
   167   85   86 1    
   168   85   87 1    
   169   85  206 1    
   170   86  207 1    
   171   86  208 1    
   172   86  209 1    
   173   87   88 2    
   174   87   89 am   BACKBONE|DICT|INTERRES
   175   89   90 1    
   176   89  210 1    
   177   90   91 1    
   178   90   92 1    
   179   90  211 1    
   180   91  212 1    
   181   91  213 1    
   182   91  214 1    
   183   92   93 2    
   184   92   94 am   BACKBONE|DICT|INTERRES
   185   94   95 1    
   186   94  215 1    
   187   95   96 1    
   188   95   97 1    
   189   95  216 1    
   190   96  217 1    
   191   96  218 1    
   192   96  219 1    
   193   97   98 2    
   194   97   99 am   BACKBONE|DICT|INTERRES
   195   99  100 1    
   196   99  220 1    
   197  100  101 1    
   198  100  102 1    
   199  100  221 1    
   200  101  222 1    
   201  101  223 1    
   202  101  224 1    
   203  102  103 2    
   204  102  104 am   BACKBONE|DICT|INTERRES
   205  104  105 1    
   206  104  225 1    
   207  105  106 1    
   208  105  107 1    
   209  105  226 1    
   210  106  227 1    
   211  106  228 1    
   212  106  229 1    
   213  107  108 2    
   214  107  109 am   BACKBONE|DICT|INTERRES
   215  109  110 1    
   216  109  230 1    
   217  110  111 1    
   218  110  112 1    
   219  110  231 1    
   220  111  232 1    
   221  111  233 1    
   222  111  234 1    
   223  112  113 2    
   224  112  114 am   BACKBONE|DICT|INTERRES
   225  114  115 1    
   226  114  235 1    
   227  115  116 1    
   228  115  117 1    
   229  115  236 1    
   230  116  237 1    
   231  116  238 1    
   232  116  239 1    
   233  117  118 2    
   234  117  119 am   BACKBONE|DICT|INTERRES
   235  119  120 1    
   236  119  240 1    
   237  120  121 1    
   238  120  124 1    
   239  120  241 1    
   240  121  122 am   BACKBONE|DICT|INTERRES
   241  121  123 2    
   242  122  242 1    
   243  122  243 1    
   244  124  125 1    
   245  124  244 1    
   246  124  245 1    
   247  125  126 1    
   248  126  246 1    
   249  126  247 1    
@<TRIPOS>SUBSTRUCTURE
     1 UNK         1 GROUP             0       ****    0 ROOT    
