@<TRIPOS>MOLECULE
3R540
247   249    1
SMALL
USER_CHARGES


@<TRIPOS>ATOM
      1 CA          5.3475  -10.3246  -49.3746 C.3       0 UNK        -0.1800 
      2 C           4.4782  -11.2114  -48.4944 C.2       0 UNK         0.5000 
      3 O           4.4978  -11.0686  -47.2720 O.2       0 UNK        -0.5000 
      4 N           3.7173  -12.1253  -49.1108 N.am      1 UNK        -0.5000 
      5 CA          2.8257  -13.0720  -48.4271 C.3       1 UNK         0.1400 
      6 C6          2.4064  -14.2416  -49.3488 C.3       23 UNK        -0.0398 
      7 S7          3.8216  -15.3221  -49.7410 S.3       23 UNK        -0.2404 
      8 C8          3.6621  -16.5869  -48.4411 C.3       23 UNK        -0.0205 
      9 C9          2.7938  -17.7548  -48.8843 C.ar      23 UNK        -0.0193 
     10 C10         1.4060  -17.7166  -48.7247 C.ar      23 UNK        -0.1150 
     11 C11         0.6143  -18.7998  -49.1143 C.ar      23 UNK        -0.0193 
     12 C12         1.2250  -19.9367  -49.6524 C.ar      23 UNK        -0.1150 
     13 C13         2.6163  -20.0008  -49.7941 C.ar      23 UNK        -0.0193 
     14 C14         3.3896  -18.8983  -49.4212 C.ar      23 UNK        -0.1150 
     15 C15         3.3150  -21.2446  -50.3381 C.3       23 UNK        -0.0205 
     16 S16         2.5541  -22.8313  -49.8516 S.3       23 UNK        -0.2404 
     17 C17         2.4883  -22.7066  -48.0282 C.3       23 UNK        -0.0398 
     18 CA          1.4125  -23.6420  -47.4294 C.3       11 UNK         0.1400 
     19 N           1.6145  -23.8723  -45.9996 N.am      11 UNK        -0.5000 
     20 C           1.1080  -24.9151  -45.3277 C.2       10 UNK         0.5000 
     21 O           0.4556  -25.8161  -45.8557 O.2       10 UNK        -0.5000 
     22 CA          1.3341  -24.9271  -43.8042 C.3       10 UNK         0.1400 
     23 CB          2.7098  -25.5194  -43.4646 C.3       10 UNK        -0.1800 
     24 N           1.2179  -23.5935  -43.2099 N.am      10 UNK        -0.5000 
     25 C           0.0752  -22.8959  -43.1525 C.2       9 UNK         0.5000 
     26 O          -1.0044  -23.3266  -43.5560 O.2       9 UNK        -0.5000 
     27 CA          0.1549  -21.4629  -42.5928 C.3       9 UNK         0.1400 
     28 CB         -0.0322  -21.4708  -41.0686 C.3       9 UNK        -0.1800 
     29 N           1.3897  -20.7436  -42.9226 N.am      9 UNK        -0.5000 
     30 C           1.8573  -20.5071  -44.1575 C.2       8 UNK         0.5000 
     31 O           1.3400  -20.9655  -45.1769 O.2       8 UNK        -0.5000 
     32 CA          3.0991  -19.6024  -44.2589 C.3       8 UNK         0.1400 
     33 CB          3.2557  -18.9730  -45.6541 C.3       8 UNK        -0.1800 
     34 N           3.0213  -18.5341  -43.2641 N.am      8 UNK        -0.5000 
     35 C           3.9441  -18.2286  -42.3482 C.2       7 UNK         0.5000 
     36 O           5.0179  -18.8230  -42.2378 O.2       7 UNK        -0.5000 
     37 CA          3.5961  -17.0548  -41.4035 C.3       7 UNK         0.1400 
     38 CB          4.6661  -16.8292  -40.3197 C.3       7 UNK        -0.1800 
     39 N           3.3813  -15.7919  -42.1172 N.am      7 UNK        -0.5000 
     40 C           2.3093  -15.4773  -42.8556 C.2       6 UNK         0.5000 
     41 O           1.3686  -16.2517  -43.0516 O.2       6 UNK        -0.5000 
     42 CA          2.3211  -14.0800  -43.5090 C.3       6 UNK         0.1400 
     43 CB          3.2242  -14.0824  -44.7509 C.3       6 UNK        -0.1800 
     44 N           0.9818  -13.6317  -43.8967 N.am      6 UNK        -0.5000 
     45 C          -0.0013  -13.3346  -43.0340 C.2       5 UNK         0.5000 
     46 O           0.1610  -13.2749  -41.8137 O.2       5 UNK        -0.5000 
     47 CA         -1.4043  -13.0685  -43.6155 C.3       5 UNK         0.1400 
     48 CB         -1.6947  -11.5630  -43.6912 C.3       5 UNK        -0.1800 
     49 N          -1.6086  -13.6777  -44.9332 N.am      5 UNK        -0.5000 
     50 C          -1.8329  -14.9889  -45.1168 C.2       4 UNK         0.5000 
     51 O          -1.9193  -15.7912  -44.1865 O.2       4 UNK        -0.5000 
     52 CA         -2.0162  -15.4929  -46.5608 C.3       4 UNK         0.1400 
     53 CB         -3.0548  -16.6258  -46.6591 C.3       4 UNK        -0.1800 
     54 N          -2.3999  -14.4096  -47.4616 N.am      4 UNK        -0.5000 
     55 C          -1.9981  -14.2829  -48.7297 C.2       3 UNK         0.5000 
     56 O          -1.2649  -15.0874  -49.3046 O.2       3 UNK        -0.5000 
     57 CA         -2.4551  -13.0163  -49.4766 C.3       3 UNK         0.1400 
     58 CB         -3.9251  -12.6295  -49.2022 C.3       3 UNK        -0.1800 
     59 N          -1.5312  -11.9101  -49.2154 N.am      3 UNK        -0.5000 
     60 C          -1.2860  -11.3074  -48.0422 C.2       2 UNK         0.5000 
     61 O          -1.9459  -11.4840  -47.0161 O.2       2 UNK        -0.5000 
     62 CA         -0.0050  -10.4494  -48.0142 C.3       2 UNK         0.1400 
     63 CB          0.2351   -9.7355  -46.6694 C.3       2 UNK        -0.1800 
     64 N           1.1737  -11.2444  -48.3821 N.am      2 UNK        -0.5000 
     65 C           1.5765  -12.3995  -47.8219 C.2       1 UNK         0.5000 
     66 O           1.0057  -12.9497  -46.8769 O.2       1 UNK        -0.5000 
     67 C          -0.0266  -23.1617  -47.7111 C.2       11 UNK         0.5000 
     68 O          -0.6245  -23.6101  -48.6862 O.2       11 UNK        -0.5000 
     69 N          -0.5895  -22.3239  -46.8265 N.am      12 UNK        -0.5000 
     70 CA         -1.9908  -21.8966  -46.8741 C.3       12 UNK         0.1400 
     71 CB         -2.2590  -20.8404  -45.7911 C.3       12 UNK        -0.1800 
     72 C          -2.9731  -23.0752  -46.7427 C.2       12 UNK         0.5000 
     73 O          -3.9560  -23.1282  -47.4826 O.2       12 UNK        -0.5000 
     74 N          -2.6683  -24.0186  -45.8404 N.am      13 UNK        -0.5000 
     75 CA         -3.4008  -25.2724  -45.6657 C.3       13 UNK         0.1400 
     76 CB         -2.9010  -25.9959  -44.4066 C.3       13 UNK        -0.1800 
     77 C          -3.3091  -26.1852  -46.9021 C.2       13 UNK         0.5000 
     78 O          -4.3353  -26.7031  -47.3439 O.2       13 UNK        -0.5000 
     79 N          -2.1017  -26.3241  -47.4719 N.am      14 UNK        -0.5000 
     80 CA         -1.8492  -27.0583  -48.7183 C.3       14 UNK         0.1400 
     81 CB         -0.3362  -27.1559  -48.9634 C.3       14 UNK        -0.1800 
     82 C          -2.5637  -26.4388  -49.9373 C.2       14 UNK         0.5000 
     83 O          -3.0334  -27.1704  -50.8086 O.2       14 UNK        -0.5000 
     84 N          -2.6886  -25.1060  -49.9381 N.am      15 UNK        -0.5000 
     85 CA         -3.4615  -24.2986  -50.8815 C.3       15 UNK         0.1400 
     86 CB         -2.8999  -22.8649  -50.8726 C.3       15 UNK        -0.1800 
     87 C          -4.9839  -24.3100  -50.6125 C.2       15 UNK         0.5000 
     88 O          -5.6904  -23.4817  -51.1852 O.2       15 UNK        -0.5000 
     89 N          -5.4694  -25.2231  -49.7564 N.am      16 UNK        -0.5000 
     90 CA         -6.8732  -25.4610  -49.4043 C.3       16 UNK         0.1400 
     91 CB         -7.6650  -25.9728  -50.6262 C.3       16 UNK        -0.1800 
     92 C          -7.5256  -24.2440  -48.7206 C.2       16 UNK         0.5000 
     93 O          -8.6099  -23.8140  -49.1168 O.2       16 UNK        -0.5000 
     94 N          -6.8262  -23.7117  -47.7085 N.am      17 UNK        -0.5000 
     95 CA         -7.1320  -22.4856  -46.9647 C.3       17 UNK         0.1400 
     96 CB         -8.4863  -22.5800  -46.2298 C.3       17 UNK        -0.1800 
     97 C          -6.9925  -21.2384  -47.8596 C.2       17 UNK         0.5000 
     98 O          -7.8617  -20.3649  -47.8556 O.2       17 UNK        -0.5000 
     99 N          -5.8782  -21.1986  -48.6052 N.am      18 UNK        -0.5000 
    100 CA        -5.4564  -20.1425  -49.5283 C.3       18 UNK         0.1400 
    101 CB        -5.0692  -18.8730  -48.7442 C.3       18 UNK        -0.1800 
    102 C         -6.4722  -19.8719  -50.6576 C.2       18 UNK         0.5000 
    103 O         -6.8080  -18.7176  -50.9341 O.2       18 UNK        -0.5000 
    104 N         -6.9404  -20.9444  -51.3079 N.am      19 UNK        -0.5000 
    105 CA        -7.8866  -20.9139  -52.4222 C.3       19 UNK         0.1400 
    106 CB        -8.5960  -22.2766  -52.5113 C.3       19 UNK        -0.1800 
    107 C         -7.1810  -20.5253  -53.7370 C.2       19 UNK         0.5000 
    108 O         -7.0117  -21.3619  -54.6250 O.2       19 UNK        -0.5000 
    109 N         -6.7376  -19.2630  -53.8116 N.am      20 UNK        -0.5000 
    110 CA        -6.0716  -18.5686  -54.9252 C.3       20 UNK         0.1400 
    111 CB        -6.9626  -18.5533  -56.1820 C.3       20 UNK        -0.1800 
    112 C         -4.6475  -19.0572  -55.2663 C.2       20 UNK         0.5000 
    113 O         -3.8609  -18.2716  -55.7976 O.2       20 UNK        -0.5000 
    114 N         -4.3144  -20.3117  -54.9349 N.am      21 UNK        -0.5000 
    115 CA        -3.0274  -20.9656  -55.2010 C.3       21 UNK         0.1400 
    116 CB        -3.1361  -22.4511  -54.8239 C.3       21 UNK        -0.1800 
    117 C         -1.8065  -20.3037  -54.5245 C.2       21 UNK         0.5000 
    118 O         -0.6789  -20.5323  -54.9642 O.2       21 UNK        -0.5000 
    119 N         -2.0488  -19.4732  -53.5023 N.am      22 UNK        -0.5000 
    120 CA        -1.0570  -18.5705  -52.8932 C.3       22 UNK         0.1400 
    121 C         -0.6075  -17.3985  -53.8186 C.2       22 UNK         0.5000 
    122 N         -1.3135  -17.0832  -54.8997 N.am      22 UNK        -0.7600 
    123 O          0.4088  -16.7636  -53.5529 O.2       22 UNK        -0.5000 
    124 C124       -1.5533  -18.0135  -51.5354 C.3       23 UNK        -0.0398 
    125 S125       -1.8689  -19.3324  -50.3164 S.3       23 UNK        -0.2404 
    126 C126       -0.8918  -18.7456  -48.8958 C.3       23 UNK        -0.0205 
    127 H127        5.2304  -10.5626  -50.4322 H         1 UNK         0.0600 
    128 H128        6.3980  -10.4505  -49.1123 H         1 UNK         0.0600 
    129 H129        5.0820   -9.2772  -49.2303 H         1 UNK         0.0600 
    130 H130        3.7654  -12.2136  -50.1160 H         1 UNK         0.3000 
    131 H131        3.3813  -13.4936  -47.5880 H         1 UNK         0.0600 
    132 H132        1.9845  -13.8657  -50.2823 H         1 UNK         0.0800 
    133 H133        1.6185  -14.8392  -48.8912 H         1 UNK         0.0800 
    134 H134        4.6597  -16.9464  -48.1842 H         1 UNK         0.0800 
    135 H135        3.2622  -16.1451  -47.5276 H         1 UNK         0.0800 
    136 H136        0.9374  -16.8487  -48.2852 H         1 UNK         0.1150 
    137 H137        0.6139  -20.7806  -49.9398 H         1 UNK         0.1150 
    138 H138        4.4641  -18.9345  -49.5337 H         1 UNK         0.1150 
    139 H139        3.3292  -21.1845  -51.4269 H         1 UNK         0.0800 
    140 H140        4.3575  -21.2610  -50.0162 H         1 UNK         0.0800 
    141 H141        2.3205  -21.6776  -47.7092 H         1 UNK         0.0800 
    142 H142        3.4740  -22.9819  -47.6510 H         1 UNK         0.0800 
    143 H143        1.5248  -24.6114  -47.9200 H         1 UNK         0.0600 
    144 H144        2.0599  -23.1280  -45.4817 H         1 UNK         0.3000 
    145 H145        0.5681  -25.5664  -43.3598 H         1 UNK         0.0600 
    146 H146        2.8478  -25.6020  -42.3864 H         1 UNK         0.0600 
    147 H147        2.8165  -26.5213  -43.8825 H         1 UNK         0.0600 
    148 H148        3.5221  -24.9095  -43.8619 H         1 UNK         0.0600 
    149 H149        2.0625  -23.1696  -42.8555 H         1 UNK         0.3000 
    150 H150       -0.6702  -20.8981  -43.0298 H         1 UNK         0.0600 
    151 H151       -0.9566  -21.9793  -40.7908 H         1 UNK         0.0600 
    152 H152       -0.0903  -20.4567  -40.6725 H         1 UNK         0.0600 
    153 H153        0.7886  -21.9826  -40.5647 H         1 UNK         0.0600 
    154 H154        1.8854  -20.3291  -42.1473 H         1 UNK         0.3000 
    155 H155        3.9651  -20.2395  -44.0702 H         1 UNK         0.0600 
    156 H156        2.3896  -18.3639  -45.9154 H         1 UNK         0.0600 
    157 H157        4.1393  -18.3368  -45.7033 H         1 UNK         0.0600 
    158 H158        3.3649  -19.7379  -46.4237 H         1 UNK         0.0600 
    159 H159        2.1838  -17.9561  -43.2896 H         1 UNK         0.3000 
    160 H160        2.6674  -17.3221  -40.8948 H         1 UNK         0.0600 
    161 H161        5.6247  -16.5409  -40.7530 H         1 UNK         0.0600 
    162 H162        4.8283  -17.7351  -39.7341 H         1 UNK         0.0600 
    163 H163        4.3636  -16.0465  -39.6237 H         1 UNK         0.0600 
    164 H164        4.1279  -15.1161  -42.0414 H         1 UNK         0.3000 
    165 H165        2.7226  -13.3670  -42.7861 H         1 UNK         0.0600 
    166 H166        3.3024  -13.0823  -45.1780 H         1 UNK         0.0600 
    167 H167        4.2365  -14.4076  -44.5082 H         1 UNK         0.0600 
    168 H168        2.8393  -14.7523  -45.5203 H         1 UNK         0.0600 
    169 H169        0.7761  -13.6240  -44.8895 H         1 UNK         0.3000 
    170 H170       -2.1270  -13.5039  -42.9220 H         1 UNK         0.0600 
    171 H171       -0.9946  -11.0522  -44.3483 H         1 UNK         0.0600 
    172 H172       -2.7017  -11.3726  -44.0626 H         1 UNK         0.0600 
    173 H173       -1.6167  -11.1002  -42.7067 H         1 UNK         0.0600 
    174 H174       -1.5266  -13.0601  -45.7347 H         1 UNK         0.3000 
    175 H175       -1.0437  -15.8865  -46.8634 H         1 UNK         0.0600 
    176 H176       -3.2008  -16.9343  -47.6930 H         1 UNK         0.0600 
    177 H177       -4.0238  -16.3154  -46.2668 H         1 UNK         0.0600 
    178 H178       -2.7355  -17.5054  -46.0989 H         1 UNK         0.0600 
    179 H179       -2.9538  -13.6654  -47.0581 H         1 UNK         0.3000 
    180 H180       -2.3746  -13.2382  -50.5419 H         1 UNK         0.0600 
    181 H181       -4.1065  -12.3492  -48.1651 H         1 UNK         0.0600 
    182 H182       -4.5920  -13.4604  -49.4353 H         1 UNK         0.0600 
    183 H183       -4.2270  -11.7887  -49.8266 H         1 UNK         0.0600 
    184 H184       -0.8945  -11.7094  -49.9736 H         1 UNK         0.3000 
    185 H185       -0.1308   -9.6804  -48.7779 H         1 UNK         0.0600 
    186 H186        1.0433   -9.0094  -46.7552 H         1 UNK         0.0600 
    187 H187       -0.6537   -9.1950  -46.3413 H         1 UNK         0.0600 
    188 H188        0.5102  -10.4369  -45.8830 H         1 UNK         0.0600 
    189 H189        1.7234  -10.8851  -49.1496 H         1 UNK         0.3000 
    190 H190       -0.0132  -21.9486  -46.0781 H         1 UNK         0.3000 
    191 H191       -2.1588  -21.4361  -47.8487 H         1 UNK         0.0600 
    192 H192       -1.5189  -20.0406  -45.8142 H         1 UNK         0.0600 
    193 H193       -3.2395  -20.3842  -45.9328 H         1 UNK         0.0600 
    194 H194       -2.2457  -21.2746  -44.7922 H         1 UNK         0.0600 
    195 H195       -1.8822  -23.8604  -45.2168 H         1 UNK         0.3000 
    196 H196       -4.4533  -25.0234  -45.5149 H         1 UNK         0.0600 
    197 H197       -3.4488  -26.9253  -44.2467 H         1 UNK         0.0600 
    198 H198       -3.0397  -25.3794  -43.5183 H         1 UNK         0.0600 
    199 H199       -1.8424  -26.2458  -44.4762 H         1 UNK         0.0600 
    200 H200       -1.2983  -25.8945  -47.0267 H         1 UNK         0.3000 
    201 H201       -2.2369  -28.0707  -48.5882 H         1 UNK         0.0600 
    202 H202        0.1724  -27.6216  -48.1191 H         1 UNK         0.0600 
    203 H203        0.1102  -26.1751  -49.1249 H         1 UNK         0.0600 
    204 H204       -0.1236  -27.7603  -49.8459 H         1 UNK         0.0600 
    205 H205       -2.1876  -24.5843  -49.2239 H         1 UNK         0.3000 
    206 H206       -3.3194  -24.7074  -51.8836 H         1 UNK         0.0600 
    207 H207       -2.9525  -22.4226  -49.8793 H         1 UNK         0.0600 
    208 H208       -1.8557  -22.8485  -51.1855 H         1 UNK         0.0600 
    209 H209       -3.4477  -22.2056  -51.5450 H         1 UNK         0.0600 
    210 H210       -4.8055  -25.8223  -49.2819 H         1 UNK         0.3000 
    211 H211       -6.8693  -26.2603  -48.6618 H         1 UNK         0.0600 
    212 H212       -7.7501  -25.2137  -51.4039 H         1 UNK         0.0600 
    213 H213       -8.6771  -26.2619  -50.3413 H         1 UNK         0.0600 
    214 H214       -7.1886  -26.8496  -51.0646 H         1 UNK         0.0600 
    215 H215       -5.9047  -24.0926  -47.5303 H         1 UNK         0.3000 
    216 H216       -6.3587  -22.3963  -46.2003 H         1 UNK         0.0600 
    217 H217       -8.6238  -21.7281  -45.5631 H         1 UNK         0.0600 
    218 H218       -8.5421  -23.4815  -45.6200 H         1 UNK         0.0600 
    219 H219       -9.3296  -22.5881  -46.9206 H         1 UNK         0.0600 
    220 H220       -5.2319  -21.9742  -48.4991 H         1 UNK         0.3000 
    221 H221       -4.5577  -20.5127  -50.0197 H         1 UNK         0.0600 
    222 H222       -5.9263  -18.4287  -48.2376 H         1 UNK         0.0600 
    223 H223       -4.6521  -18.1152  -49.4085 H         1 UNK         0.0600 
    224 H224       -4.3126  -19.0970  -47.9925 H         1 UNK         0.0600 
    225 H225       -6.5655  -21.8632  -51.0776 H         1 UNK         0.3000 
    226 H226       -8.6492  -20.1591  -52.2193 H         1 UNK         0.0600 
    227 H227       -9.1114  -22.5139  -51.5806 H         1 UNK         0.0600 
    228 H228       -9.3421  -22.2772  -53.3067 H         1 UNK         0.0600 
    229 H229       -7.8942  -23.0849  -52.7187 H         1 UNK         0.0600 
    230 H230       -6.8572  -18.7046  -52.9715 H         1 UNK         0.3000 
    231 H231       -5.9613  -17.5349  -54.5939 H         1 UNK         0.0600 
    232 H232       -7.0992  -19.5518  -56.5978 H         1 UNK         0.0600 
    233 H233       -6.5206  -17.9348  -56.9642 H         1 UNK         0.0600 
    234 H234       -7.9480  -18.1425  -55.9623 H         1 UNK         0.0600 
    235 H235       -5.0552  -20.8983  -54.5676 H         1 UNK         0.3000 
    236 H236       -2.8535  -20.9068  -56.2773 H         1 UNK         0.0600 
    237 H237       -3.8917  -22.9542  -55.4276 H         1 UNK         0.0600 
    238 H238       -2.1914  -22.9713  -54.9882 H         1 UNK         0.0600 
    239 H239       -3.4073  -22.5828  -53.7782 H         1 UNK         0.0600 
    240 H240       -3.0029  -19.3580  -53.1985 H         1 UNK         0.3000 
    241 H241       -0.1586  -19.1595  -52.6974 H         1 UNK         0.0600 
    242 H242       -2.1608  -17.5853  -55.1475 H         1 UNK         0.3800 
    243 H243       -1.0010  -16.3255  -55.4855 H         1 UNK         0.3800 
    244 H244       -0.8223  -17.3165  -51.1204 H         1 UNK         0.0800 
    245 H245       -2.4721  -17.4400  -51.6673 H         1 UNK         0.0800 
    246 H246       -1.2058  -17.7290  -48.6618 H         1 UNK         0.0800 
    247 H247       -1.1320  -19.3486  -48.0237 H         1 UNK         0.0800 
@<TRIPOS>BOND
     1    1    2 1    
     2    1  127 1    
     3    1  128 1    
     4    1  129 1    
     5    2    3 2    
     6    2    4 am   BACKBONE|DICT|INTERRES
     7    4    5 1    
     8    4  130 1    
     9    5    6 1    
    10    5   65 1    
    11    5  131 1    
    12    6    7 1    
    13    6  132 1    
    14    6  133 1    
    15    7    8 1    
    16    8    9 1    
    17    8  134 1    
    18    8  135 1    
    19    9   10 ar   
    20    9   14 ar   
    21   10   11 ar   
    22   10  136 1    
    23   11   12 ar   
    24   11  126 1    
    25   12   13 ar   
    26   12  137 1    
    27   13   14 ar   
    28   13   15 1    
    29   14  138 1    
    30   15   16 1    
    31   15  139 1    
    32   15  140 1    
    33   16   17 1    
    34   17   18 1    
    35   17  141 1    
    36   17  142 1    
    37   18   19 1    
    38   18   67 1    
    39   18  143 1    
    40   19   20 am   BACKBONE|DICT|INTERRES
    41   19  144 1    
    42   20   21 2    
    43   20   22 1    
    44   22   23 1    
    45   22   24 1    
    46   22  145 1    
    47   23  146 1    
    48   23  147 1    
    49   23  148 1    
    50   24   25 am   BACKBONE|DICT|INTERRES
    51   24  149 1    
    52   25   26 2    
    53   25   27 1    
    54   27   28 1    
    55   27   29 1    
    56   27  150 1    
    57   28  151 1    
    58   28  152 1    
    59   28  153 1    
    60   29   30 am   BACKBONE|DICT|INTERRES
    61   29  154 1    
    62   30   31 2    
    63   30   32 1    
    64   32   33 1    
    65   32   34 1    
    66   32  155 1    
    67   33  156 1    
    68   33  157 1    
    69   33  158 1    
    70   34   35 am   BACKBONE|DICT|INTERRES
    71   34  159 1    
    72   35   36 2    
    73   35   37 1    
    74   37   38 1    
    75   37   39 1    
    76   37  160 1    
    77   38  161 1    
    78   38  162 1    
    79   38  163 1    
    80   39   40 am   BACKBONE|DICT|INTERRES
    81   39  164 1    
    82   40   41 2    
    83   40   42 1    
    84   42   43 1    
    85   42   44 1    
    86   42  165 1    
    87   43  166 1    
    88   43  167 1    
    89   43  168 1    
    90   44   45 am   BACKBONE|DICT|INTERRES
    91   44  169 1    
    92   45   46 2    
    93   45   47 1    
    94   47   48 1    
    95   47   49 1    
    96   47  170 1    
    97   48  171 1    
    98   48  172 1    
    99   48  173 1    
   100   49   50 am   BACKBONE|DICT|INTERRES
   101   49  174 1    
   102   50   51 2    
   103   50   52 1    
   104   52   53 1    
   105   52   54 1    
   106   52  175 1    
   107   53  176 1    
   108   53  177 1    
   109   53  178 1    
   110   54   55 am   BACKBONE|DICT|INTERRES
   111   54  179 1    
   112   55   56 2    
   113   55   57 1    
   114   57   58 1    
   115   57   59 1    
   116   57  180 1    
   117   58  181 1    
   118   58  182 1    
   119   58  183 1    
   120   59   60 am   BACKBONE|DICT|INTERRES
   121   59  184 1    
   122   60   61 2    
   123   60   62 1    
   124   62   63 1    
   125   62   64 1    
   126   62  185 1    
   127   63  186 1    
   128   63  187 1    
   129   63  188 1    
   130   64   65 am   BACKBONE|DICT|INTERRES
   131   64  189 1    
   132   65   66 2    
   133   67   68 2    
   134   67   69 am   BACKBONE|DICT|INTERRES
   135   69   70 1    
   136   69  190 1    
   137   70   71 1    
   138   70   72 1    
   139   70  191 1    
   140   71  192 1    
   141   71  193 1    
   142   71  194 1    
   143   72   73 2    
   144   72   74 am   BACKBONE|DICT|INTERRES
   145   74   75 1    
   146   74  195 1    
   147   75   76 1    
   148   75   77 1    
   149   75  196 1    
   150   76  197 1    
   151   76  198 1    
   152   76  199 1    
   153   77   78 2    
   154   77   79 am   BACKBONE|DICT|INTERRES
   155   79   80 1    
   156   79  200 1    
   157   80   81 1    
   158   80   82 1    
   159   80  201 1    
   160   81  202 1    
   161   81  203 1    
   162   81  204 1    
   163   82   83 2    
   164   82   84 am   BACKBONE|DICT|INTERRES
   165   84   85 1    
   166   84  205 1    
   167   85   86 1    
   168   85   87 1    
   169   85  206 1    
   170   86  207 1    
   171   86  208 1    
   172   86  209 1    
   173   87   88 2    
   174   87   89 am   BACKBONE|DICT|INTERRES
   175   89   90 1    
   176   89  210 1    
   177   90   91 1    
   178   90   92 1    
   179   90  211 1    
   180   91  212 1    
   181   91  213 1    
   182   91  214 1    
   183   92   93 2    
   184   92   94 am   BACKBONE|DICT|INTERRES
   185   94   95 1    
   186   94  215 1    
   187   95   96 1    
   188   95   97 1    
   189   95  216 1    
   190   96  217 1    
   191   96  218 1    
   192   96  219 1    
   193   97   98 2    
   194   97   99 am   BACKBONE|DICT|INTERRES
   195   99  100 1    
   196   99  220 1    
   197  100  101 1    
   198  100  102 1    
   199  100  221 1    
   200  101  222 1    
   201  101  223 1    
   202  101  224 1    
   203  102  103 2    
   204  102  104 am   BACKBONE|DICT|INTERRES
   205  104  105 1    
   206  104  225 1    
   207  105  106 1    
   208  105  107 1    
   209  105  226 1    
   210  106  227 1    
   211  106  228 1    
   212  106  229 1    
   213  107  108 2    
   214  107  109 am   BACKBONE|DICT|INTERRES
   215  109  110 1    
   216  109  230 1    
   217  110  111 1    
   218  110  112 1    
   219  110  231 1    
   220  111  232 1    
   221  111  233 1    
   222  111  234 1    
   223  112  113 2    
   224  112  114 am   BACKBONE|DICT|INTERRES
   225  114  115 1    
   226  114  235 1    
   227  115  116 1    
   228  115  117 1    
   229  115  236 1    
   230  116  237 1    
   231  116  238 1    
   232  116  239 1    
   233  117  118 2    
   234  117  119 am   BACKBONE|DICT|INTERRES
   235  119  120 1    
   236  119  240 1    
   237  120  121 1    
   238  120  124 1    
   239  120  241 1    
   240  121  122 am   BACKBONE|DICT|INTERRES
   241  121  123 2    
   242  122  242 1    
   243  122  243 1    
   244  124  125 1    
   245  124  244 1    
   246  124  245 1    
   247  125  126 1    
   248  126  246 1    
   249  126  247 1    
@<TRIPOS>SUBSTRUCTURE
     1 UNK         1 GROUP             0       ****    0 ROOT    
