@<TRIPOS>MOLECULE
3R540
247   249    1
SMALL
USER_CHARGES


@<TRIPOS>ATOM
      1 CA          3.0946   -8.9124  -51.4104 C.3       0 UNK        -0.1800 
      2 C           3.0572  -10.3452  -50.8977 C.2       0 UNK         0.5000 
      3 O           3.9477  -11.1340  -51.2162 O.2       0 UNK        -0.5000 
      4 N           2.0300  -10.6870  -50.1101 N.am      1 UNK        -0.5000 
      5 CA          1.8558  -11.9954  -49.4788 C.3       1 UNK         0.1400 
      6 C6          0.3700  -12.2569  -49.1272 C.3       23 UNK        -0.0398 
      7 S7          0.0545  -13.9652  -48.5605 S.3       23 UNK        -0.2404 
      8 C8         -0.6100  -14.7320  -50.0676 C.3       23 UNK        -0.0205 
      9 C9         -1.1924  -16.1013  -49.7616 C.ar      23 UNK        -0.0193 
     10 C10        -2.5146  -16.2096  -49.3206 C.ar      23 UNK        -0.1150 
     11 C11        -3.0654  -17.4596  -49.0310 C.ar      23 UNK        -0.0193 
     12 C12        -2.2792  -18.6045  -49.1766 C.ar      23 UNK        -0.1150 
     13 C13        -0.9610  -18.5140  -49.6354 C.ar      23 UNK        -0.0193 
     14 C14        -0.4211  -17.2570  -49.9233 C.ar      23 UNK        -0.1150 
     15 C15        -0.1403  -19.7774  -49.8619 C.3       23 UNK        -0.0205 
     16 S16         1.0599  -20.1247  -48.5350 S.3       23 UNK        -0.2404 
     17 C17         0.0174  -20.2177  -47.0392 C.3       23 UNK        -0.0398 
     18 CA         -0.3909  -21.6526  -46.6334 C.3       11 UNK         0.1400 
     19 N          -0.7823  -21.6980  -45.2184 N.am      11 UNK        -0.5000 
     20 C          -1.1535  -22.7925  -44.5380 C.2       10 UNK         0.5000 
     21 O          -1.1887  -23.9212  -45.0232 O.2       10 UNK        -0.5000 
     22 CA         -1.6350  -22.5777  -43.0959 C.3       10 UNK         0.1400 
     23 CB         -0.4470  -22.4048  -42.1389 C.3       10 UNK        -0.1800 
     24 N          -2.5273  -21.4210  -43.0168 N.am      10 UNK        -0.5000 
     25 C          -3.8010  -21.4352  -43.4391 C.2       9 UNK         0.5000 
     26 O          -4.3754  -22.4493  -43.8345 O.2       9 UNK        -0.5000 
     27 CA         -4.5554  -20.0911  -43.4479 C.3       9 UNK         0.1400 
     28 CB         -5.3033  -19.8860  -42.1222 C.3       9 UNK        -0.1800 
     29 N          -3.6829  -18.9403  -43.6885 N.am      9 UNK        -0.5000 
     30 C          -3.0345  -18.6972  -44.8370 C.2       8 UNK         0.5000 
     31 O          -3.1340  -19.4069  -45.8368 O.2       8 UNK        -0.5000 
     32 CA         -2.0621  -17.4994  -44.8386 C.3       8 UNK         0.1400 
     33 CB         -2.7753  -16.2103  -45.2691 C.3       8 UNK        -0.1800 
     34 N          -1.4283  -17.2918  -43.5321 N.am      8 UNK        -0.5000 
     35 C          -0.5769  -18.1602  -42.9725 C.2       7 UNK         0.5000 
     36 O          -0.2124  -19.2024  -43.5232 O.2       7 UNK        -0.5000 
     37 CA         -0.0904  -17.8380  -41.5536 C.3       7 UNK         0.1400 
     38 CB         -0.4064  -19.0200  -40.6107 C.3       7 UNK        -0.1800 
     39 N           1.3373  -17.5406  -41.6267 N.am      7 UNK        -0.5000 
     40 C           2.1843  -17.3309  -40.6104 C.2       6 UNK         0.5000 
     41 O           1.8729  -17.3763  -39.4200 O.2       6 UNK        -0.5000 
     42 CA          3.6231  -16.9547  -40.9971 C.3       6 UNK         0.1400 
     43 CB          4.2701  -17.9980  -41.9256 C.3       6 UNK        -0.1800 
     44 N           3.6196  -15.6467  -41.6446 N.am      6 UNK        -0.5000 
     45 C           3.7058  -14.4773  -40.9938 C.2       5 UNK         0.5000 
     46 O           3.9343  -14.3800  -39.7874 O.2       5 UNK        -0.5000 
     47 CA          3.4866  -13.1951  -41.8213 C.3       5 UNK         0.1400 
     48 CB          4.8319  -12.5925  -42.2529 C.3       5 UNK        -0.1800 
     49 N           2.6525  -13.4235  -43.0027 N.am      5 UNK        -0.5000 
     50 C           1.3308  -13.6532  -42.9576 C.2       4 UNK         0.5000 
     51 O           0.6677  -13.6111  -41.9211 O.2       4 UNK        -0.5000 
     52 CA          0.6283  -14.0229  -44.2784 C.3       4 UNK         0.1400 
     53 CB         -0.1061  -12.8073  -44.8619 C.3       4 UNK        -0.1800 
     54 N           1.5280  -14.5792  -45.2900 N.am      4 UNK        -0.5000 
     55 C           2.1756  -15.7478  -45.1773 C.2       3 UNK         0.5000 
     56 O           2.0760  -16.4888  -44.1997 O.2       3 UNK        -0.5000 
     57 CA          3.1286  -16.1381  -46.3206 C.3       3 UNK         0.1400 
     58 CB          2.4015  -17.0399  -47.3237 C.3       3 UNK        -0.1800 
     59 N           3.7012  -14.9941  -47.0313 N.am      3 UNK        -0.5000 
     60 C           4.5110  -14.0718  -46.4900 C.2       2 UNK         0.5000 
     61 O           4.8644  -14.0836  -45.3114 O.2       2 UNK        -0.5000 
     62 CA          4.9705  -12.9261  -47.4132 C.3       2 UNK         0.1400 
     63 CB          6.3271  -13.2587  -48.0517 C.3       2 UNK        -0.1800 
     64 N           3.9999  -12.6302  -48.4703 N.am      2 UNK        -0.5000 
     65 C           2.7867  -12.1063  -48.2537 C.2       1 UNK         0.5000 
     66 O           2.3990  -11.7262  -47.1477 O.2       1 UNK        -0.5000 
     67 C          -1.4808  -22.2279  -47.5683 C.2       11 UNK         0.5000 
     68 O          -1.1613  -22.9585  -48.5088 O.2       11 UNK        -0.5000 
     69 N          -2.7529  -21.9465  -47.2532 N.am      12 UNK        -0.5000 
     70 CA         -3.9334  -22.4807  -47.9354 C.3       12 UNK         0.1400 
     71 CB         -5.1911  -21.7922  -47.3855 C.3       12 UNK        -0.1800 
     72 C          -4.0754  -24.0157  -47.8835 C.2       12 UNK         0.5000 
     73 O          -4.7462  -24.5754  -48.7506 O.2       12 UNK        -0.5000 
     74 N          -3.4418  -24.6668  -46.9000 N.am      13 UNK        -0.5000 
     75 CA         -3.3770  -26.1215  -46.7804 C.3       13 UNK         0.1400 
     76 CB         -3.6305  -26.5179  -45.3169 C.3       13 UNK        -0.1800 
     77 C          -2.0178  -26.6591  -47.2598 C.2       13 UNK         0.5000 
     78 O          -1.9819  -27.6536  -47.9847 O.2       13 UNK        -0.5000 
     79 N          -0.9272  -26.0107  -46.8286 N.am      14 UNK        -0.5000 
     80 CA          0.4506  -26.4466  -47.0490 C.3       14 UNK         0.1400 
     81 CB          1.3838  -25.6779  -46.1002 C.3       14 UNK        -0.1800 
     82 C           0.9191  -26.2975  -48.5050 C.2       14 UNK         0.5000 
     83 O           1.5428  -27.2203  -49.0315 O.2       14 UNK        -0.5000 
     84 N           0.6229  -25.1470  -49.1229 N.am      15 UNK        -0.5000 
     85 CA          0.9595  -24.8605  -50.5158 C.3       15 UNK         0.1400 
     86 CB          1.4234  -23.4015  -50.6579 C.3       15 UNK        -0.1800 
     87 C          -0.2495  -25.1490  -51.4132 C.2       15 UNK         0.5000 
     88 O          -0.1131  -25.8889  -52.3881 O.2       15 UNK        -0.5000 
     89 N          -1.4065  -24.5697  -51.0534 N.am      16 UNK        -0.5000 
     90 CA         -2.7367  -24.6976  -51.6683 C.3       16 UNK         0.1400 
     91 CB         -3.2621  -26.1400  -51.5565 C.3       16 UNK        -0.1800 
     92 C          -2.8476  -24.1741  -53.1162 C.2       16 UNK         0.5000 
     93 O          -3.7253  -23.3584  -53.3995 O.2       16 UNK        -0.5000 
     94 N          -1.9475  -24.6095  -54.0044 N.am      17 UNK        -0.5000 
     95 CA         -1.8674  -24.1879  -55.4049 C.3       17 UNK         0.1400 
     96 CB         -0.8813  -25.0983  -56.1515 C.3       17 UNK        -0.1800 
     97 C          -1.4649  -22.7094  -55.5551 C.2       17 UNK         0.5000 
     98 O          -1.9747  -22.0252  -56.4423 O.2       17 UNK        -0.5000 
     99 N          -0.5862  -22.2387  -54.6584 N.am      18 UNK        -0.5000 
    100 CA        -0.1795  -20.8357  -54.5501 C.3       18 UNK         0.1400 
    101 CB         1.1134  -20.7543  -53.7241 C.3       18 UNK        -0.1800 
    102 C         -1.2727  -19.9495  -53.9213 C.2       18 UNK         0.5000 
    103 O         -1.3095  -18.7488  -54.1896 O.2       18 UNK        -0.5000 
    104 N         -2.1340  -20.5594  -53.0962 N.am      19 UNK        -0.5000 
    105 CA        -3.2720  -19.9140  -52.4466 C.3       19 UNK         0.1400 
    106 CB        -3.7292  -20.7939  -51.2724 C.3       19 UNK        -0.1800 
    107 C         -4.4324  -19.6990  -53.4299 C.2       19 UNK         0.5000 
    108 O         -5.0276  -18.6223  -53.4481 O.2       19 UNK        -0.5000 
    109 N         -4.7273  -20.7459  -54.2171 N.am      20 UNK        -0.5000 
    110 CA        -5.8507  -20.8598  -55.1513 C.3       20 UNK         0.1400 
    111 CB        -5.7076  -19.8613  -56.3191 C.3       20 UNK        -0.1800 
    112 C         -7.2148  -20.7800  -54.4307 C.2       20 UNK         0.5000 
    113 O         -8.1451  -20.1505  -54.9367 O.2       20 UNK        -0.5000 
    114 N         -7.2883  -21.4395  -53.2625 N.am      21 UNK        -0.5000 
    115 CA        -8.4284  -21.5378  -52.3461 C.3       21 UNK         0.1400 
    116 CB        -9.6040  -22.2883  -53.0066 C.3       21 UNK        -0.1800 
    117 C         -8.8437  -20.1683  -51.7698 C.2       21 UNK         0.5000 
    118 O         -9.8038  -19.5578  -52.2443 O.2       21 UNK        -0.5000 
    119 N         -8.1097  -19.7164  -50.7434 N.am      22 UNK        -0.5000 
    120 CA        -8.3832  -18.4701  -49.9994 C.3       22 UNK         0.1400 
    121 C         -9.7130  -18.4654  -49.1848 C.2       22 UNK         0.5000 
    122 N        -10.3282  -19.6072  -48.9002 N.am      22 UNK        -0.7600 
    123 O        -10.1952  -17.4021  -48.8043 O.2       22 UNK        -0.5000 
    124 C124       -7.2055  -18.0718  -49.0714 C.3       23 UNK        -0.0398 
    125 S125       -5.6440  -17.7928  -49.9655 S.3       23 UNK        -0.2404 
    126 C126       -4.5074  -17.5753  -48.5632 C.3       23 UNK        -0.0205 
    127 H127        3.0821   -8.9037  -52.5003 H         1 UNK         0.0600 
    128 H128        4.0061   -8.4180  -51.0748 H         1 UNK         0.0600 
    129 H129        2.2424   -8.3321  -51.0559 H         1 UNK         0.0600 
    130 H130        1.3462   -9.9860  -49.8617 H         1 UNK         0.3000 
    131 H131        2.1512  -12.7614  -50.1998 H         1 UNK         0.0600 
    132 H132        0.0264  -11.5693  -48.3523 H         1 UNK         0.0800 
    133 H133       -0.2559  -12.0533  -49.9969 H         1 UNK         0.0800 
    134 H134       -1.3852  -14.0953  -50.4967 H         1 UNK         0.0800 
    135 H135        0.1796  -14.8100  -50.8164 H         1 UNK         0.0800 
    136 H136       -3.1155  -15.3189  -49.2029 H         1 UNK         0.1150 
    137 H137       -2.7024  -19.5690  -48.9387 H         1 UNK         0.1150 
    138 H138        0.5984  -17.1800  -50.2739 H         1 UNK         0.1150 
    139 H139       -0.7907  -20.6412  -49.9861 H         1 UNK         0.0800 
    140 H140        0.4043  -19.6807  -50.8016 H         1 UNK         0.0800 
    141 H141        0.6124  -19.7794  -46.2368 H         1 UNK         0.0800 
    142 H142       -0.8505  -19.5686  -47.1293 H         1 UNK         0.0800 
    143 H143        0.4860  -22.2956  -46.7294 H         1 UNK         0.0600 
    144 H144       -0.7566  -20.8157  -44.7188 H         1 UNK         0.3000 
    145 H145       -2.1866  -23.4683  -42.7863 H         1 UNK         0.0600 
    146 H146       -0.7841  -22.2250  -41.1180 H         1 UNK         0.0600 
    147 H147        0.1691  -23.3046  -42.1237 H         1 UNK         0.0600 
    148 H148        0.1980  -21.5775  -42.4339 H         1 UNK         0.0600 
    149 H149       -2.1123  -20.5431  -42.7435 H         1 UNK         0.3000 
    150 H150       -5.2907  -20.1314  -44.2546 H         1 UNK         0.0600 
    151 H151       -5.9820  -20.7169  -41.9245 H         1 UNK         0.0600 
    152 H152       -5.9038  -18.9764  -42.1445 H         1 UNK         0.0600 
    153 H153       -4.6161  -19.8155  -41.2781 H         1 UNK         0.0600 
    154 H154       -3.5489  -18.3040  -42.9171 H         1 UNK         0.3000 
    155 H155       -1.2771  -17.7096  -45.5681 H         1 UNK         0.0600 
    156 H156       -2.0733  -15.3822  -45.3635 H         1 UNK         0.0600 
    157 H157       -3.5507  -15.9187  -44.5599 H         1 UNK         0.0600 
    158 H158       -3.2492  -16.3352  -46.2414 H         1 UNK         0.0600 
    159 H159       -1.6933  -16.4596  -43.0255 H         1 UNK         0.3000 
    160 H160       -0.6070  -16.9477  -41.1905 H         1 UNK         0.0600 
    161 H161        0.2695  -19.8582  -40.7786 H         1 UNK         0.0600 
    162 H162       -1.4257  -19.3815  -40.7521 H         1 UNK         0.0600 
    163 H163       -0.3226  -18.7307  -39.5637 H         1 UNK         0.0600 
    164 H164        1.6860  -17.4203  -42.5758 H         1 UNK         0.3000 
    165 H165        4.2195  -16.9146  -40.0829 H         1 UNK         0.0600 
    166 H166        3.7618  -18.0745  -42.8867 H         1 UNK         0.0600 
    167 H167        5.3128  -17.7491  -42.1233 H         1 UNK         0.0600 
    168 H168        4.2543  -18.9876  -41.4674 H         1 UNK         0.0600 
    169 H169        3.3744  -15.6352  -42.6259 H         1 UNK         0.3000 
    170 H170        2.9813  -12.4687  -41.1813 H         1 UNK         0.0600 
    171 H171        5.4311  -12.3196  -41.3834 H         1 UNK         0.0600 
    172 H172        5.4187  -13.2966  -42.8433 H         1 UNK         0.0600 
    173 H173        4.6906  -11.6896  -42.8472 H         1 UNK         0.0600 
    174 H174        3.1335  -13.4922  -43.8906 H         1 UNK         0.3000 
    175 H175       -0.1141  -14.7861  -44.0416 H         1 UNK         0.0600 
    176 H176       -0.8062  -12.3885  -44.1379 H         1 UNK         0.0600 
    177 H177        0.5881  -12.0149  -45.1428 H         1 UNK         0.0600 
    178 H178       -0.6822  -13.0799  -45.7458 H         1 UNK         0.0600 
    179 H179        1.6765  -14.0196  -46.1184 H         1 UNK         0.3000 
    180 H180        3.9517  -16.7054  -45.8814 H         1 UNK         0.0600 
    181 H181        1.5711  -16.5243  -47.8066 H         1 UNK         0.0600 
    182 H182        1.9929  -17.9139  -46.8183 H         1 UNK         0.0600 
    183 H183        3.0753  -17.3997  -48.1014 H         1 UNK         0.0600 
    184 H184        3.4586  -14.9017  -48.0063 H         1 UNK         0.3000 
    185 H185        5.0909  -12.0322  -46.7974 H         1 UNK         0.0600 
    186 H186        6.6930  -12.4278  -48.6552 H         1 UNK         0.0600 
    187 H187        7.0790  -13.4601  -47.2874 H         1 UNK         0.0600 
    188 H188        6.2663  -14.1390  -48.6928 H         1 UNK         0.0600 
    189 H189        4.2747  -12.8478  -49.4189 H         1 UNK         0.3000 
    190 H190       -2.9264  -21.2815  -46.5058 H         1 UNK         0.3000 
    191 H191       -3.8465  -22.2217  -48.9875 H         1 UNK         0.0600 
    192 H192       -6.0853  -22.1321  -47.9095 H         1 UNK         0.0600 
    193 H193       -5.1351  -20.7113  -47.5085 H         1 UNK         0.0600 
    194 H194       -5.3320  -22.0024  -46.3255 H         1 UNK         0.0600 
    195 H195       -2.8902  -24.1352  -46.2378 H         1 UNK         0.3000 
    196 H196       -4.1530  -26.5904  -47.3891 H         1 UNK         0.0600 
    197 H197       -3.5904  -27.6008  -45.1931 H         1 UNK         0.0600 
    198 H198       -4.6161  -26.1887  -44.9873 H         1 UNK         0.0600 
    199 H199       -2.8921  -26.0821  -44.6428 H         1 UNK         0.0600 
    200 H200       -1.0465  -25.2148  -46.2044 H         1 UNK         0.3000 
    201 H201        0.5102  -27.5058  -46.7899 H         1 UNK         0.0600 
    202 H202        1.1091  -25.8432  -45.0582 H         1 UNK         0.0600 
    203 H203        1.3530  -24.6039  -46.2865 H         1 UNK         0.0600 
    204 H204        2.4180  -26.0031  -46.2197 H         1 UNK         0.0600 
    205 H205        0.0569  -24.4542  -48.6434 H         1 UNK         0.3000 
    206 H206        1.7839  -25.4972  -50.8441 H         1 UNK         0.0600 
    207 H207        2.2605  -23.1884  -49.9930 H         1 UNK         0.0600 
    208 H208        1.7600  -23.2027  -51.6756 H         1 UNK         0.0600 
    209 H209        0.6308  -22.6899  -50.4299 H         1 UNK         0.0600 
    210 H210       -1.3777  -23.9773  -50.2290 H         1 UNK         0.3000 
    211 H211       -3.3939  -24.0683  -51.0673 H         1 UNK         0.0600 
    212 H212       -2.6561  -26.8433  -52.1282 H         1 UNK         0.0600 
    213 H213       -4.2849  -26.2113  -51.9283 H         1 UNK         0.0600 
    214 H214       -3.2711  -26.4729  -50.5182 H         1 UNK         0.0600 
    215 H215       -1.2354  -25.2540  -53.6667 H         1 UNK         0.3000 
    216 H216       -2.8556  -24.3110  -55.8531 H         1 UNK         0.0600 
    217 H217        0.1213  -25.0414  -55.7257 H         1 UNK         0.0600 
    218 H218       -1.2020  -26.1395  -56.1141 H         1 UNK         0.0600 
    219 H219       -0.8095  -24.8180  -57.2033 H         1 UNK         0.0600 
    220 H220       -0.2021  -22.8811  -53.9820 H         1 UNK         0.3000 
    221 H221        0.0271  -20.4524  -55.5517 H         1 UNK         0.0600 
    222 H222        1.9139  -21.3336  -54.1845 H         1 UNK         0.0600 
    223 H223        1.4624  -19.7238  -53.6457 H         1 UNK         0.0600 
    224 H224        0.9674  -21.1281  -52.7108 H         1 UNK         0.0600 
    225 H225       -2.0497  -21.5561  -52.9739 H         1 UNK         0.3000 
    226 H226       -2.9523  -18.9448  -52.0570 H         1 UNK         0.0600 
    227 H227       -4.2833  -21.6735  -51.5947 H         1 UNK         0.0600 
    228 H228       -2.8782  -21.1403  -50.6909 H         1 UNK         0.0600 
    229 H229       -4.3853  -20.2427  -50.6024 H         1 UNK         0.0600 
    230 H230       -4.1961  -21.6012  -54.0797 H         1 UNK         0.3000 
    231 H231       -5.7902  -21.8640  -55.5733 H         1 UNK         0.0600 
    232 H232       -6.4617  -20.0468  -57.0846 H         1 UNK         0.0600 
    233 H233       -4.7317  -19.9531  -56.7963 H         1 UNK         0.0600 
    234 H234       -5.8248  -18.8286  -55.9900 H         1 UNK         0.0600 
    235 H235       -6.4494  -21.9114  -52.9561 H         1 UNK         0.3000 
    236 H236       -8.0944  -22.1494  -51.5063 H         1 UNK         0.0600 
    237 H237       -9.2984  -23.2786  -53.3441 H         1 UNK         0.0600 
    238 H238      -10.4227  -22.4245  -52.2990 H         1 UNK         0.0600 
    239 H239      -10.0054  -21.7516  -53.8666 H         1 UNK         0.0600 
    240 H240       -7.3197  -20.2562  -50.4245 H         1 UNK         0.3000 
    241 H241       -8.4915  -17.6789  -50.7440 H         1 UNK         0.0600 
    242 H242       -9.9472  -20.4889  -49.2021 H         1 UNK         0.3800 
    243 H243      -11.1892  -19.5877  -48.3761 H         1 UNK         0.3800 
    244 H244       -7.4367  -17.1521  -48.5304 H         1 UNK         0.0800 
    245 H245       -7.0463  -18.8417  -48.3143 H         1 UNK         0.0800 
    246 H246       -4.6058  -18.4152  -47.8753 H         1 UNK         0.0800 
    247 H247       -4.7972  -16.6834  -48.0065 H         1 UNK         0.0800 
@<TRIPOS>BOND
     1    1    2 1    
     2    1  127 1    
     3    1  128 1    
     4    1  129 1    
     5    2    3 2    
     6    2    4 am   BACKBONE|DICT|INTERRES
     7    4    5 1    
     8    4  130 1    
     9    5    6 1    
    10    5   65 1    
    11    5  131 1    
    12    6    7 1    
    13    6  132 1    
    14    6  133 1    
    15    7    8 1    
    16    8    9 1    
    17    8  134 1    
    18    8  135 1    
    19    9   10 ar   
    20    9   14 ar   
    21   10   11 ar   
    22   10  136 1    
    23   11   12 ar   
    24   11  126 1    
    25   12   13 ar   
    26   12  137 1    
    27   13   14 ar   
    28   13   15 1    
    29   14  138 1    
    30   15   16 1    
    31   15  139 1    
    32   15  140 1    
    33   16   17 1    
    34   17   18 1    
    35   17  141 1    
    36   17  142 1    
    37   18   19 1    
    38   18   67 1    
    39   18  143 1    
    40   19   20 am   BACKBONE|DICT|INTERRES
    41   19  144 1    
    42   20   21 2    
    43   20   22 1    
    44   22   23 1    
    45   22   24 1    
    46   22  145 1    
    47   23  146 1    
    48   23  147 1    
    49   23  148 1    
    50   24   25 am   BACKBONE|DICT|INTERRES
    51   24  149 1    
    52   25   26 2    
    53   25   27 1    
    54   27   28 1    
    55   27   29 1    
    56   27  150 1    
    57   28  151 1    
    58   28  152 1    
    59   28  153 1    
    60   29   30 am   BACKBONE|DICT|INTERRES
    61   29  154 1    
    62   30   31 2    
    63   30   32 1    
    64   32   33 1    
    65   32   34 1    
    66   32  155 1    
    67   33  156 1    
    68   33  157 1    
    69   33  158 1    
    70   34   35 am   BACKBONE|DICT|INTERRES
    71   34  159 1    
    72   35   36 2    
    73   35   37 1    
    74   37   38 1    
    75   37   39 1    
    76   37  160 1    
    77   38  161 1    
    78   38  162 1    
    79   38  163 1    
    80   39   40 am   BACKBONE|DICT|INTERRES
    81   39  164 1    
    82   40   41 2    
    83   40   42 1    
    84   42   43 1    
    85   42   44 1    
    86   42  165 1    
    87   43  166 1    
    88   43  167 1    
    89   43  168 1    
    90   44   45 am   BACKBONE|DICT|INTERRES
    91   44  169 1    
    92   45   46 2    
    93   45   47 1    
    94   47   48 1    
    95   47   49 1    
    96   47  170 1    
    97   48  171 1    
    98   48  172 1    
    99   48  173 1    
   100   49   50 am   BACKBONE|DICT|INTERRES
   101   49  174 1    
   102   50   51 2    
   103   50   52 1    
   104   52   53 1    
   105   52   54 1    
   106   52  175 1    
   107   53  176 1    
   108   53  177 1    
   109   53  178 1    
   110   54   55 am   BACKBONE|DICT|INTERRES
   111   54  179 1    
   112   55   56 2    
   113   55   57 1    
   114   57   58 1    
   115   57   59 1    
   116   57  180 1    
   117   58  181 1    
   118   58  182 1    
   119   58  183 1    
   120   59   60 am   BACKBONE|DICT|INTERRES
   121   59  184 1    
   122   60   61 2    
   123   60   62 1    
   124   62   63 1    
   125   62   64 1    
   126   62  185 1    
   127   63  186 1    
   128   63  187 1    
   129   63  188 1    
   130   64   65 am   BACKBONE|DICT|INTERRES
   131   64  189 1    
   132   65   66 2    
   133   67   68 2    
   134   67   69 am   BACKBONE|DICT|INTERRES
   135   69   70 1    
   136   69  190 1    
   137   70   71 1    
   138   70   72 1    
   139   70  191 1    
   140   71  192 1    
   141   71  193 1    
   142   71  194 1    
   143   72   73 2    
   144   72   74 am   BACKBONE|DICT|INTERRES
   145   74   75 1    
   146   74  195 1    
   147   75   76 1    
   148   75   77 1    
   149   75  196 1    
   150   76  197 1    
   151   76  198 1    
   152   76  199 1    
   153   77   78 2    
   154   77   79 am   BACKBONE|DICT|INTERRES
   155   79   80 1    
   156   79  200 1    
   157   80   81 1    
   158   80   82 1    
   159   80  201 1    
   160   81  202 1    
   161   81  203 1    
   162   81  204 1    
   163   82   83 2    
   164   82   84 am   BACKBONE|DICT|INTERRES
   165   84   85 1    
   166   84  205 1    
   167   85   86 1    
   168   85   87 1    
   169   85  206 1    
   170   86  207 1    
   171   86  208 1    
   172   86  209 1    
   173   87   88 2    
   174   87   89 am   BACKBONE|DICT|INTERRES
   175   89   90 1    
   176   89  210 1    
   177   90   91 1    
   178   90   92 1    
   179   90  211 1    
   180   91  212 1    
   181   91  213 1    
   182   91  214 1    
   183   92   93 2    
   184   92   94 am   BACKBONE|DICT|INTERRES
   185   94   95 1    
   186   94  215 1    
   187   95   96 1    
   188   95   97 1    
   189   95  216 1    
   190   96  217 1    
   191   96  218 1    
   192   96  219 1    
   193   97   98 2    
   194   97   99 am   BACKBONE|DICT|INTERRES
   195   99  100 1    
   196   99  220 1    
   197  100  101 1    
   198  100  102 1    
   199  100  221 1    
   200  101  222 1    
   201  101  223 1    
   202  101  224 1    
   203  102  103 2    
   204  102  104 am   BACKBONE|DICT|INTERRES
   205  104  105 1    
   206  104  225 1    
   207  105  106 1    
   208  105  107 1    
   209  105  226 1    
   210  106  227 1    
   211  106  228 1    
   212  106  229 1    
   213  107  108 2    
   214  107  109 am   BACKBONE|DICT|INTERRES
   215  109  110 1    
   216  109  230 1    
   217  110  111 1    
   218  110  112 1    
   219  110  231 1    
   220  111  232 1    
   221  111  233 1    
   222  111  234 1    
   223  112  113 2    
   224  112  114 am   BACKBONE|DICT|INTERRES
   225  114  115 1    
   226  114  235 1    
   227  115  116 1    
   228  115  117 1    
   229  115  236 1    
   230  116  237 1    
   231  116  238 1    
   232  116  239 1    
   233  117  118 2    
   234  117  119 am   BACKBONE|DICT|INTERRES
   235  119  120 1    
   236  119  240 1    
   237  120  121 1    
   238  120  124 1    
   239  120  241 1    
   240  121  122 am   BACKBONE|DICT|INTERRES
   241  121  123 2    
   242  122  242 1    
   243  122  243 1    
   244  124  125 1    
   245  124  244 1    
   246  124  245 1    
   247  125  126 1    
   248  126  246 1    
   249  126  247 1    
@<TRIPOS>SUBSTRUCTURE
     1 UNK         1 GROUP             0       ****    0 ROOT    
