@<TRIPOS>MOLECULE
3R540
247   249    1
SMALL
USER_CHARGES


@<TRIPOS>ATOM
      1 CA         -4.4882  -11.9492  -47.0548 C.3       0 UNK        -0.1800 
      2 C          -3.0974  -12.5597  -46.9658 C.2       0 UNK         0.5000 
      3 O          -2.6267  -12.8469  -45.8662 O.2       0 UNK        -0.5000 
      4 N          -2.4474  -12.7736  -48.1179 N.am      1 UNK        -0.5000 
      5 CA         -1.0967  -13.3380  -48.2544 C.3       1 UNK         0.1400 
      6 C6         -0.6566  -13.3803  -49.7423 C.3       23 UNK        -0.0398 
      7 S7          1.1236  -13.0856  -50.0205 S.3       23 UNK        -0.2404 
      8 C8          1.9146  -14.6948  -49.6622 C.3       23 UNK        -0.0205 
      9 C9          1.2515  -15.9116  -50.3037 C.ar      23 UNK        -0.0193 
     10 C10         0.7943  -15.8935  -51.6276 C.ar      23 UNK        -0.1150 
     11 C11         0.1772  -17.0200  -52.1820 C.ar      23 UNK        -0.0193 
     12 C12         0.0427  -18.1781  -51.4125 C.ar      23 UNK        -0.1150 
     13 C13         0.5054  -18.2143  -50.0964 C.ar      23 UNK        -0.0193 
     14 C14         1.1105  -17.0807  -49.5506 C.ar      23 UNK        -0.1150 
     15 C15         0.3156  -19.4641  -49.2552 C.3       23 UNK        -0.0205 
     16 S16         1.6142  -20.6948  -49.5678 S.3       23 UNK        -0.2404 
     17 C17         0.9607  -22.1727  -48.6999 C.3       23 UNK        -0.0398 
     18 CA          1.2228  -22.2382  -47.1693 C.3       11 UNK         0.1400 
     19 N           2.5750  -21.7818  -46.8387 N.am      11 UNK        -0.5000 
     20 C           3.1816  -21.8502  -45.6480 C.2       10 UNK         0.5000 
     21 O           2.7038  -22.4232  -44.6664 O.2       10 UNK        -0.5000 
     22 CA          4.5670  -21.1861  -45.5403 C.3       10 UNK         0.1400 
     23 CB          4.9195  -20.2534  -46.7252 C.3       10 UNK        -0.1800 
     24 N           4.6599  -20.4697  -44.2706 N.am      10 UNK        -0.5000 
     25 C           5.8028  -20.1044  -43.6763 C.2       9 UNK         0.5000 
     26 O           6.9207  -20.3222  -44.1456 O.2       9 UNK        -0.5000 
     27 CA          5.6843  -19.3918  -42.3199 C.3       9 UNK         0.1400 
     28 CB          5.3569  -17.9034  -42.5044 C.3       9 UNK        -0.1800 
     29 N           4.6726  -20.0176  -41.4700 N.am      9 UNK        -0.5000 
     30 C           4.9142  -21.0717  -40.6786 C.2       8 UNK         0.5000 
     31 O           6.0160  -21.6200  -40.6077 O.2       8 UNK        -0.5000 
     32 CA          3.7446  -21.6181  -39.8294 C.3       8 UNK         0.1400 
     33 CB          4.2127  -22.1465  -38.4573 C.3       8 UNK        -0.1800 
     34 N           2.6197  -20.6918  -39.6622 N.am      8 UNK        -0.5000 
     35 C           2.6007  -19.4860  -39.0767 C.2       7 UNK         0.5000 
     36 O           3.5958  -18.9516  -38.5845 O.2       7 UNK        -0.5000 
     37 CA          1.2347  -18.7569  -39.0567 C.3       7 UNK         0.1400 
     38 CB          1.3533  -17.2902  -38.6052 C.3       7 UNK        -0.1800 
     39 N           0.5482  -18.7874  -40.3517 N.am      7 UNK        -0.5000 
     40 C          -0.0574  -19.8476  -40.9063 C.2       6 UNK         0.5000 
     41 O          -0.1427  -20.9433  -40.3503 O.2       6 UNK        -0.5000 
     42 CA         -0.6399  -19.6805  -42.3222 C.3       6 UNK         0.1400 
     43 CB         -2.1653  -19.5143  -42.2237 C.3       6 UNK        -0.1800 
     44 N          -0.0712  -18.5652  -43.0844 N.am      6 UNK        -0.5000 
     45 C           1.2209  -18.4157  -43.4199 C.2       5 UNK         0.5000 
     46 O           2.1107  -19.2120  -43.1075 O.2       5 UNK        -0.5000 
     47 CA          1.5998  -17.1379  -44.1976 C.3       5 UNK         0.1400 
     48 CB          1.8018  -17.4429  -45.6856 C.3       5 UNK        -0.1800 
     49 N           0.6471  -16.0342  -44.0544 N.am      5 UNK        -0.5000 
     50 C           0.4295  -15.3629  -42.9138 C.2       4 UNK         0.5000 
     51 O           0.9880  -15.6271  -41.8482 O.2       4 UNK        -0.5000 
     52 CA         -0.6085  -14.2279  -42.9695 C.3       4 UNK         0.1400 
     53 CB         -0.0098  -12.9681  -43.6135 C.3       4 UNK        -0.1800 
     54 N          -1.8105  -14.6233  -43.7009 N.am      4 UNK        -0.5000 
     55 C          -2.7042  -15.5205  -43.2619 C.2       3 UNK         0.5000 
     56 O          -2.6555  -16.0458  -42.1506 O.2       3 UNK        -0.5000 
     57 CA         -3.8138  -15.9302  -44.2459 C.3       3 UNK         0.1400 
     58 CB         -4.9837  -14.9356  -44.2133 C.3       3 UNK        -0.1800 
     59 N          -3.3023  -16.0514  -45.6115 N.am      3 UNK        -0.5000 
     60 C          -2.5311  -17.0637  -46.0320 C.2       2 UNK         0.5000 
     61 O          -2.2462  -18.0308  -45.3304 O.2       2 UNK        -0.5000 
     62 CA         -1.9863  -16.9927  -47.4687 C.3       2 UNK         0.1400 
     63 CB         -2.8300  -17.8495  -48.4226 C.3       2 UNK        -0.1800 
     64 N          -1.9123  -15.6269  -47.9833 N.am      2 UNK        -0.5000 
     65 C          -0.9900  -14.7320  -47.6016 C.2       1 UNK         0.5000 
     66 O          -0.1314  -14.9558  -46.7470 O.2       1 UNK        -0.5000 
     67 C           0.1332  -21.4875  -46.3707 C.2       11 UNK         0.5000 
     68 O           0.3640  -20.3617  -45.9307 O.2       11 UNK        -0.5000 
     69 N          -1.0393  -22.1153  -46.2172 N.am      12 UNK        -0.5000 
     70 CA         -2.1783  -21.5634  -45.4869 C.3       12 UNK         0.1400 
     71 CB         -2.5550  -22.5273  -44.3504 C.3       12 UNK        -0.1800 
     72 C          -3.3777  -21.3662  -46.4228 C.2       12 UNK         0.5000 
     73 O          -3.5803  -22.1612  -47.3444 O.2       12 UNK        -0.5000 
     74 N          -4.1917  -20.3438  -46.1261 N.am      13 UNK        -0.5000 
     75 CA         -5.4269  -19.9997  -46.8407 C.3       13 UNK         0.1400 
     76 CB         -6.0076  -18.7026  -46.2570 C.3       13 UNK        -0.1800 
     77 C          -6.4954  -21.1091  -46.8258 C.2       13 UNK         0.5000 
     78 O          -7.2934  -21.1893  -47.7592 O.2       13 UNK        -0.5000 
     79 N          -6.4648  -21.9706  -45.7989 N.am      14 UNK        -0.5000 
     80 CA         -7.3353  -23.1391  -45.6379 C.3       14 UNK         0.1400 
     81 CB         -7.0476  -23.7849  -44.2740 C.3       14 UNK        -0.1800 
     82 C          -7.2016  -24.1840  -46.7661 C.2       14 UNK         0.5000 
     83 O          -8.1522  -24.9248  -47.0177 O.2       14 UNK        -0.5000 
     84 N          -6.0430  -24.2087  -47.4399 N.am      15 UNK        -0.5000 
     85 CA         -5.7692  -25.0538  -48.6032 C.3       15 UNK         0.1400 
     86 CB         -4.2647  -25.3748  -48.6202 C.3       15 UNK        -0.1800 
     87 C          -6.2028  -24.4041  -49.9360 C.2       15 UNK         0.5000 
     88 O          -5.9838  -25.0064  -50.9872 O.2       15 UNK        -0.5000 
     89 N          -6.7593  -23.1807  -49.8831 N.am      16 UNK        -0.5000 
     90 CA         -7.0876  -22.2927  -51.0094 C.3       16 UNK         0.1400 
     91 CB         -8.1438  -22.9210  -51.9415 C.3       16 UNK        -0.1800 
     92 C          -5.8367  -21.8065  -51.7723 C.2       16 UNK         0.5000 
     93 O          -5.9323  -21.4043  -52.9347 O.2       16 UNK        -0.5000 
     94 N          -4.6794  -21.8407  -51.0946 N.am      17 UNK        -0.5000 
     95 CA         -3.3476  -21.5931  -51.6437 C.3       17 UNK         0.1400 
     96 CB         -2.3048  -21.8656  -50.5575 C.3       17 UNK        -0.1800 
     97 C          -3.1529  -20.1971  -52.2545 C.2       17 UNK         0.5000 
     98 O          -2.3597  -20.0654  -53.1849 O.2       17 UNK        -0.5000 
     99 N          -3.9191  -19.2034  -51.7800 N.am      18 UNK        -0.5000 
    100 CA        -3.9747  -17.8434  -52.3279 C.3       18 UNK         0.1400 
    101 CB        -5.0124  -17.0242  -51.5457 C.3       18 UNK        -0.1800 
    102 C         -4.2911  -17.7974  -53.8375 C.2       18 UNK         0.5000 
    103 O         -3.7845  -16.9177  -54.5343 O.2       18 UNK        -0.5000 
    104 N         -5.0869  -18.7665  -54.3086 N.am      19 UNK        -0.5000 
    105 CA        -5.3372  -19.0187  -55.7224 C.3       19 UNK         0.1400 
    106 CB        -6.8409  -19.2572  -55.9341 C.3       19 UNK        -0.1800 
    107 C         -4.5233  -20.2291  -56.2079 C.2       19 UNK         0.5000 
    108 O         -3.8714  -20.1418  -57.2480 O.2       19 UNK        -0.5000 
    109 N         -4.5834  -21.3425  -55.4631 N.am      20 UNK        -0.5000 
    110 CA        -4.0879  -22.6486  -55.9005 C.3       20 UNK         0.1400 
    111 CB        -4.6360  -23.7411  -54.9687 C.3       20 UNK        -0.1800 
    112 C         -2.5576  -22.7608  -56.0367 C.2       20 UNK         0.5000 
    113 O         -2.0986  -23.5228  -56.8891 O.2       20 UNK        -0.5000 
    114 N         -1.7933  -22.0291  -55.2133 N.am      21 UNK        -0.5000 
    115 CA        -0.3294  -22.0528  -55.2486 C.3       21 UNK         0.1400 
    116 CB         0.2416  -21.8151  -53.8402 C.3       21 UNK        -0.1800 
    117 C          0.2282  -21.0228  -56.2433 C.2       21 UNK         0.5000 
    118 O          1.1598  -21.3440  -56.9829 O.2       21 UNK        -0.5000 
    119 N         -0.3388  -19.8091  -56.2386 N.am      22 UNK        -0.5000 
    120 CA         0.1256  -18.6866  -57.0729 C.3       22 UNK         0.1400 
    121 C         -0.4761  -18.6548  -58.5063 C.2       22 UNK         0.5000 
    122 N         -1.5788  -19.3338  -58.7936 N.am      22 UNK        -0.7600 
    123 O          0.0829  -18.0077  -59.3877 O.2       22 UNK        -0.5000 
    124 C124       -0.0502  -17.3198  -56.3654 C.3       23 UNK        -0.0398 
    125 S125        0.9396  -17.2070  -54.8340 S.3       23 UNK        -0.2404 
    126 C126       -0.3711  -16.9817  -53.5992 C.3       23 UNK        -0.0205 
    127 H127       -5.2301  -12.6478  -46.6684 H         1 UNK         0.0600 
    128 H128       -4.7573  -11.6995  -48.0814 H         1 UNK         0.0600 
    129 H129       -4.5350  -11.0372  -46.4598 H         1 UNK         0.0600 
    130 H130       -2.9007  -12.5115  -48.9815 H         1 UNK         0.3000 
    131 H131       -0.4285  -12.6683  -47.7086 H         1 UNK         0.0600 
    132 H132       -0.9810  -14.2917  -50.2456 H         1 UNK         0.0800 
    133 H133       -1.1539  -12.5778  -50.2889 H         1 UNK         0.0800 
    134 H134        1.9563  -14.8137  -48.5784 H         1 UNK         0.0800 
    135 H135        2.9507  -14.6519  -49.9997 H         1 UNK         0.0800 
    136 H136        0.9047  -14.9989  -52.2239 H         1 UNK         0.1150 
    137 H137       -0.4256  -19.0541  -51.8347 H         1 UNK         0.1150 
    138 H138        1.4652  -17.1070  -48.5307 H         1 UNK         0.1150 
    139 H139        0.3268  -19.1986  -48.2000 H         1 UNK         0.0800 
    140 H140       -0.6652  -19.8879  -49.4547 H         1 UNK         0.0800 
    141 H141       -0.0977  -22.2968  -48.9276 H         1 UNK         0.0800 
    142 H142        1.4458  -23.0323  -49.1640 H         1 UNK         0.0800 
    143 H143        1.1627  -23.2854  -46.8652 H         1 UNK         0.0600 
    144 H144        3.0314  -21.2623  -47.5747 H         1 UNK         0.3000 
    145 H145        5.2915  -22.0026  -45.5229 H         1 UNK         0.0600 
    146 H146        4.2041  -19.4383  -46.8287 H         1 UNK         0.0600 
    147 H147        5.9067  -19.8081  -46.6046 H         1 UNK         0.0600 
    148 H148        4.9428  -20.8000  -47.6686 H         1 UNK         0.0600 
    149 H149        3.7741  -20.2788  -43.8104 H         1 UNK         0.3000 
    150 H150        6.6559  -19.4511  -41.8243 H         1 UNK         0.0600 
    151 H151        6.1343  -17.4030  -43.0831 H         1 UNK         0.0600 
    152 H152        5.2835  -17.3925  -41.5441 H         1 UNK         0.0600 
    153 H153        4.4166  -17.7635  -43.0323 H         1 UNK         0.0600 
    154 H154        3.7318  -19.6497  -41.5267 H         1 UNK         0.3000 
    155 H155        3.3478  -22.4665  -40.3884 H         1 UNK         0.0600 
    156 H156        3.3772  -22.5467  -37.8829 H         1 UNK         0.0600 
    157 H157        4.6846  -21.3638  -37.8627 H         1 UNK         0.0600 
    158 H158        4.9387  -22.9521  -38.5718 H         1 UNK         0.0600 
    159 H159        1.7287  -21.0230  -40.0223 H         1 UNK         0.3000 
    160 H160        0.6110  -19.2780  -38.3277 H         1 UNK         0.0600 
    161 H161        1.9784  -16.7111  -39.2864 H         1 UNK         0.0600 
    162 H162        1.7932  -17.2179  -37.6098 H         1 UNK         0.0600 
    163 H163        0.3752  -16.8106  -38.5608 H         1 UNK         0.0600 
    164 H164        0.5924  -17.9359  -40.8959 H         1 UNK         0.3000 
    165 H165       -0.4224  -20.5944  -42.8781 H         1 UNK         0.0600 
    166 H166       -2.4339  -18.6395  -41.6315 H         1 UNK         0.0600 
    167 H167       -2.6312  -19.4086  -43.2004 H         1 UNK         0.0600 
    168 H168       -2.6202  -20.3821  -41.7445 H         1 UNK         0.0600 
    169 H169       -0.7291  -17.8813  -43.4318 H         1 UNK         0.3000 
    170 H170        2.5525  -16.7892  -43.7990 H         1 UNK         0.0600 
    171 H171        2.4983  -18.2692  -45.8232 H         1 UNK         0.0600 
    172 H172        0.8639  -17.7273  -46.1591 H         1 UNK         0.0600 
    173 H173        2.2032  -16.5800  -46.2168 H         1 UNK         0.0600 
    174 H174        0.1836  -15.7227  -44.9024 H         1 UNK         0.3000 
    175 H175       -0.8946  -13.9829  -41.9444 H         1 UNK         0.0600 
    176 H176        0.2702  -13.1398  -44.6536 H         1 UNK         0.0600 
    177 H177       -0.7204  -12.1416  -43.5934 H         1 UNK         0.0600 
    178 H178        0.8844  -12.6433  -43.0802 H         1 UNK         0.0600 
    179 H179       -1.9600  -14.1820  -44.6037 H         1 UNK         0.3000 
    180 H180       -4.1952  -16.9047  -43.9323 H         1 UNK         0.0600 
    181 H181       -4.6692  -13.9276  -44.4832 H         1 UNK         0.0600 
    182 H182       -5.4193  -14.8838  -43.2148 H         1 UNK         0.0600 
    183 H183       -5.7765  -15.2363  -44.8985 H         1 UNK         0.0600 
    184 H184       -3.4665  -15.2744  -46.2333 H         1 UNK         0.3000 
    185 H185       -0.9778  -17.4037  -47.4539 H         1 UNK         0.0600 
    186 H186       -2.7783  -18.9017  -48.1445 H         1 UNK         0.0600 
    187 H187       -3.8785  -17.5530  -48.4073 H         1 UNK         0.0600 
    188 H188       -2.4697  -17.7724  -49.4485 H         1 UNK         0.0600 
    189 H189       -2.6040  -15.3573  -48.6669 H         1 UNK         0.3000 
    190 H190       -1.2007  -23.0067  -46.6648 H         1 UNK         0.3000 
    191 H191       -1.9207  -20.5993  -45.0496 H         1 UNK         0.0600 
    192 H192       -3.3872  -22.1374  -43.7631 H         1 UNK         0.0600 
    193 H193       -1.7185  -22.6741  -43.6669 H         1 UNK         0.0600 
    194 H194       -2.8504  -23.5058  -44.7315 H         1 UNK         0.0600 
    195 H195       -3.9213  -19.7197  -45.3777 H         1 UNK         0.3000 
    196 H196       -5.1673  -19.8209  -47.8859 H         1 UNK         0.0600 
    197 H197       -6.9461  -18.4375  -46.7461 H         1 UNK         0.0600 
    198 H198       -5.3300  -17.8633  -46.3982 H         1 UNK         0.0600 
    199 H199       -6.2093  -18.7957  -45.1892 H         1 UNK         0.0600 
    200 H200       -5.7745  -21.8223  -45.0783 H         1 UNK         0.3000 
    201 H201       -8.3686  -22.7862  -45.6414 H         1 UNK         0.0600 
    202 H202       -7.2243  -23.0828  -43.4590 H         1 UNK         0.0600 
    203 H203       -6.0155  -24.1309  -44.2028 H         1 UNK         0.0600 
    204 H204       -7.6952  -24.6463  -44.1043 H         1 UNK         0.0600 
    205 H205       -5.3121  -23.5563  -47.1818 H         1 UNK         0.3000 
    206 H206       -6.3145  -25.9949  -48.5069 H         1 UNK         0.0600 
    207 H207       -3.9515  -25.8470  -47.6890 H         1 UNK         0.0600 
    208 H208       -4.0177  -26.0628  -49.4297 H         1 UNK         0.0600 
    209 H209       -3.6625  -24.4766  -48.7590 H         1 UNK         0.0600 
    210 H210       -6.9151  -22.7680  -48.9694 H         1 UNK         0.3000 
    211 H211       -7.5328  -21.4002  -50.5678 H         1 UNK         0.0600 
    212 H212       -7.7411  -23.7616  -52.5070 H         1 UNK         0.0600 
    213 H213       -8.5077  -22.1906  -52.6651 H         1 UNK         0.0600 
    214 H214       -9.0066  -23.2759  -51.3779 H         1 UNK         0.0600 
    215 H215       -4.7086  -22.1705  -50.1410 H         1 UNK         0.3000 
    216 H216       -3.1830  -22.3131  -52.4455 H         1 UNK         0.0600 
    217 H217       -2.4740  -21.2427  -49.6793 H         1 UNK         0.0600 
    218 H218       -1.2982  -21.6684  -50.9282 H         1 UNK         0.0600 
    219 H219       -2.3331  -22.9071  -50.2372 H         1 UNK         0.0600 
    220 H220       -4.5586  -19.4159  -51.0297 H         1 UNK         0.3000 
    221 H221       -2.9946  -17.3876  -52.1783 H         1 UNK         0.0600 
    222 H222       -6.0091  -17.4608  -51.6214 H         1 UNK         0.0600 
    223 H223       -4.7554  -16.9565  -50.4903 H         1 UNK         0.0600 
    224 H224       -5.0717  -16.0039  -51.9272 H         1 UNK         0.0600 
    225 H225       -5.4297  -19.4658  -53.6609 H         1 UNK         0.3000 
    226 H226       -5.0461  -18.1562  -56.3257 H         1 UNK         0.0600 
    227 H227       -7.4199  -18.3777  -55.6519 H         1 UNK         0.0600 
    228 H228       -7.0594  -19.4680  -56.9817 H         1 UNK         0.0600 
    229 H229       -7.2062  -20.0996  -55.3449 H         1 UNK         0.0600 
    230 H230       -5.1294  -21.3371  -54.6054 H         1 UNK         0.3000 
    231 H231       -4.5048  -22.8311  -56.8934 H         1 UNK         0.0600 
    232 H232       -4.3422  -24.7328  -55.3151 H         1 UNK         0.0600 
    233 H233       -5.7255  -23.7202  -54.9334 H         1 UNK         0.0600 
    234 H234       -4.2689  -23.6309  -53.9496 H         1 UNK         0.0600 
    235 H235       -2.2219  -21.3838  -54.5568 H         1 UNK         0.3000 
    236 H236        0.0076  -23.0421  -55.5660 H         1 UNK         0.0600 
    237 H237        0.0791  -20.7935  -53.4977 H         1 UNK         0.0600 
    238 H238       -0.2034  -22.4918  -53.1109 H         1 UNK         0.0600 
    239 H239        1.3184  -21.9867  -53.8284 H         1 UNK         0.0600 
    240 H240       -1.1015  -19.6251  -55.6038 H         1 UNK         0.3000 
    241 H241        1.1999  -18.8100  -57.2257 H         1 UNK         0.0600 
    242 H242       -2.1233  -19.8034  -58.0777 H         1 UNK         0.3800 
    243 H243       -1.9383  -19.3018  -59.7340 H         1 UNK         0.3800 
    244 H244        0.2745  -16.5060  -57.0164 H         1 UNK         0.0800 
    245 H245       -1.1045  -17.1337  -56.1523 H         1 UNK         0.0800 
    246 H246       -1.1186  -17.7638  -53.7339 H         1 UNK         0.0800 
    247 H247       -0.8804  -16.0328  -53.7741 H         1 UNK         0.0800 
@<TRIPOS>BOND
     1    1    2 1    
     2    1  127 1    
     3    1  128 1    
     4    1  129 1    
     5    2    3 2    
     6    2    4 am   BACKBONE|DICT|INTERRES
     7    4    5 1    
     8    4  130 1    
     9    5    6 1    
    10    5   65 1    
    11    5  131 1    
    12    6    7 1    
    13    6  132 1    
    14    6  133 1    
    15    7    8 1    
    16    8    9 1    
    17    8  134 1    
    18    8  135 1    
    19    9   10 ar   
    20    9   14 ar   
    21   10   11 ar   
    22   10  136 1    
    23   11   12 ar   
    24   11  126 1    
    25   12   13 ar   
    26   12  137 1    
    27   13   14 ar   
    28   13   15 1    
    29   14  138 1    
    30   15   16 1    
    31   15  139 1    
    32   15  140 1    
    33   16   17 1    
    34   17   18 1    
    35   17  141 1    
    36   17  142 1    
    37   18   19 1    
    38   18   67 1    
    39   18  143 1    
    40   19   20 am   BACKBONE|DICT|INTERRES
    41   19  144 1    
    42   20   21 2    
    43   20   22 1    
    44   22   23 1    
    45   22   24 1    
    46   22  145 1    
    47   23  146 1    
    48   23  147 1    
    49   23  148 1    
    50   24   25 am   BACKBONE|DICT|INTERRES
    51   24  149 1    
    52   25   26 2    
    53   25   27 1    
    54   27   28 1    
    55   27   29 1    
    56   27  150 1    
    57   28  151 1    
    58   28  152 1    
    59   28  153 1    
    60   29   30 am   BACKBONE|DICT|INTERRES
    61   29  154 1    
    62   30   31 2    
    63   30   32 1    
    64   32   33 1    
    65   32   34 1    
    66   32  155 1    
    67   33  156 1    
    68   33  157 1    
    69   33  158 1    
    70   34   35 am   BACKBONE|DICT|INTERRES
    71   34  159 1    
    72   35   36 2    
    73   35   37 1    
    74   37   38 1    
    75   37   39 1    
    76   37  160 1    
    77   38  161 1    
    78   38  162 1    
    79   38  163 1    
    80   39   40 am   BACKBONE|DICT|INTERRES
    81   39  164 1    
    82   40   41 2    
    83   40   42 1    
    84   42   43 1    
    85   42   44 1    
    86   42  165 1    
    87   43  166 1    
    88   43  167 1    
    89   43  168 1    
    90   44   45 am   BACKBONE|DICT|INTERRES
    91   44  169 1    
    92   45   46 2    
    93   45   47 1    
    94   47   48 1    
    95   47   49 1    
    96   47  170 1    
    97   48  171 1    
    98   48  172 1    
    99   48  173 1    
   100   49   50 am   BACKBONE|DICT|INTERRES
   101   49  174 1    
   102   50   51 2    
   103   50   52 1    
   104   52   53 1    
   105   52   54 1    
   106   52  175 1    
   107   53  176 1    
   108   53  177 1    
   109   53  178 1    
   110   54   55 am   BACKBONE|DICT|INTERRES
   111   54  179 1    
   112   55   56 2    
   113   55   57 1    
   114   57   58 1    
   115   57   59 1    
   116   57  180 1    
   117   58  181 1    
   118   58  182 1    
   119   58  183 1    
   120   59   60 am   BACKBONE|DICT|INTERRES
   121   59  184 1    
   122   60   61 2    
   123   60   62 1    
   124   62   63 1    
   125   62   64 1    
   126   62  185 1    
   127   63  186 1    
   128   63  187 1    
   129   63  188 1    
   130   64   65 am   BACKBONE|DICT|INTERRES
   131   64  189 1    
   132   65   66 2    
   133   67   68 2    
   134   67   69 am   BACKBONE|DICT|INTERRES
   135   69   70 1    
   136   69  190 1    
   137   70   71 1    
   138   70   72 1    
   139   70  191 1    
   140   71  192 1    
   141   71  193 1    
   142   71  194 1    
   143   72   73 2    
   144   72   74 am   BACKBONE|DICT|INTERRES
   145   74   75 1    
   146   74  195 1    
   147   75   76 1    
   148   75   77 1    
   149   75  196 1    
   150   76  197 1    
   151   76  198 1    
   152   76  199 1    
   153   77   78 2    
   154   77   79 am   BACKBONE|DICT|INTERRES
   155   79   80 1    
   156   79  200 1    
   157   80   81 1    
   158   80   82 1    
   159   80  201 1    
   160   81  202 1    
   161   81  203 1    
   162   81  204 1    
   163   82   83 2    
   164   82   84 am   BACKBONE|DICT|INTERRES
   165   84   85 1    
   166   84  205 1    
   167   85   86 1    
   168   85   87 1    
   169   85  206 1    
   170   86  207 1    
   171   86  208 1    
   172   86  209 1    
   173   87   88 2    
   174   87   89 am   BACKBONE|DICT|INTERRES
   175   89   90 1    
   176   89  210 1    
   177   90   91 1    
   178   90   92 1    
   179   90  211 1    
   180   91  212 1    
   181   91  213 1    
   182   91  214 1    
   183   92   93 2    
   184   92   94 am   BACKBONE|DICT|INTERRES
   185   94   95 1    
   186   94  215 1    
   187   95   96 1    
   188   95   97 1    
   189   95  216 1    
   190   96  217 1    
   191   96  218 1    
   192   96  219 1    
   193   97   98 2    
   194   97   99 am   BACKBONE|DICT|INTERRES
   195   99  100 1    
   196   99  220 1    
   197  100  101 1    
   198  100  102 1    
   199  100  221 1    
   200  101  222 1    
   201  101  223 1    
   202  101  224 1    
   203  102  103 2    
   204  102  104 am   BACKBONE|DICT|INTERRES
   205  104  105 1    
   206  104  225 1    
   207  105  106 1    
   208  105  107 1    
   209  105  226 1    
   210  106  227 1    
   211  106  228 1    
   212  106  229 1    
   213  107  108 2    
   214  107  109 am   BACKBONE|DICT|INTERRES
   215  109  110 1    
   216  109  230 1    
   217  110  111 1    
   218  110  112 1    
   219  110  231 1    
   220  111  232 1    
   221  111  233 1    
   222  111  234 1    
   223  112  113 2    
   224  112  114 am   BACKBONE|DICT|INTERRES
   225  114  115 1    
   226  114  235 1    
   227  115  116 1    
   228  115  117 1    
   229  115  236 1    
   230  116  237 1    
   231  116  238 1    
   232  116  239 1    
   233  117  118 2    
   234  117  119 am   BACKBONE|DICT|INTERRES
   235  119  120 1    
   236  119  240 1    
   237  120  121 1    
   238  120  124 1    
   239  120  241 1    
   240  121  122 am   BACKBONE|DICT|INTERRES
   241  121  123 2    
   242  122  242 1    
   243  122  243 1    
   244  124  125 1    
   245  124  244 1    
   246  124  245 1    
   247  125  126 1    
   248  126  246 1    
   249  126  247 1    
@<TRIPOS>SUBSTRUCTURE
     1 UNK         1 GROUP             0       ****    0 ROOT    
