@<TRIPOS>MOLECULE
3R540
247   249    1
SMALL
USER_CHARGES


@<TRIPOS>ATOM
      1 CA          5.6438  -18.8367  -50.1777 C.3       0 UNK        -0.1800 
      2 C           4.7962  -17.6594  -49.7164 C.2       0 UNK         0.5000 
      3 O           4.2168  -17.7133  -48.6319 O.2       0 UNK        -0.5000 
      4 N           4.7210  -16.6050  -50.5387 N.am      1 UNK        -0.5000 
      5 CA          3.9499  -15.3836  -50.2828 C.3       1 UNK         0.1400 
      6 C6          3.9246  -14.4307  -51.5061 C.3       23 UNK        -0.0398 
      7 S7          3.4012  -15.2337  -53.0596 S.3       23 UNK        -0.2404 
      8 C8          1.6106  -14.9026  -53.0647 C.3       23 UNK        -0.0205 
      9 C9          0.8851  -15.6653  -51.9663 C.ar      23 UNK        -0.0193 
     10 C10         0.2247  -14.9798  -50.9420 C.ar      23 UNK        -0.1150 
     11 C11        -0.4600  -15.6834  -49.9466 C.ar      23 UNK        -0.0193 
     12 C12        -0.4663  -17.0816  -49.9711 C.ar      23 UNK        -0.1150 
     13 C13         0.2118  -17.7771  -50.9751 C.ar      23 UNK        -0.0193 
     14 C14         0.8734  -17.0631  -51.9765 C.ar      23 UNK        -0.1150 
     15 C15         0.2243  -19.2975  -50.9924 C.3       23 UNK        -0.0205 
     16 S16         1.6999  -19.9722  -50.1644 S.3       23 UNK        -0.2404 
     17 C17         1.2134  -19.8921  -48.4053 C.3       23 UNK        -0.0398 
     18 CA          0.7822  -21.2652  -47.8361 C.3       11 UNK         0.1400 
     19 N           0.7050  -21.2476  -46.3730 N.am      11 UNK        -0.5000 
     20 C           0.5152  -22.3306  -45.6058 C.2       10 UNK         0.5000 
     21 O           0.4457  -23.4771  -46.0462 O.2       10 UNK        -0.5000 
     22 CA          0.3148  -22.0929  -44.0989 C.3       10 UNK         0.1400 
     23 CB          1.6641  -21.9121  -43.3888 C.3       10 UNK        -0.1800 
     24 N          -0.5611  -20.9533  -43.8184 N.am      10 UNK        -0.5000 
     25 C          -1.8505  -20.8878  -44.1820 C.2       9 UNK         0.5000 
     26 O          -2.4420  -21.7996  -44.7565 O.2       9 UNK        -0.5000 
     27 CA         -2.6021  -19.5777  -43.8952 C.3       9 UNK         0.1400 
     28 CB         -3.0817  -19.5360  -42.4371 C.3       9 UNK        -0.1800 
     29 N          -1.8044  -18.3892  -44.1922 N.am      9 UNK        -0.5000 
     30 C          -1.3648  -18.0486  -45.4128 C.2       8 UNK         0.5000 
     31 O          -1.6193  -18.6829  -46.4388 O.2       8 UNK        -0.5000 
     32 CA         -0.4409  -16.8189  -45.4859 C.3       8 UNK         0.1400 
     33 CB         -1.2382  -15.5169  -45.3073 C.3       8 UNK        -0.1800 
     34 N           0.6245  -16.8644  -44.4852 N.am      8 UNK        -0.5000 
     35 C           1.5470  -17.8307  -44.3806 C.2       7 UNK         0.5000 
     36 O           1.6523  -18.7674  -45.1724 O.2       7 UNK        -0.5000 
     37 CA          2.4646  -17.7727  -43.1466 C.3       7 UNK         0.1400 
     38 CB          3.6360  -16.8066  -43.3626 C.3       7 UNK        -0.1800 
     39 N           1.7360  -17.3864  -41.9387 N.am      7 UNK        -0.5000 
     40 C           0.8569  -18.1730  -41.3041 C.2       6 UNK         0.5000 
     41 O           0.5751  -19.3145  -41.6656 O.2       6 UNK        -0.5000 
     42 CA          0.1495  -17.5663  -40.0796 C.3       6 UNK         0.1400 
     43 CB          1.0532  -17.6342  -38.8394 C.3       6 UNK        -0.1800 
     44 N          -0.2701  -16.1821  -40.3021 N.am      6 UNK        -0.5000 
     45 C          -1.2152  -15.8155  -41.1784 C.2       5 UNK         0.5000 
     46 O          -1.8365  -16.6073  -41.8856 O.2       5 UNK        -0.5000 
     47 CA         -1.4874  -14.3073  -41.3152 C.3       5 UNK         0.1400 
     48 CB         -2.4804  -13.8401  -40.2406 C.3       5 UNK        -0.1800 
     49 N          -0.2833  -13.4738  -41.2591 N.am      5 UNK        -0.5000 
     50 C           0.7545  -13.5621  -42.1012 C.2       4 UNK         0.5000 
     51 O           0.8783  -14.4398  -42.9579 O.2       4 UNK        -0.5000 
     52 CA          1.8535  -12.4983  -41.9502 C.3       4 UNK         0.1400 
     53 CB          3.1247  -13.1136  -41.3452 C.3       4 UNK        -0.1800 
     54 N           2.1763  -11.8971  -43.2429 N.am      4 UNK        -0.5000 
     55 C           1.3639  -11.0851  -43.9358 C.2       3 UNK         0.5000 
     56 O           0.2690  -10.7017  -43.5215 O.2       3 UNK        -0.5000 
     57 CA          1.8588  -10.6019  -45.3133 C.3       3 UNK         0.1400 
     58 CB          2.4110   -9.1712  -45.2112 C.3       3 UNK        -0.1800 
     59 N           2.8963  -11.4698  -45.8749 N.am      3 UNK        -0.5000 
     60 C           2.6504  -12.5842  -46.5732 C.2       2 UNK         0.5000 
     61 O           1.5221  -12.9813  -46.8744 O.2       2 UNK        -0.5000 
     62 CA          3.8781  -13.4050  -46.9819 C.3       2 UNK         0.1400 
     63 CB          4.2611  -14.3905  -45.8654 C.3       2 UNK        -0.1800 
     64 N           3.5736  -14.1408  -48.2026 N.am      2 UNK        -0.5000 
     65 C           4.4847  -14.6298  -49.0484 C.2       1 UNK         0.5000 
     66 O           5.7018  -14.4840  -48.9036 O.2       1 UNK        -0.5000 
     67 C          -0.5355  -21.7683  -48.4647 C.2       11 UNK         0.5000 
     68 O          -0.5007  -22.6558  -49.3184 O.2       11 UNK        -0.5000 
     69 N          -1.6729  -21.2290  -48.0007 N.am      12 UNK        -0.5000 
     70 CA         -3.0107  -21.6414  -48.4278 C.3       12 UNK         0.1400 
     71 CB         -4.0620  -20.7235  -47.7882 C.3       12 UNK        -0.1800 
     72 C          -3.3077  -23.1206  -48.1176 C.2       12 UNK         0.5000 
     73 O          -3.8346  -23.8231  -48.9796 O.2       12 UNK        -0.5000 
     74 N          -2.9295  -23.5738  -46.9140 N.am      13 UNK        -0.5000 
     75 CA         -3.0493  -24.9600  -46.4630 C.3       13 UNK         0.1400 
     76 CB         -2.7328  -25.0482  -44.9629 C.3       13 UNK        -0.1800 
     77 C          -2.1642  -25.9302  -47.2640 C.2       13 UNK         0.5000 
     78 O          -2.6342  -27.0082  -47.6270 O.2       13 UNK        -0.5000 
     79 N          -0.9223  -25.5252  -47.5681 N.am      14 UNK        -0.5000 
     80 CA          0.0160  -26.2785  -48.4068 C.3       14 UNK         0.1400 
     81 CB          1.3963  -25.6054  -48.3729 C.3       14 UNK        -0.1800 
     82 C          -0.4761  -26.4420  -49.8579 C.2       14 UNK         0.5000 
     83 O          -0.2600  -27.4935  -50.4608 O.2       14 UNK        -0.5000 
     84 N          -1.1708  -25.4186  -50.3705 N.am      15 UNK        -0.5000 
     85 CA         -1.8547  -25.4246  -51.6642 C.3       15 UNK         0.1400 
     86 CB         -1.9670  -23.9742  -52.1573 C.3       15 UNK        -0.1800 
     87 C          -3.2445  -26.0998  -51.6204 C.2       15 UNK         0.5000 
     88 O          -3.9262  -26.1338  -52.6464 O.2       15 UNK        -0.5000 
     89 N          -3.6643  -26.5898  -50.4417 N.am      16 UNK        -0.5000 
     90 CA         -4.9471  -27.2382  -50.1348 C.3       16 UNK         0.1400 
     91 CB         -5.0306  -28.6101  -50.8349 C.3       16 UNK        -0.1800 
     92 C          -6.1798  -26.3528  -50.4240 C.2       16 UNK         0.5000 
     93 O          -7.2693  -26.8763  -50.6627 O.2       16 UNK        -0.5000 
     94 N          -5.9722  -25.0273  -50.4319 N.am      17 UNK        -0.5000 
     95 CA         -6.8973  -23.9642  -50.8341 C.3       17 UNK         0.1400 
     96 CB         -8.0373  -23.8234  -49.8060 C.3       17 UNK        -0.1800 
     97 C          -7.4174  -24.0821  -52.2873 C.2       17 UNK         0.5000 
     98 O          -8.4166  -23.4447  -52.6236 O.2       17 UNK        -0.5000 
     99 N          -6.7397  -24.8751  -53.1326 N.am      18 UNK        -0.5000 
    100 CA        -7.1024  -25.0946  -54.5357 C.3       18 UNK         0.1400 
    101 CB        -6.4169  -26.3741  -55.0382 C.3       18 UNK        -0.1800 
    102 C         -6.7358  -23.8956  -55.4289 C.2       18 UNK         0.5000 
    103 O         -7.4016  -23.6518  -56.4360 O.2       18 UNK        -0.5000 
    104 N         -5.6963  -23.1627  -55.0246 N.am      19 UNK        -0.5000 
    105 CA        -5.2220  -21.9159  -55.6028 C.3       19 UNK         0.1400 
    106 CB        -4.3244  -22.2049  -56.8186 C.3       19 UNK        -0.1800 
    107 C         -4.4498  -21.1775  -54.5023 C.2       19 UNK         0.5000 
    108 O         -3.9857  -21.8193  -53.5565 O.2       19 UNK        -0.5000 
    109 N         -4.3261  -19.8509  -54.6443 N.am      20 UNK        -0.5000 
    110 CA        -3.5873  -18.9454  -53.7532 C.3       20 UNK         0.1400 
    111 CB        -2.0689  -19.1636  -53.9077 C.3       20 UNK        -0.1800 
    112 C         -4.0519  -19.0077  -52.2807 C.2       20 UNK         0.5000 
    113 O         -3.2337  -18.9294  -51.3623 O.2       20 UNK        -0.5000 
    114 N         -5.3720  -19.1242  -52.0751 N.am      21 UNK        -0.5000 
    115 CA        -6.0375  -19.1967  -50.7696 C.3       21 UNK         0.1400 
    116 CB        -7.4188  -19.8499  -50.9554 C.3       21 UNK        -0.1800 
    117 C         -6.1110  -17.8217  -50.0632 C.2       21 UNK         0.5000 
    118 O         -7.1805  -17.3988  -49.6215 O.2       21 UNK        -0.5000 
    119 N         -4.9669  -17.1344  -50.0125 N.am      22 UNK        -0.5000 
    120 CA        -4.7812  -15.7761  -49.4852 C.3       22 UNK         0.1400 
    121 C         -4.6851  -15.7241  -47.9295 C.2       22 UNK         0.5000 
    122 N         -4.3247  -16.8078  -47.2518 N.am      22 UNK        -0.7600 
    123 O         -4.9867  -14.6997  -47.3236 O.2       22 UNK        -0.5000 
    124 C124       -3.6340  -15.0694  -50.2794 C.3       23 UNK        -0.0398 
    125 S125       -2.5376  -13.8697  -49.4370 S.3       23 UNK        -0.2404 
    126 C126       -1.1915  -14.9434  -48.8362 C.3       23 UNK        -0.0205 
    127 H127        6.0878  -18.6583  -51.1574 H         1 UNK         0.0600 
    128 H128        6.4490  -19.0212  -49.4667 H         1 UNK         0.0600 
    129 H129        5.0304  -19.7357  -50.2414 H         1 UNK         0.0600 
    130 H130        5.2243  -16.6205  -51.4135 H         1 UNK         0.3000 
    131 H131        2.9276  -15.6988  -50.0674 H         1 UNK         0.0600 
    132 H132        4.9182  -14.0131  -51.6803 H         1 UNK         0.0800 
    133 H133        3.2718  -13.5778  -51.3116 H         1 UNK         0.0800 
    134 H134        1.4379  -13.8286  -52.9800 H         1 UNK         0.0800 
    135 H135        1.2007  -15.2029  -54.0299 H         1 UNK         0.0800 
    136 H136        0.2290  -13.8990  -50.9232 H         1 UNK         0.1150 
    137 H137       -1.0006  -17.6304  -49.2083 H         1 UNK         0.1150 
    138 H138        1.3927  -17.5962  -52.7605 H         1 UNK         0.1150 
    139 H139       -0.6851  -19.6934  -50.5383 H         1 UNK         0.0800 
    140 H140        0.2207  -19.6499  -52.0242 H         1 UNK         0.0800 
    141 H141        0.4378  -19.1431  -48.2509 H         1 UNK         0.0800 
    142 H142        2.0832  -19.5273  -47.8568 H         1 UNK         0.0800 
    143 H143        1.5585  -21.9886  -48.0947 H         1 UNK         0.0600 
    144 H144        0.7985  -20.3411  -45.9225 H         1 UNK         0.3000 
    145 H145       -0.1632  -22.9835  -43.6861 H         1 UNK         0.0600 
    146 H146        1.5339  -21.8293  -42.3098 H         1 UNK         0.0600 
    147 H147        2.3181  -22.7655  -43.5719 H         1 UNK         0.0600 
    148 H148        2.1859  -21.0199  -43.7336 H         1 UNK         0.0600 
    149 H149       -0.1563  -20.1857  -43.2917 H         1 UNK         0.3000 
    150 H150       -3.4826  -19.5539  -44.5403 H         1 UNK         0.0600 
    151 H151       -3.6814  -20.4148  -42.1969 H         1 UNK         0.0600 
    152 H152       -3.7025  -18.6592  -42.2525 H         1 UNK         0.0600 
    153 H153       -2.2451  -19.5067  -41.7384 H         1 UNK         0.0600 
    154 H154       -1.5845  -17.7877  -43.4031 H         1 UNK         0.3000 
    155 H155        0.0238  -16.8097  -46.4739 H         1 UNK         0.0600 
    156 H156       -0.6221  -14.6460  -45.5333 H         1 UNK         0.0600 
    157 H157       -1.6040  -15.4078  -44.2880 H         1 UNK         0.0600 
    158 H158       -2.1097  -15.4822  -45.9594 H         1 UNK         0.0600 
    159 H159        0.6452  -16.0991  -43.8154 H         1 UNK         0.3000 
    160 H160        2.8783  -18.7714  -42.9932 H         1 UNK         0.0600 
    161 H161        3.2903  -15.7780  -43.4583 H         1 UNK         0.0600 
    162 H162        4.1901  -17.0596  -44.2674 H         1 UNK         0.0600 
    163 H163        4.3380  -16.8464  -42.5296 H         1 UNK         0.0600 
    164 H164        1.8635  -16.4399  -41.6130 H         1 UNK         0.3000 
    165 H165       -0.7434  -18.1637  -39.8830 H         1 UNK         0.0600 
    166 H166        1.9531  -17.0299  -38.9603 H         1 UNK         0.0600 
    167 H167        0.5293  -17.2822  -37.9506 H         1 UNK         0.0600 
    168 H168        1.3699  -18.6596  -38.6438 H         1 UNK         0.0600 
    169 H169        0.1956  -15.4658  -39.7647 H         1 UNK         0.3000 
    170 H170       -1.9488  -14.1453  -42.2910 H         1 UNK         0.0600 
    171 H171       -3.3962  -14.4322  -40.2712 H         1 UNK         0.0600 
    172 H172       -2.0629  -13.9330  -39.2372 H         1 UNK         0.0600 
    173 H173       -2.7645  -12.7985  -40.3916 H         1 UNK         0.0600 
    174 H174       -0.2941  -12.7255  -40.5812 H         1 UNK         0.3000 
    175 H175        1.5015  -11.7090  -41.2825 H         1 UNK         0.0600 
    176 H176        3.8900  -12.3544  -41.1828 H         1 UNK         0.0600 
    177 H177        2.9150  -13.5739  -40.3788 H         1 UNK         0.0600 
    178 H178        3.5496  -13.8828  -41.9904 H         1 UNK         0.0600 
    179 H179        3.0407  -12.1878  -43.6716 H         1 UNK         0.3000 
    180 H180        0.9983  -10.5851  -45.9859 H         1 UNK         0.0600 
    181 H181        3.2747   -9.1180  -44.5472 H         1 UNK         0.0600 
    182 H182        1.6554   -8.4875  -44.8219 H         1 UNK         0.0600 
    183 H183        2.7142   -8.7951  -46.1885 H         1 UNK         0.0600 
    184 H184        3.8530  -11.2060  -45.6862 H         1 UNK         0.3000 
    185 H185        4.7076  -12.7195  -47.1693 H         1 UNK         0.0600 
    186 H186        5.1686  -14.9417  -46.1123 H         1 UNK         0.0600 
    187 H187        4.4409  -13.8752  -44.9214 H         1 UNK         0.0600 
    188 H188        3.4640  -15.1165  -45.7036 H         1 UNK         0.0600 
    189 H189        2.5835  -14.2539  -48.3814 H         1 UNK         0.3000 
    190 H190       -1.6226  -20.4872  -47.3087 H         1 UNK         0.3000 
    191 H191       -3.0652  -21.5144  -49.5115 H         1 UNK         0.0600 
    192 H192       -3.9242  -19.6920  -48.1102 H         1 UNK         0.0600 
    193 H193       -5.0711  -21.0264  -48.0699 H         1 UNK         0.0600 
    194 H194       -4.0084  -20.7442  -46.7000 H         1 UNK         0.0600 
    195 H195       -2.5557  -22.9108  -46.2385 H         1 UNK         0.3000 
    196 H196       -4.0878  -25.2653  -46.6074 H         1 UNK         0.0600 
    197 H197       -2.8322  -26.0724  -44.6013 H         1 UNK         0.0600 
    198 H198       -3.4152  -24.4298  -44.3796 H         1 UNK         0.0600 
    199 H199       -1.7161  -24.7197  -44.7461 H         1 UNK         0.0600 
    200 H200       -0.5839  -24.6452  -47.1877 H         1 UNK         0.3000 
    201 H201        0.1159  -27.2779  -47.9785 H         1 UNK         0.0600 
    202 H202        1.7911  -25.5680  -47.3576 H         1 UNK         0.0600 
    203 H203        1.3565  -24.5847  -48.7540 H         1 UNK         0.0600 
    204 H204        2.1153  -26.1559  -48.9810 H         1 UNK         0.0600 
    205 H205       -1.2500  -24.5672  -49.8238 H         1 UNK         0.3000 
    206 H206       -1.2482  -25.9792  -52.3827 H         1 UNK         0.0600 
    207 H207       -0.9911  -23.4896  -52.1930 H         1 UNK         0.0600 
    208 H208       -2.3830  -23.9364  -53.1645 H         1 UNK         0.0600 
    209 H209       -2.6117  -23.3769  -51.5112 H         1 UNK         0.0600 
    210 H210       -3.0441  -26.4921  -49.6472 H         1 UNK         0.3000 
    211 H211       -4.9506  -27.4142  -49.0586 H         1 UNK         0.0600 
    212 H212       -5.0999  -28.5072  -51.9184 H         1 UNK         0.0600 
    213 H213       -5.9062  -29.1688  -50.5026 H         1 UNK         0.0600 
    214 H214       -4.1553  -29.2199  -50.6109 H         1 UNK         0.0600 
    215 H215       -5.0525  -24.7025  -50.1408 H         1 UNK         0.3000 
    216 H216       -6.3131  -23.0434  -50.8036 H         1 UNK         0.0600 
    217 H217       -7.6436  -23.7133  -48.7956 H         1 UNK         0.0600 
    218 H218       -8.6994  -24.6896  -49.8166 H         1 UNK         0.0600 
    219 H219       -8.6465  -22.9425  -50.0119 H         1 UNK         0.0600 
    220 H220       -5.9110  -25.3555  -52.7988 H         1 UNK         0.3000 
    221 H221       -8.1829  -25.2406  -54.5972 H         1 UNK         0.0600 
    222 H222       -5.3303  -26.2817  -55.0217 H         1 UNK         0.0600 
    223 H223       -6.6890  -27.2342  -54.4258 H         1 UNK         0.0600 
    224 H224       -6.7117  -26.5973  -56.0643 H         1 UNK         0.0600 
    225 H225       -5.2206  -23.4132  -54.1657 H         1 UNK         0.3000 
    226 H226       -6.0769  -21.3072  -55.9044 H         1 UNK         0.0600 
    227 H227       -4.8722  -22.7327  -57.5993 H         1 UNK         0.0600 
    228 H228       -3.9472  -21.2799  -57.2561 H         1 UNK         0.0600 
    229 H229       -3.4627  -22.8147  -56.5437 H         1 UNK         0.0600 
    230 H230       -4.7534  -19.4134  -55.4490 H         1 UNK         0.3000 
    231 H231       -3.8074  -17.9327  -54.0936 H         1 UNK         0.0600 
    232 H232       -1.5105  -18.3972  -53.3698 H         1 UNK         0.0600 
    233 H233       -1.7652  -19.1090  -54.9529 H         1 UNK         0.0600 
    234 H234       -1.7597  -20.1341  -53.5180 H         1 UNK         0.0600 
    235 H235       -5.9753  -19.1526  -52.8837 H         1 UNK         0.3000 
    236 H236       -5.4495  -19.8547  -50.1295 H         1 UNK         0.0600 
    237 H237       -7.9117  -20.0049  -49.9948 H         1 UNK         0.0600 
    238 H238       -8.0765  -19.2323  -51.5681 H         1 UNK         0.0600 
    239 H239       -7.3345  -20.8247  -51.4355 H         1 UNK         0.0600 
    240 H240       -4.1428  -17.5907  -50.3945 H         1 UNK         0.3000 
    241 H241       -5.6932  -15.2207  -49.7141 H         1 UNK         0.0600 
    242 H242       -4.0744  -17.6568  -47.7296 H         1 UNK         0.3800 
    243 H243       -4.3066  -16.7718  -46.2463 H         1 UNK         0.3800 
    244 H244       -2.9912  -15.8143  -50.7487 H         1 UNK         0.0800 
    245 H245       -4.0795  -14.5427  -51.1241 H         1 UNK         0.0800 
    246 H246       -0.4769  -14.3408  -48.2742 H         1 UNK         0.0800 
    247 H247       -1.6160  -15.6590  -48.1344 H         1 UNK         0.0800 
@<TRIPOS>BOND
     1    1    2 1    
     2    1  127 1    
     3    1  128 1    
     4    1  129 1    
     5    2    3 2    
     6    2    4 am   BACKBONE|DICT|INTERRES
     7    4    5 1    
     8    4  130 1    
     9    5    6 1    
    10    5   65 1    
    11    5  131 1    
    12    6    7 1    
    13    6  132 1    
    14    6  133 1    
    15    7    8 1    
    16    8    9 1    
    17    8  134 1    
    18    8  135 1    
    19    9   10 ar   
    20    9   14 ar   
    21   10   11 ar   
    22   10  136 1    
    23   11   12 ar   
    24   11  126 1    
    25   12   13 ar   
    26   12  137 1    
    27   13   14 ar   
    28   13   15 1    
    29   14  138 1    
    30   15   16 1    
    31   15  139 1    
    32   15  140 1    
    33   16   17 1    
    34   17   18 1    
    35   17  141 1    
    36   17  142 1    
    37   18   19 1    
    38   18   67 1    
    39   18  143 1    
    40   19   20 am   BACKBONE|DICT|INTERRES
    41   19  144 1    
    42   20   21 2    
    43   20   22 1    
    44   22   23 1    
    45   22   24 1    
    46   22  145 1    
    47   23  146 1    
    48   23  147 1    
    49   23  148 1    
    50   24   25 am   BACKBONE|DICT|INTERRES
    51   24  149 1    
    52   25   26 2    
    53   25   27 1    
    54   27   28 1    
    55   27   29 1    
    56   27  150 1    
    57   28  151 1    
    58   28  152 1    
    59   28  153 1    
    60   29   30 am   BACKBONE|DICT|INTERRES
    61   29  154 1    
    62   30   31 2    
    63   30   32 1    
    64   32   33 1    
    65   32   34 1    
    66   32  155 1    
    67   33  156 1    
    68   33  157 1    
    69   33  158 1    
    70   34   35 am   BACKBONE|DICT|INTERRES
    71   34  159 1    
    72   35   36 2    
    73   35   37 1    
    74   37   38 1    
    75   37   39 1    
    76   37  160 1    
    77   38  161 1    
    78   38  162 1    
    79   38  163 1    
    80   39   40 am   BACKBONE|DICT|INTERRES
    81   39  164 1    
    82   40   41 2    
    83   40   42 1    
    84   42   43 1    
    85   42   44 1    
    86   42  165 1    
    87   43  166 1    
    88   43  167 1    
    89   43  168 1    
    90   44   45 am   BACKBONE|DICT|INTERRES
    91   44  169 1    
    92   45   46 2    
    93   45   47 1    
    94   47   48 1    
    95   47   49 1    
    96   47  170 1    
    97   48  171 1    
    98   48  172 1    
    99   48  173 1    
   100   49   50 am   BACKBONE|DICT|INTERRES
   101   49  174 1    
   102   50   51 2    
   103   50   52 1    
   104   52   53 1    
   105   52   54 1    
   106   52  175 1    
   107   53  176 1    
   108   53  177 1    
   109   53  178 1    
   110   54   55 am   BACKBONE|DICT|INTERRES
   111   54  179 1    
   112   55   56 2    
   113   55   57 1    
   114   57   58 1    
   115   57   59 1    
   116   57  180 1    
   117   58  181 1    
   118   58  182 1    
   119   58  183 1    
   120   59   60 am   BACKBONE|DICT|INTERRES
   121   59  184 1    
   122   60   61 2    
   123   60   62 1    
   124   62   63 1    
   125   62   64 1    
   126   62  185 1    
   127   63  186 1    
   128   63  187 1    
   129   63  188 1    
   130   64   65 am   BACKBONE|DICT|INTERRES
   131   64  189 1    
   132   65   66 2    
   133   67   68 2    
   134   67   69 am   BACKBONE|DICT|INTERRES
   135   69   70 1    
   136   69  190 1    
   137   70   71 1    
   138   70   72 1    
   139   70  191 1    
   140   71  192 1    
   141   71  193 1    
   142   71  194 1    
   143   72   73 2    
   144   72   74 am   BACKBONE|DICT|INTERRES
   145   74   75 1    
   146   74  195 1    
   147   75   76 1    
   148   75   77 1    
   149   75  196 1    
   150   76  197 1    
   151   76  198 1    
   152   76  199 1    
   153   77   78 2    
   154   77   79 am   BACKBONE|DICT|INTERRES
   155   79   80 1    
   156   79  200 1    
   157   80   81 1    
   158   80   82 1    
   159   80  201 1    
   160   81  202 1    
   161   81  203 1    
   162   81  204 1    
   163   82   83 2    
   164   82   84 am   BACKBONE|DICT|INTERRES
   165   84   85 1    
   166   84  205 1    
   167   85   86 1    
   168   85   87 1    
   169   85  206 1    
   170   86  207 1    
   171   86  208 1    
   172   86  209 1    
   173   87   88 2    
   174   87   89 am   BACKBONE|DICT|INTERRES
   175   89   90 1    
   176   89  210 1    
   177   90   91 1    
   178   90   92 1    
   179   90  211 1    
   180   91  212 1    
   181   91  213 1    
   182   91  214 1    
   183   92   93 2    
   184   92   94 am   BACKBONE|DICT|INTERRES
   185   94   95 1    
   186   94  215 1    
   187   95   96 1    
   188   95   97 1    
   189   95  216 1    
   190   96  217 1    
   191   96  218 1    
   192   96  219 1    
   193   97   98 2    
   194   97   99 am   BACKBONE|DICT|INTERRES
   195   99  100 1    
   196   99  220 1    
   197  100  101 1    
   198  100  102 1    
   199  100  221 1    
   200  101  222 1    
   201  101  223 1    
   202  101  224 1    
   203  102  103 2    
   204  102  104 am   BACKBONE|DICT|INTERRES
   205  104  105 1    
   206  104  225 1    
   207  105  106 1    
   208  105  107 1    
   209  105  226 1    
   210  106  227 1    
   211  106  228 1    
   212  106  229 1    
   213  107  108 2    
   214  107  109 am   BACKBONE|DICT|INTERRES
   215  109  110 1    
   216  109  230 1    
   217  110  111 1    
   218  110  112 1    
   219  110  231 1    
   220  111  232 1    
   221  111  233 1    
   222  111  234 1    
   223  112  113 2    
   224  112  114 am   BACKBONE|DICT|INTERRES
   225  114  115 1    
   226  114  235 1    
   227  115  116 1    
   228  115  117 1    
   229  115  236 1    
   230  116  237 1    
   231  116  238 1    
   232  116  239 1    
   233  117  118 2    
   234  117  119 am   BACKBONE|DICT|INTERRES
   235  119  120 1    
   236  119  240 1    
   237  120  121 1    
   238  120  124 1    
   239  120  241 1    
   240  121  122 am   BACKBONE|DICT|INTERRES
   241  121  123 2    
   242  122  242 1    
   243  122  243 1    
   244  124  125 1    
   245  124  244 1    
   246  124  245 1    
   247  125  126 1    
   248  126  246 1    
   249  126  247 1    
@<TRIPOS>SUBSTRUCTURE
     1 UNK         1 GROUP             0       ****    0 ROOT    
