@<TRIPOS>MOLECULE
3R540
247   249    1
SMALL
USER_CHARGES


@<TRIPOS>ATOM
      1 CA          1.9550  -10.0286  -50.0030 C.3       0 UNK        -0.1800 
      2 C           2.8031  -11.2354  -49.6277 C.2       0 UNK         0.5000 
      3 O           3.7409  -11.1040  -48.8392 O.2       0 UNK        -0.5000 
      4 N           2.4800  -12.4082  -50.1889 N.am      1 UNK        -0.5000 
      5 CA          3.1253  -13.6931  -49.8993 C.3       1 UNK         0.1400 
      6 C6          2.6567  -14.8298  -50.8482 C.3       23 UNK        -0.0398 
      7 S7          0.8477  -14.9552  -51.1046 S.3       23 UNK        -0.2404 
      8 C8          0.3360  -16.1862  -49.8634 C.3       23 UNK        -0.0205 
      9 C9          0.7970  -17.5944  -50.1959 C.ar      23 UNK        -0.0193 
     10 C10         0.0724  -18.3755  -51.0978 C.ar      23 UNK        -0.1150 
     11 C11         0.4869  -19.6764  -51.4167 C.ar      23 UNK        -0.0193 
     12 C12         1.6390  -20.1840  -50.8050 C.ar      23 UNK        -0.1150 
     13 C13         2.3606  -19.4188  -49.8832 C.ar      23 UNK        -0.0193 
     14 C14         1.9326  -18.1245  -49.5833 C.ar      23 UNK        -0.1150 
     15 C15         3.6086  -19.9757  -49.2113 C.3       23 UNK        -0.0205 
     16 S16         3.2789  -21.4462  -48.1876 S.3       23 UNK        -0.2404 
     17 C17         1.9991  -20.8520  -47.0253 C.3       23 UNK        -0.0398 
     18 CA          1.0143  -21.9719  -46.6157 C.3       11 UNK         0.1400 
     19 N           0.2121  -21.5925  -45.4523 N.am      11 UNK        -0.5000 
     20 C          -0.5434  -22.4422  -44.7437 C.2       10 UNK         0.5000 
     21 O          -0.6153  -23.6494  -44.9768 O.2       10 UNK        -0.5000 
     22 CA         -1.3879  -21.8372  -43.6079 C.3       10 UNK         0.1400 
     23 CB         -0.5251  -21.5876  -42.3623 C.3       10 UNK        -0.1800 
     24 N          -2.0662  -20.5994  -43.9990 N.am      10 UNK        -0.5000 
     25 C          -3.0043  -20.5234  -44.9543 C.2       9 UNK         0.5000 
     26 O          -3.4076  -21.4944  -45.5906 O.2       9 UNK        -0.5000 
     27 CA         -3.5637  -19.1302  -45.2885 C.3       9 UNK         0.1400 
     28 CB         -4.6117  -18.6944  -44.2545 C.3       9 UNK        -0.1800 
     29 N          -2.5232  -18.1105  -45.3947 N.am      9 UNK        -0.5000 
     30 C          -1.5326  -18.1259  -46.2980 C.2       8 UNK         0.5000 
     31 O          -1.4005  -18.9908  -47.1630 O.2       8 UNK        -0.5000 
     32 CA         -0.4803  -17.0134  -46.1723 C.3       8 UNK         0.1400 
     33 CB         -1.0547  -15.6683  -46.6422 C.3       8 UNK        -0.1800 
     34 N           0.0209  -16.8785  -44.8047 N.am      8 UNK        -0.5000 
     35 C           0.6309  -17.8475  -44.1070 C.2       7 UNK         0.5000 
     36 O           0.9051  -18.9560  -44.5650 O.2       7 UNK        -0.5000 
     37 CA          0.9345  -17.5472  -42.6298 C.3       7 UNK         0.1400 
     38 CB          2.2412  -16.7561  -42.4798 C.3       7 UNK        -0.1800 
     39 N          -0.1599  -16.8213  -41.9861 N.am      7 UNK        -0.5000 
     40 C          -1.3617  -17.3517  -41.7181 C.2       6 UNK         0.5000 
     41 O          -1.6648  -18.5195  -41.9600 O.2       6 UNK        -0.5000 
     42 CA         -2.4134  -16.4024  -41.1175 C.3       6 UNK         0.1400 
     43 CB         -2.2080  -16.2505  -39.6029 C.3       6 UNK        -0.1800 
     44 N          -2.3908  -15.0820  -41.7473 N.am      6 UNK        -0.5000 
     45 C          -2.7389  -14.8491  -43.0207 C.2       5 UNK         0.5000 
     46 O          -3.1604  -15.7190  -43.7825 O.2       5 UNK        -0.5000 
     47 CA         -2.5421  -13.4120  -43.5392 C.3       5 UNK         0.1400 
     48 CB         -3.7859  -12.5595  -43.2483 C.3       5 UNK        -0.1800 
     49 N          -1.3577  -12.7512  -42.9816 N.am      5 UNK        -0.5000 
     50 C          -0.0964  -13.1545  -43.1837 C.2       4 UNK         0.5000 
     51 O           0.2056  -14.1552  -43.8370 O.2       4 UNK        -0.5000 
     52 CA          1.0023  -12.3427  -42.4819 C.3       4 UNK         0.1400 
     53 CB          1.4068  -13.0203  -41.1637 C.3       4 UNK        -0.1800 
     54 N           2.1818  -12.2218  -43.3336 N.am      4 UNK        -0.5000 
     55 C           2.3547  -11.2909  -44.2773 C.2       3 UNK         0.5000 
     56 O           1.5332  -10.4049  -44.5176 O.2       3 UNK        -0.5000 
     57 CA          3.6719  -11.3374  -45.0777 C.3       3 UNK         0.1400 
     58 CB          4.8859  -10.9919  -44.1932 C.3       3 UNK        -0.1800 
     59 N           3.8860  -12.5830  -45.8217 N.am      3 UNK        -0.5000 
     60 C           4.0587  -13.8323  -45.3639 C.2       2 UNK         0.5000 
     61 O           4.1080  -14.1153  -44.1657 O.2       2 UNK        -0.5000 
     62 CA          4.2443  -14.9597  -46.4089 C.3       2 UNK         0.1400 
     63 CB          3.3571  -16.1803  -46.0975 C.3       2 UNK        -0.1800 
     64 N           4.0868  -14.5517  -47.8142 N.am      2 UNK        -0.5000 
     65 C           2.9828  -14.0780  -48.4109 C.2       1 UNK         0.5000 
     66 O           1.9088  -13.9057  -47.8337 O.2       1 UNK        -0.5000 
     67 C           0.1266  -22.4457  -47.7863 C.2       11 UNK         0.5000 
     68 O           0.4178  -23.4824  -48.3817 O.2       11 UNK        -0.5000 
     69 N          -0.9703  -21.7265  -48.0592 N.am      12 UNK        -0.5000 
     70 CA         -1.9539  -22.1024  -49.0732 C.3       12 UNK         0.1400 
     71 CB         -2.9224  -20.9416  -49.3001 C.3       12 UNK        -0.1800 
     72 C          -2.7015  -23.4070  -48.7385 C.2       12 UNK         0.5000 
     73 O          -2.9240  -24.2223  -49.6336 O.2       12 UNK        -0.5000 
     74 N          -3.0265  -23.6158  -47.4543 N.am      13 UNK        -0.5000 
     75 CA         -3.6129  -24.8552  -46.9462 C.3       13 UNK         0.1400 
     76 CB         -4.0198  -24.6910  -45.4747 C.3       13 UNK        -0.1800 
     77 C          -2.6775  -26.0638  -47.1311 C.2       13 UNK         0.5000 
     78 O          -3.1287  -27.1143  -47.5908 O.2       13 UNK        -0.5000 
     79 N          -1.3866  -25.8770  -46.8184 N.am      14 UNK        -0.5000 
     80 CA         -0.3266  -26.8611  -47.0447 C.3       14 UNK         0.1400 
     81 CB          0.9717  -26.3840  -46.3769 C.3       14 UNK        -0.1800 
     82 C          -0.1012  -27.1630  -48.5393 C.2       14 UNK         0.5000 
     83 O           0.1183  -28.3209  -48.8982 O.2       14 UNK        -0.5000 
     84 N          -0.2127  -26.1353  -49.3914 N.am      15 UNK        -0.5000 
     85 CA         -0.1490  -26.2085  -50.8529 C.3       15 UNK         0.1400 
     86 CB          0.2106  -24.8179  -51.4076 C.3       15 UNK        -0.1800 
     87 C          -1.4411  -26.7827  -51.4801 C.2       15 UNK         0.5000 
     88 O          -2.0322  -26.1616  -52.3648 O.2       15 UNK        -0.5000 
     89 N          -1.8358  -27.9781  -51.0210 N.am      16 UNK        -0.5000 
     90 CA         -2.9546  -28.7974  -51.4948 C.3       16 UNK         0.1400 
     91 CB         -2.6839  -29.3038  -52.9278 C.3       16 UNK        -0.1800 
     92 C          -4.3346  -28.1227  -51.3403 C.2       16 UNK         0.5000 
     93 O          -5.1596  -28.1957  -52.2534 O.2       16 UNK        -0.5000 
     94 N          -4.5704  -27.5132  -50.1683 N.am      17 UNK        -0.5000 
     95 CA         -5.8394  -26.9204  -49.7287 C.3       17 UNK         0.1400 
     96 CB         -6.9036  -28.0186  -49.5165 C.3       17 UNK        -0.1800 
     97 C          -6.3344  -25.7632  -50.6233 C.2       17 UNK         0.5000 
     98 O          -7.5290  -25.6769  -50.9177 O.2       17 UNK        -0.5000 
     99 N          -5.4113  -24.8888  -51.0403 N.am      18 UNK        -0.5000 
    100 CA        -5.7139  -23.6760  -51.7971 C.3       18 UNK         0.1400 
    101 CB        -4.4464  -23.2304  -52.5466 C.3       18 UNK        -0.1800 
    102 C         -6.2238  -22.5516  -50.8751 C.2       18 UNK         0.5000 
    103 O         -5.9886  -22.5797  -49.6640 O.2       18 UNK        -0.5000 
    104 N         -6.8827  -21.5541  -51.4765 N.am      19 UNK        -0.5000 
    105 CA        -7.1735  -20.2676  -50.8416 C.3       19 UNK         0.1400 
    106 CB        -8.2916  -19.5648  -51.6272 C.3       19 UNK        -0.1800 
    107 C         -5.9038  -19.3966  -50.8178 C.2       19 UNK         0.5000 
    108 O         -5.0470  -19.5619  -51.6866 O.2       19 UNK        -0.5000 
    109 N         -5.8155  -18.4715  -49.8506 N.am      20 UNK        -0.5000 
    110 CA        -4.6500  -17.6062  -49.6131 C.3       20 UNK         0.1400 
    111 CB        -4.9073  -16.7377  -48.3717 C.3       20 UNK        -0.1800 
    112 C         -4.2405  -16.7274  -50.8130 C.2       20 UNK         0.5000 
    113 O         -3.0603  -16.4133  -50.9622 O.2       20 UNK        -0.5000 
    114 N         -5.2092  -16.3705  -51.6648 N.am      21 UNK        -0.5000 
    115 CA        -5.0060  -15.6501  -52.9202 C.3       21 UNK         0.1400 
    116 CB        -6.3063  -14.9036  -53.2705 C.3       21 UNK        -0.1800 
    117 C         -4.5372  -16.5975  -54.0475 C.2       21 UNK         0.5000 
    118 O         -5.2385  -16.7583  -55.0489 O.2       21 UNK        -0.5000 
    119 N         -3.3683  -17.2226  -53.8583 N.am      22 UNK        -0.5000 
    120 CA        -2.6983  -18.0809  -54.8495 C.3       22 UNK         0.1400 
    121 C         -2.2822  -17.3014  -56.1298 C.2       22 UNK         0.5000 
    122 N         -2.3782  -17.9201  -57.2989 N.am      22 UNK        -0.7600 
    123 O         -1.8321  -16.1589  -56.0691 O.2       22 UNK        -0.5000 
    124 C124       -1.4660  -18.8072  -54.2519 C.3       23 UNK        -0.0398 
    125 S125       -1.9084  -19.9952  -52.9396 S.3       23 UNK        -0.2404 
    126 C126       -0.2555  -20.5704  -52.4140 C.3       23 UNK        -0.0205 
    127 H127        2.5781   -9.2588  -50.4580 H         1 UNK         0.0600 
    128 H128        1.4873   -9.6086  -49.1125 H         1 UNK         0.0600 
    129 H129        1.1671  -10.2909  -50.7096 H         1 UNK         0.0600 
    130 H130        1.6757  -12.4641  -50.7976 H         1 UNK         0.3000 
    131 H131        4.1905  -13.5439  -50.0900 H         1 UNK         0.0600 
    132 H132        3.0905  -14.6522  -51.8331 H         1 UNK         0.0800 
    133 H133        3.0627  -15.7925  -50.5382 H         1 UNK         0.0800 
    134 H134       -0.7512  -16.1755  -49.7996 H         1 UNK         0.0800 
    135 H135        0.6982  -15.8936  -48.8803 H         1 UNK         0.0800 
    136 H136       -0.8140  -17.9498  -51.5425 H         1 UNK         0.1150 
    137 H137        1.9725  -21.1859  -51.0375 H         1 UNK         0.1150 
    138 H138        2.4844  -17.5254  -48.8739 H         1 UNK         0.1150 
    139 H139        4.3356  -20.2388  -49.9806 H         1 UNK         0.0800 
    140 H140        4.0852  -19.2178  -48.5875 H         1 UNK         0.0800 
    141 H141        1.4541  -20.0012  -47.4353 H         1 UNK         0.0800 
    142 H142        2.5196  -20.4758  -46.1437 H         1 UNK         0.0800 
    143 H143        1.6127  -22.8316  -46.3054 H         1 UNK         0.0600 
    144 H144        0.2486  -20.6140  -45.1761 H         1 UNK         0.3000 
    145 H145       -2.1565  -22.5666  -43.3443 H         1 UNK         0.0600 
    146 H146       -1.1330  -21.2467  -41.5241 H         1 UNK         0.0600 
    147 H147       -0.0200  -22.5014  -42.0470 H         1 UNK         0.0600 
    148 H148        0.2415  -20.8350  -42.5476 H         1 UNK         0.0600 
    149 H149       -1.8169  -19.7608  -43.4831 H         1 UNK         0.3000 
    150 H150       -4.0560  -19.2012  -46.2604 H         1 UNK         0.0600 
    151 H151       -5.4058  -19.4367  -44.1654 H         1 UNK         0.0600 
    152 H152       -5.0777  -17.7514  -44.5411 H         1 UNK         0.0600 
    153 H153       -4.1712  -18.5617  -43.2658 H         1 UNK         0.0600 
    154 H154       -2.5743  -17.3403  -44.7343 H         1 UNK         0.3000 
    155 H155        0.3616  -17.2774  -46.8151 H         1 UNK         0.0600 
    156 H156       -1.4659  -15.7428  -47.6479 H         1 UNK         0.0600 
    157 H157       -0.2881  -14.8939  -46.6530 H         1 UNK         0.0600 
    158 H158       -1.8615  -15.3254  -45.9984 H         1 UNK         0.0600 
    159 H159       -0.1000  -15.9693  -44.3665 H         1 UNK         0.3000 
    160 H160        1.0579  -18.5008  -42.1123 H         1 UNK         0.0600 
    161 H161        2.2048  -15.8078  -43.0164 H         1 UNK         0.0600 
    162 H162        3.0843  -17.3241  -42.8741 H         1 UNK         0.0600 
    163 H163        2.4577  -16.5432  -41.4330 H         1 UNK         0.0600 
    164 H164       -0.0109  -15.8404  -41.8061 H         1 UNK         0.3000 
    165 H165       -3.3975  -16.8448  -41.2865 H         1 UNK         0.0600 
    166 H166       -2.9937  -15.6395  -39.1583 H         1 UNK         0.0600 
    167 H167       -2.2335  -17.2219  -39.1072 H         1 UNK         0.0600 
    168 H168       -1.2488  -15.7872  -39.3685 H         1 UNK         0.0600 
    169 H169       -2.0612  -14.3100  -41.1874 H         1 UNK         0.3000 
    170 H170       -2.4141  -13.4647  -44.6218 H         1 UNK         0.0600 
    171 H171       -4.6807  -13.0183  -43.6713 H         1 UNK         0.0600 
    172 H172       -3.9530  -12.4408  -42.1770 H         1 UNK         0.0600 
    173 H173       -3.6944  -11.5656  -43.6867 H         1 UNK         0.0600 
    174 H174       -1.5255  -11.9268  -42.4227 H         1 UNK         0.3000 
    175 H175        0.6198  -11.3458  -42.2526 H         1 UNK         0.0600 
    176 H176        1.8242  -14.0133  -41.3307 H         1 UNK         0.0600 
    177 H177        2.1550  -12.4306  -40.6337 H         1 UNK         0.0600 
    178 H178        0.5497  -13.1301  -40.4981 H         1 UNK         0.0600 
    179 H179        2.8640  -12.9740  -43.2913 H         1 UNK         0.3000 
    180 H180        3.5987  -10.5586  -45.8387 H         1 UNK         0.0600 
    181 H181        5.0445  -11.7272  -43.4042 H         1 UNK         0.0600 
    182 H182        4.7505  -10.0231  -43.7109 H         1 UNK         0.0600 
    183 H183        5.7993  -10.9347  -44.7853 H         1 UNK         0.0600 
    184 H184        3.8337  -12.4753  -46.8263 H         1 UNK         0.3000 
    185 H185        5.2822  -15.2804  -46.3098 H         1 UNK         0.0600 
    186 H186        3.5833  -16.5868  -45.1126 H         1 UNK         0.0600 
    187 H187        2.3005  -15.9164  -46.1077 H         1 UNK         0.0600 
    188 H188        3.5150  -16.9829  -46.8167 H         1 UNK         0.0600 
    189 H189        4.9314  -14.6182  -48.3658 H         1 UNK         0.3000 
    190 H190       -1.1418  -20.8584  -47.5583 H         1 UNK         0.3000 
    191 H191       -1.4162  -22.2659  -50.0070 H         1 UNK         0.0600 
    192 H192       -3.4871  -20.6979  -48.3997 H         1 UNK         0.0600 
    193 H193       -3.6342  -21.1886  -50.0856 H         1 UNK         0.0600 
    194 H194       -2.3843  -20.0501  -49.6220 H         1 UNK         0.0600 
    195 H195       -2.8836  -22.8687  -46.7798 H         1 UNK         0.3000 
    196 H196       -4.5207  -25.0364  -47.5200 H         1 UNK         0.0600 
    197 H197       -4.4683  -25.6075  -45.0896 H         1 UNK         0.0600 
    198 H198       -4.7561  -23.8959  -45.3571 H         1 UNK         0.0600 
    199 H199       -3.1659  -24.4523  -44.8413 H         1 UNK         0.0600 
    200 H200       -1.1064  -24.9903  -46.4102 H         1 UNK         0.3000 
    201 H201       -0.6316  -27.7923  -46.5630 H         1 UNK         0.0600 
    202 H202        0.8308  -26.2308  -45.3068 H         1 UNK         0.0600 
    203 H203        1.3255  -25.4455  -46.8038 H         1 UNK         0.0600 
    204 H204        1.7668  -27.1205  -46.4992 H         1 UNK         0.0600 
    205 H205       -0.3498  -25.2076  -49.0022 H         1 UNK         0.3000 
    206 H206        0.6625  -26.8865  -51.1242 H         1 UNK         0.0600 
    207 H207        1.1343  -24.4414  -50.9677 H         1 UNK         0.0600 
    208 H208        0.3555  -24.8516  -52.4879 H         1 UNK         0.0600 
    209 H209       -0.5768  -24.0927  -51.2053 H         1 UNK         0.0600 
    210 H210       -1.2776  -28.3815  -50.2742 H         1 UNK         0.3000 
    211 H211       -2.9796  -29.6724  -50.8437 H         1 UNK         0.0600 
    212 H212       -2.6883  -28.4895  -53.6530 H         1 UNK         0.0600 
    213 H213       -3.4430  -30.0225  -53.2389 H         1 UNK         0.0600 
    214 H214       -1.7188  -29.8061  -52.9930 H         1 UNK         0.0600 
    215 H215       -3.8251  -27.4821  -49.4795 H         1 UNK         0.3000 
    216 H216       -5.6481  -26.4814  -48.7520 H         1 UNK         0.0600 
    217 H217       -7.8043  -27.6074  -49.0592 H         1 UNK         0.0600 
    218 H218       -6.5348  -28.8014  -48.8537 H         1 UNK         0.0600 
    219 H219       -7.1990  -28.4858  -50.4564 H         1 UNK         0.0600 
    220 H220       -4.4598  -24.9670  -50.6931 H         1 UNK         0.3000 
    221 H221       -6.4880  -23.9005  -52.5340 H         1 UNK         0.0600 
    222 H222       -3.6437  -22.9573  -51.8616 H         1 UNK         0.0600 
    223 H223       -4.0727  -24.0222  -53.1963 H         1 UNK         0.0600 
    224 H224       -4.6439  -22.3599  -53.1734 H         1 UNK         0.0600 
    225 H225       -6.9950  -21.5842  -52.4792 H         1 UNK         0.3000 
    226 H226       -7.5117  -20.4368  -49.8170 H         1 UNK         0.0600 
    227 H227       -9.1947  -20.1747  -51.6581 H         1 UNK         0.0600 
    228 H228       -8.5586  -18.6144  -51.1636 H         1 UNK         0.0600 
    229 H229       -7.9923  -19.3556  -52.6553 H         1 UNK         0.0600 
    230 H230       -6.5748  -18.3847  -49.1905 H         1 UNK         0.3000 
    231 H231       -3.8009  -18.2529  -49.3925 H         1 UNK         0.0600 
    232 H232       -5.1057  -17.3498  -47.4922 H         1 UNK         0.0600 
    233 H233       -5.7583  -16.0713  -48.5170 H         1 UNK         0.0600 
    234 H234       -4.0394  -16.1179  -48.1423 H         1 UNK         0.0600 
    235 H235       -6.1428  -16.7093  -51.4875 H         1 UNK         0.3000 
    236 H236       -4.2237  -14.9009  -52.7807 H         1 UNK         0.0600 
    237 H237       -6.1910  -14.3274  -54.1895 H         1 UNK         0.0600 
    238 H238       -7.1407  -15.5912  -53.4147 H         1 UNK         0.0600 
    239 H239       -6.5822  -14.2025  -52.4826 H         1 UNK         0.0600 
    240 H240       -2.8788  -17.0653  -52.9860 H         1 UNK         0.3000 
    241 H241       -3.4230  -18.8412  -55.1479 H         1 UNK         0.0600 
    242 H242       -2.7383  -18.8593  -57.3738 H         1 UNK         0.3800 
    243 H243       -2.0976  -17.4321  -58.1356 H         1 UNK         0.3800 
    244 H244       -0.9442  -19.3692  -55.0288 H         1 UNK         0.0800 
    245 H245       -0.7461  -18.0835  -53.8670 H         1 UNK         0.0800 
    246 H246        0.3708  -20.7120  -53.2956 H         1 UNK         0.0800 
    247 H247       -0.3776  -21.5588  -51.9709 H         1 UNK         0.0800 
@<TRIPOS>BOND
     1    1    2 1    
     2    1  127 1    
     3    1  128 1    
     4    1  129 1    
     5    2    3 2    
     6    2    4 am   BACKBONE|DICT|INTERRES
     7    4    5 1    
     8    4  130 1    
     9    5    6 1    
    10    5   65 1    
    11    5  131 1    
    12    6    7 1    
    13    6  132 1    
    14    6  133 1    
    15    7    8 1    
    16    8    9 1    
    17    8  134 1    
    18    8  135 1    
    19    9   10 ar   
    20    9   14 ar   
    21   10   11 ar   
    22   10  136 1    
    23   11   12 ar   
    24   11  126 1    
    25   12   13 ar   
    26   12  137 1    
    27   13   14 ar   
    28   13   15 1    
    29   14  138 1    
    30   15   16 1    
    31   15  139 1    
    32   15  140 1    
    33   16   17 1    
    34   17   18 1    
    35   17  141 1    
    36   17  142 1    
    37   18   19 1    
    38   18   67 1    
    39   18  143 1    
    40   19   20 am   BACKBONE|DICT|INTERRES
    41   19  144 1    
    42   20   21 2    
    43   20   22 1    
    44   22   23 1    
    45   22   24 1    
    46   22  145 1    
    47   23  146 1    
    48   23  147 1    
    49   23  148 1    
    50   24   25 am   BACKBONE|DICT|INTERRES
    51   24  149 1    
    52   25   26 2    
    53   25   27 1    
    54   27   28 1    
    55   27   29 1    
    56   27  150 1    
    57   28  151 1    
    58   28  152 1    
    59   28  153 1    
    60   29   30 am   BACKBONE|DICT|INTERRES
    61   29  154 1    
    62   30   31 2    
    63   30   32 1    
    64   32   33 1    
    65   32   34 1    
    66   32  155 1    
    67   33  156 1    
    68   33  157 1    
    69   33  158 1    
    70   34   35 am   BACKBONE|DICT|INTERRES
    71   34  159 1    
    72   35   36 2    
    73   35   37 1    
    74   37   38 1    
    75   37   39 1    
    76   37  160 1    
    77   38  161 1    
    78   38  162 1    
    79   38  163 1    
    80   39   40 am   BACKBONE|DICT|INTERRES
    81   39  164 1    
    82   40   41 2    
    83   40   42 1    
    84   42   43 1    
    85   42   44 1    
    86   42  165 1    
    87   43  166 1    
    88   43  167 1    
    89   43  168 1    
    90   44   45 am   BACKBONE|DICT|INTERRES
    91   44  169 1    
    92   45   46 2    
    93   45   47 1    
    94   47   48 1    
    95   47   49 1    
    96   47  170 1    
    97   48  171 1    
    98   48  172 1    
    99   48  173 1    
   100   49   50 am   BACKBONE|DICT|INTERRES
   101   49  174 1    
   102   50   51 2    
   103   50   52 1    
   104   52   53 1    
   105   52   54 1    
   106   52  175 1    
   107   53  176 1    
   108   53  177 1    
   109   53  178 1    
   110   54   55 am   BACKBONE|DICT|INTERRES
   111   54  179 1    
   112   55   56 2    
   113   55   57 1    
   114   57   58 1    
   115   57   59 1    
   116   57  180 1    
   117   58  181 1    
   118   58  182 1    
   119   58  183 1    
   120   59   60 am   BACKBONE|DICT|INTERRES
   121   59  184 1    
   122   60   61 2    
   123   60   62 1    
   124   62   63 1    
   125   62   64 1    
   126   62  185 1    
   127   63  186 1    
   128   63  187 1    
   129   63  188 1    
   130   64   65 am   BACKBONE|DICT|INTERRES
   131   64  189 1    
   132   65   66 2    
   133   67   68 2    
   134   67   69 am   BACKBONE|DICT|INTERRES
   135   69   70 1    
   136   69  190 1    
   137   70   71 1    
   138   70   72 1    
   139   70  191 1    
   140   71  192 1    
   141   71  193 1    
   142   71  194 1    
   143   72   73 2    
   144   72   74 am   BACKBONE|DICT|INTERRES
   145   74   75 1    
   146   74  195 1    
   147   75   76 1    
   148   75   77 1    
   149   75  196 1    
   150   76  197 1    
   151   76  198 1    
   152   76  199 1    
   153   77   78 2    
   154   77   79 am   BACKBONE|DICT|INTERRES
   155   79   80 1    
   156   79  200 1    
   157   80   81 1    
   158   80   82 1    
   159   80  201 1    
   160   81  202 1    
   161   81  203 1    
   162   81  204 1    
   163   82   83 2    
   164   82   84 am   BACKBONE|DICT|INTERRES
   165   84   85 1    
   166   84  205 1    
   167   85   86 1    
   168   85   87 1    
   169   85  206 1    
   170   86  207 1    
   171   86  208 1    
   172   86  209 1    
   173   87   88 2    
   174   87   89 am   BACKBONE|DICT|INTERRES
   175   89   90 1    
   176   89  210 1    
   177   90   91 1    
   178   90   92 1    
   179   90  211 1    
   180   91  212 1    
   181   91  213 1    
   182   91  214 1    
   183   92   93 2    
   184   92   94 am   BACKBONE|DICT|INTERRES
   185   94   95 1    
   186   94  215 1    
   187   95   96 1    
   188   95   97 1    
   189   95  216 1    
   190   96  217 1    
   191   96  218 1    
   192   96  219 1    
   193   97   98 2    
   194   97   99 am   BACKBONE|DICT|INTERRES
   195   99  100 1    
   196   99  220 1    
   197  100  101 1    
   198  100  102 1    
   199  100  221 1    
   200  101  222 1    
   201  101  223 1    
   202  101  224 1    
   203  102  103 2    
   204  102  104 am   BACKBONE|DICT|INTERRES
   205  104  105 1    
   206  104  225 1    
   207  105  106 1    
   208  105  107 1    
   209  105  226 1    
   210  106  227 1    
   211  106  228 1    
   212  106  229 1    
   213  107  108 2    
   214  107  109 am   BACKBONE|DICT|INTERRES
   215  109  110 1    
   216  109  230 1    
   217  110  111 1    
   218  110  112 1    
   219  110  231 1    
   220  111  232 1    
   221  111  233 1    
   222  111  234 1    
   223  112  113 2    
   224  112  114 am   BACKBONE|DICT|INTERRES
   225  114  115 1    
   226  114  235 1    
   227  115  116 1    
   228  115  117 1    
   229  115  236 1    
   230  116  237 1    
   231  116  238 1    
   232  116  239 1    
   233  117  118 2    
   234  117  119 am   BACKBONE|DICT|INTERRES
   235  119  120 1    
   236  119  240 1    
   237  120  121 1    
   238  120  124 1    
   239  120  241 1    
   240  121  122 am   BACKBONE|DICT|INTERRES
   241  121  123 2    
   242  122  242 1    
   243  122  243 1    
   244  124  125 1    
   245  124  244 1    
   246  124  245 1    
   247  125  126 1    
   248  126  246 1    
   249  126  247 1    
@<TRIPOS>SUBSTRUCTURE
     1 UNK         1 GROUP             0       ****    0 ROOT    
