@<TRIPOS>MOLECULE
3R540
247   249    1
SMALL
USER_CHARGES


@<TRIPOS>ATOM
      1 CA          3.8670  -12.5145  -42.7544 C.3       0 UNK        -0.1800 
      2 C           3.1853  -12.6725  -44.1045 C.2       0 UNK         0.5000 
      3 O           2.0519  -12.2215  -44.2734 O.2       0 UNK        -0.5000 
      4 N           3.8711  -13.3021  -45.0685 N.am      1 UNK        -0.5000 
      5 CA          3.3705  -13.5982  -46.4184 C.3       1 UNK         0.1400 
      6 C6          4.3589  -14.4938  -47.2111 C.3       23 UNK        -0.0398 
      7 S7          3.4972  -15.6265  -48.3494 S.3       23 UNK        -0.2404 
      8 C8          4.6985  -16.9917  -48.4575 C.3       23 UNK        -0.0205 
      9 C9          4.2883  -18.0763  -49.4487 C.ar      23 UNK        -0.0193 
     10 C10         3.9172  -17.7444  -50.7560 C.ar      23 UNK        -0.1150 
     11 C11         3.5961  -18.7386  -51.6867 C.ar      23 UNK        -0.0193 
     12 C12         3.6826  -20.0808  -51.3051 C.ar      23 UNK        -0.1150 
     13 C13         4.0725  -20.4317  -50.0088 C.ar      23 UNK        -0.0193 
     14 C14         4.3542  -19.4241  -49.0803 C.ar      23 UNK        -0.1150 
     15 C15         4.2573  -21.8981  -49.6336 C.3       23 UNK        -0.0205 
     16 S16         2.7023  -22.8431  -49.6721 S.3       23 UNK        -0.2404 
     17 C17         1.7644  -22.0230  -48.3424 C.3       23 UNK        -0.0398 
     18 CA          0.8250  -22.9646  -47.5498 C.3       11 UNK         0.1400 
     19 N           0.2617  -22.2794  -46.3832 N.am      11 UNK        -0.5000 
     20 C          -0.5164  -22.8425  -45.4482 C.2       10 UNK         0.5000 
     21 O          -0.8014  -24.0403  -45.4226 O.2       10 UNK        -0.5000 
     22 CA         -1.1127  -21.8983  -44.3881 C.3       10 UNK         0.1400 
     23 CB         -0.0756  -21.5765  -43.3020 C.3       10 UNK        -0.1800 
     24 N          -1.6275  -20.6530  -44.9623 N.am      10 UNK        -0.5000 
     25 C          -2.6558  -20.5787  -45.8203 C.2       9 UNK         0.5000 
     26 O          -3.3069  -21.5535  -46.1898 O.2       9 UNK        -0.5000 
     27 CA         -2.9829  -19.1948  -46.4092 C.3       9 UNK         0.1400 
     28 CB         -3.7869  -18.3466  -45.4137 C.3       9 UNK        -0.1800 
     29 N          -1.7907  -18.4634  -46.8357 N.am      9 UNK        -0.5000 
     30 C          -0.9336  -18.8928  -47.7735 C.2       8 UNK         0.5000 
     31 O          -1.0620  -19.9483  -48.3902 O.2       8 UNK        -0.5000 
     32 CA          0.3131  -18.0283  -48.0131 C.3       8 UNK         0.1400 
     33 CB         -0.0393  -16.7899  -48.8524 C.3       8 UNK        -0.1800 
     34 N           0.9458  -17.6339  -46.7528 N.am      8 UNK        -0.5000 
     35 C           1.5158  -18.4924  -45.8935 C.2       7 UNK         0.5000 
     36 O           1.6206  -19.7003  -46.1003 O.2       7 UNK        -0.5000 
     37 CA          1.9993  -17.9179  -44.5499 C.3       7 UNK         0.1400 
     38 CB          3.3981  -17.3027  -44.6838 C.3       7 UNK        -0.1800 
     39 N           1.0792  -16.9204  -44.0048 N.am      7 UNK        -0.5000 
     40 C          -0.1568  -17.1954  -43.5647 C.2       6 UNK         0.5000 
     41 O          -0.6407  -18.3261  -43.5422 O.2       6 UNK        -0.5000 
     42 CA         -1.0093  -15.9942  -43.1217 C.3       6 UNK         0.1400 
     43 CB         -0.7128  -15.6234  -41.6612 C.3       6 UNK        -0.1800 
     44 N          -0.8076  -14.8175  -43.9675 N.am      6 UNK        -0.5000 
     45 C          -1.1209  -14.7419  -45.2693 C.2       5 UNK         0.5000 
     46 O          -1.5917  -15.6853  -45.9056 O.2       5 UNK        -0.5000 
     47 CA         -0.8168  -13.4052  -45.9762 C.3       5 UNK         0.1400 
     48 CB         -1.7664  -13.1115  -47.1558 C.3       5 UNK        -0.1800 
     49 N          -0.7322  -12.2735  -45.0455 N.am      5 UNK        -0.5000 
     50 C          -1.7311  -11.7205  -44.3400 C.2       4 UNK         0.5000 
     51 O          -2.9107  -12.0622  -44.4278 O.2       4 UNK        -0.5000 
     52 CA         -1.3467  -10.6219  -43.3306 C.3       4 UNK         0.1400 
     53 CB         -1.3250  -11.1983  -41.9056 C.3       4 UNK        -0.1800 
     54 N          -0.0485  -10.0018  -43.5998 N.am      4 UNK        -0.5000 
     55 C           0.2052   -9.1391  -44.5920 C.2       3 UNK         0.5000 
     56 O          -0.6367   -8.7763  -45.4144 O.2       3 UNK        -0.5000 
     57 CA          1.6375   -8.5872  -44.6796 C.3       3 UNK         0.1400 
     58 CB          2.3774   -8.5772  -43.3265 C.3       3 UNK        -0.1800 
     59 N           2.4061   -9.3855  -45.6287 N.am      3 UNK        -0.5000 
     60 C           2.7085   -9.0190  -46.8809 C.2       2 UNK         0.5000 
     61 O           2.3383   -7.9601  -47.3901 O.2       2 UNK        -0.5000 
     62 CA          3.6047   -9.9691  -47.7021 C.3       2 UNK         0.1400 
     63 CB          4.9832   -9.3311  -47.9413 C.3       2 UNK        -0.1800 
     64 N           3.8050  -11.2705  -47.0605 N.am      2 UNK        -0.5000 
     65 C           2.9997  -12.3288  -47.2190 C.2       1 UNK         0.5000 
     66 O           1.9939  -12.3220  -47.9280 O.2       1 UNK        -0.5000 
     67 C          -0.2884  -23.5587  -48.4378 C.2       11 UNK         0.5000 
     68 O          -0.2524  -24.7471  -48.7583 O.2       11 UNK        -0.5000 
     69 N          -1.2867  -22.7319  -48.7700 N.am      12 UNK        -0.5000 
     70 CA         -2.4550  -23.1157  -49.5517 C.3       12 UNK         0.1400 
     71 CB         -3.2506  -21.8613  -49.9124 C.3       12 UNK        -0.1800 
     72 C          -3.3462  -24.1510  -48.8491 C.2       12 UNK         0.5000 
     73 O          -3.8667  -25.0379  -49.5206 O.2       12 UNK        -0.5000 
     74 N          -3.4993  -24.0490  -47.5225 N.am      13 UNK        -0.5000 
     75 CA         -4.2241  -25.0209  -46.7028 C.3       13 UNK         0.1400 
     76 CB         -4.3925  -24.4864  -45.2731 C.3       13 UNK        -0.1800 
     77 C          -3.5396  -26.3988  -46.6989 C.2       13 UNK         0.5000 
     78 O          -4.2204  -27.4104  -46.8682 O.2       13 UNK        -0.5000 
     79 N          -2.2050  -26.4109  -46.5663 N.am      14 UNK        -0.5000 
     80 CA         -1.3721  -27.6133  -46.6532 C.3       14 UNK         0.1400 
     81 CB          0.0631  -27.2743  -46.2233 C.3       14 UNK        -0.1800 
     82 C          -1.3903  -28.2550  -48.0551 C.2       14 UNK         0.5000 
     83 O          -1.3988  -29.4816  -48.1628 O.2       14 UNK        -0.5000 
     84 N          -1.4339  -27.4167  -49.0993 N.am      15 UNK        -0.5000 
     85 CA         -1.5625  -27.8202  -50.5020 C.3       15 UNK         0.1400 
     86 CB         -1.1127  -26.6509  -51.3927 C.3       15 UNK        -0.1800 
     87 C          -2.9862  -28.2711  -50.8956 C.2       15 UNK         0.5000 
     88 O          -3.1580  -28.8036  -51.9928 O.2       15 UNK        -0.5000 
     89 N          -3.9737  -28.0340  -50.0181 N.am      16 UNK        -0.5000 
     90 CA         -5.4126  -28.2532  -50.2048 C.3       16 UNK         0.1400 
     91 CB         -5.7333  -29.7527  -50.3746 C.3       16 UNK        -0.1800 
     92 C          -6.0135  -27.3686  -51.3203 C.2       16 UNK         0.5000 
     93 O          -6.9332  -27.7883  -52.0243 O.2       16 UNK        -0.5000 
     94 N          -5.4951  -26.1410  -51.4399 N.am      17 UNK        -0.5000 
     95 CA         -5.8879  -25.1148  -52.4030 C.3       17 UNK         0.1400 
     96 CB         -4.6138  -24.4987  -53.0055 C.3       17 UNK        -0.1800 
     97 C          -6.7933  -24.0639  -51.7298 C.2       17 UNK         0.5000 
     98 O          -6.5720  -22.8580  -51.8756 O.2       17 UNK        -0.5000 
     99 N          -7.7803  -24.5533  -50.9621 N.am      18 UNK        -0.5000 
    100 CA        -8.8647  -23.8204  -50.2893 C.3       18 UNK         0.1400 
    101 CB        -9.8264  -23.2362  -51.3449 C.3       18 UNK        -0.1800 
    102 C         -8.4130  -22.7427  -49.2773 C.2       18 UNK         0.5000 
    103 O         -9.2253  -21.9010  -48.8914 O.2       18 UNK        -0.5000 
    104 N         -7.1274  -22.7649  -48.8917 N.am      19 UNK        -0.5000 
    105 CA        -6.4144  -21.7291  -48.1321 C.3       19 UNK         0.1400 
    106 CB        -6.9602  -21.6200  -46.6936 C.3       19 UNK        -0.1800 
    107 C         -6.3660  -20.3620  -48.8607 C.2       19 UNK         0.5000 
    108 O         -6.2027  -19.3320  -48.2055 O.2       19 UNK        -0.5000 
    109 N         -6.5266  -20.3715  -50.1937 N.am      20 UNK        -0.5000 
    110 CA        -6.7291  -19.1765  -51.0145 C.3       20 UNK         0.1400 
    111 CB        -8.0007  -19.3827  -51.8534 C.3       20 UNK        -0.1800 
    112 C         -5.5408  -18.8568  -51.9371 C.2       20 UNK         0.5000 
    113 O         -5.3618  -17.6899  -52.2932 O.2       20 UNK        -0.5000 
    114 N         -4.7680  -19.8769  -52.3383 N.am      21 UNK        -0.5000 
    115 CA        -3.6334  -19.7365  -53.2565 C.3       21 UNK         0.1400 
    116 CB        -3.1132  -21.1259  -53.6553 C.3       21 UNK        -0.1800 
    117 C         -2.4986  -18.8583  -52.6908 C.2       21 UNK         0.5000 
    118 O         -2.2333  -18.8837  -51.4891 O.2       21 UNK        -0.5000 
    119 N         -1.8538  -18.0931  -53.5789 N.am      22 UNK        -0.5000 
    120 CA        -0.7856  -17.1247  -53.2714 C.3       22 UNK         0.1400 
    121 C         -1.2430  -15.8662  -52.4630 C.2       22 UNK         0.5000 
    122 N         -2.5316  -15.6601  -52.2147 N.am      22 UNK        -0.7600 
    123 O         -0.4240  -15.0335  -52.0869 O.2       22 UNK        -0.5000 
    124 C124        0.4890  -17.8057  -52.6854 C.3       23 UNK        -0.0398 
    125 S125        2.0291  -17.0159  -53.2642 S.3       23 UNK        -0.2404 
    126 C126        3.2329  -18.3795  -53.1249 C.3       23 UNK        -0.0205 
    127 H127        4.1129  -11.4679  -42.5774 H         1 UNK         0.0600 
    128 H128        4.7870  -13.0965  -42.6958 H         1 UNK         0.0600 
    129 H129        3.2023  -12.8501  -41.9584 H         1 UNK         0.0600 
    130 H130        4.8048  -13.6294  -44.8640 H         1 UNK         0.3000 
    131 H131        2.4473  -14.1605  -46.2665 H         1 UNK         0.0600 
    132 H132        5.0886  -13.9047  -47.7702 H         1 UNK         0.0800 
    133 H133        4.9463  -15.1043  -46.5243 H         1 UNK         0.0800 
    134 H134        5.6666  -16.5925  -48.7629 H         1 UNK         0.0800 
    135 H135        4.8352  -17.4174  -47.4627 H         1 UNK         0.0800 
    136 H136        3.8897  -16.7056  -51.0535 H         1 UNK         0.1150 
    137 H137        3.4722  -20.8602  -52.0242 H         1 UNK         0.1150 
    138 H138        4.6645  -19.6909  -48.0797 H         1 UNK         0.1150 
    139 H139        4.9587  -22.3531  -50.3343 H         1 UNK         0.0800 
    140 H140        4.7116  -21.9949  -48.6462 H         1 UNK         0.0800 
    141 H141        1.2150  -21.1870  -48.7756 H         1 UNK         0.0800 
    142 H142        2.4845  -21.5825  -47.6525 H         1 UNK         0.0800 
    143 H143        1.4210  -23.7976  -47.1714 H         1 UNK         0.0600 
    144 H144        0.4771  -21.2900  -46.3038 H         1 UNK         0.3000 
    145 H145       -1.9489  -22.4169  -43.9150 H         1 UNK         0.0600 
    146 H146       -0.5163  -20.9821  -42.5015 H         1 UNK         0.0600 
    147 H147        0.3159  -22.4896  -42.8519 H         1 UNK         0.0600 
    148 H148        0.7700  -21.0185  -43.7052 H         1 UNK         0.0600 
    149 H149       -1.1739  -19.7937  -44.6644 H         1 UNK         0.3000 
    150 H150       -3.6004  -19.3517  -47.2954 H         1 UNK         0.0600 
    151 H151       -4.7050  -18.8578  -45.1214 H         1 UNK         0.0600 
    152 H152       -4.0727  -17.3906  -45.8529 H         1 UNK         0.0600 
    153 H153       -3.2195  -18.1417  -44.5059 H         1 UNK         0.0600 
    154 H154       -1.6265  -17.5609  -46.3986 H         1 UNK         0.3000 
    155 H155        1.0284  -18.6269  -48.5818 H         1 UNK         0.0600 
    156 H156       -0.6783  -17.0588  -49.6940 H         1 UNK         0.0600 
    157 H157        0.8519  -16.3216  -49.2666 H         1 UNK         0.0600 
    158 H158       -0.5751  -16.0398  -48.2738 H         1 UNK         0.0600 
    159 H159        0.8645  -16.6647  -46.4900 H         1 UNK         0.3000 
    160 H160        2.0610  -18.7456  -43.8401 H         1 UNK         0.0600 
    161 H161        4.1056  -18.0239  -45.0950 H         1 UNK         0.0600 
    162 H162        3.7839  -16.9838  -43.7155 H         1 UNK         0.0600 
    163 H163        3.3875  -16.4363  -45.3417 H         1 UNK         0.0600 
    164 H164        1.3970  -15.9636  -43.9813 H         1 UNK         0.3000 
    165 H165       -2.0590  -16.2855  -43.1959 H         1 UNK         0.0600 
    166 H166       -1.3680  -14.8227  -41.3173 H         1 UNK         0.0600 
    167 H167       -0.8720  -16.4780  -41.0021 H         1 UNK         0.0600 
    168 H168        0.3184  -15.2935  -41.5287 H         1 UNK         0.0600 
    169 H169       -0.4165  -13.9988  -43.5260 H         1 UNK         0.3000 
    170 H170        0.1818  -13.5194  -46.3934 H         1 UNK         0.0600 
    171 H171       -1.6761  -13.8748  -47.9290 H         1 UNK         0.0600 
    172 H172       -2.8109  -13.0894  -46.8449 H         1 UNK         0.0600 
    173 H173       -1.5310  -12.1538  -47.6201 H         1 UNK         0.0600 
    174 H174        0.2122  -11.9547  -44.8459 H         1 UNK         0.3000 
    175 H175       -2.1159   -9.8482  -43.3775 H         1 UNK         0.0600 
    176 H176       -0.5576  -11.9654  -41.7928 H         1 UNK         0.0600 
    177 H177       -1.1319  -10.4192  -41.1680 H         1 UNK         0.0600 
    178 H178       -2.2834  -11.6532  -41.6515 H         1 UNK         0.0600 
    179 H179        0.7130  -10.2738  -42.9951 H         1 UNK         0.3000 
    180 H180        1.5623   -7.5518  -45.0185 H         1 UNK         0.0600 
    181 H181        2.5632   -9.5820  -42.9469 H         1 UNK         0.0600 
    182 H182        1.8077   -8.0341  -42.5712 H         1 UNK         0.0600 
    183 H183        3.3431   -8.0798  -43.4184 H         1 UNK         0.0600 
    184 H184        2.6741  -10.3099  -45.3201 H         1 UNK         0.3000 
    185 H185        3.1258  -10.1111  -48.6733 H         1 UNK         0.0600 
    186 H186        4.8890   -8.3743  -48.4567 H         1 UNK         0.0600 
    187 H187        5.5107   -9.1485  -47.0042 H         1 UNK         0.0600 
    188 H188        5.6112   -9.9707  -48.5618 H         1 UNK         0.0600 
    189 H189        4.6026  -11.3549  -46.4466 H         1 UNK         0.3000 
    190 H190       -1.2318  -21.7529  -48.4916 H         1 UNK         0.3000 
    191 H191       -2.1005  -23.5651  -50.4808 H         1 UNK         0.0600 
    192 H192       -2.6572  -21.2117  -50.5505 H         1 UNK         0.0600 
    193 H193       -4.1660  -22.1103  -50.4488 H         1 UNK         0.0600 
    194 H194       -3.5119  -21.2811  -49.0287 H         1 UNK         0.0600 
    195 H195       -3.1111  -23.2438  -47.0382 H         1 UNK         0.3000 
    196 H196       -5.2197  -25.1443  -47.1343 H         1 UNK         0.0600 
    197 H197       -4.9501  -25.1918  -44.6560 H         1 UNK         0.0600 
    198 H198       -4.9411  -23.5450  -45.2654 H         1 UNK         0.0600 
    199 H199       -3.4311  -24.3155  -44.7893 H         1 UNK         0.0600 
    200 H200       -1.7215  -25.5329  -46.4003 H         1 UNK         0.3000 
    201 H201       -1.7715  -28.3466  -45.9496 H         1 UNK         0.0600 
    202 H202        0.0874  -26.8870  -45.2045 H         1 UNK         0.0600 
    203 H203        0.5139  -26.5252  -46.8746 H         1 UNK         0.0600 
    204 H204        0.6990  -28.1599  -46.2510 H         1 UNK         0.0600 
    205 H205       -1.3374  -26.4214  -48.9221 H         1 UNK         0.3000 
    206 H206       -0.8914  -28.6626  -50.6810 H         1 UNK         0.0600 
    207 H207       -0.0993  -26.3321  -51.1475 H         1 UNK         0.0600 
    208 H208       -1.1178  -26.9349  -52.4457 H         1 UNK         0.0600 
    209 H209       -1.7717  -25.7897  -51.2841 H         1 UNK         0.0600 
    210 H210       -3.7205  -27.5730  -49.1538 H         1 UNK         0.3000 
    211 H211       -5.8841  -27.9236  -49.2779 H         1 UNK         0.0600 
    212 H212       -5.3606  -30.1450  -51.3210 H         1 UNK         0.0600 
    213 H213       -6.8098  -29.9261  -50.3524 H         1 UNK         0.0600 
    214 H214       -5.2942  -30.3424  -49.5699 H         1 UNK         0.0600 
    215 H215       -4.7891  -25.8532  -50.7620 H         1 UNK         0.3000 
    216 H216       -6.4616  -25.5624  -53.2167 H         1 UNK         0.0600 
    217 H217       -4.8644  -23.7884  -53.7931 H         1 UNK         0.0600 
    218 H218       -3.9789  -25.2648  -53.4510 H         1 UNK         0.0600 
    219 H219       -4.0242  -23.9727  -52.2545 H         1 UNK         0.0600 
    220 H220       -7.8399  -25.5598  -50.8920 H         1 UNK         0.3000 
    221 H221       -9.4179  -24.5608  -49.7098 H         1 UNK         0.0600 
    222 H222       -9.3536  -22.4428  -51.9249 H         1 UNK         0.0600 
    223 H223      -10.1629  -24.0048  -52.0406 H         1 UNK         0.0600 
    224 H224      -10.7174  -22.8137  -50.8789 H         1 UNK         0.0600 
    225 H225       -6.5526  -23.5016  -49.2746 H         1 UNK         0.3000 
    226 H226       -5.3864  -22.0714  -48.0476 H         1 UNK         0.0600 
    227 H227       -7.0277  -22.5998  -46.2215 H         1 UNK         0.0600 
    228 H228       -6.3023  -21.0080  -46.0752 H         1 UNK         0.0600 
    229 H229       -7.9505  -21.1650  -46.6668 H         1 UNK         0.0600 
    230 H230       -6.6422  -21.2631  -50.6658 H         1 UNK         0.3000 
    231 H231       -6.8882  -18.3016  -50.3808 H         1 UNK         0.0600 
    232 H232       -7.9077  -20.2414  -52.5200 H         1 UNK         0.0600 
    233 H233       -8.2113  -18.5077  -52.4697 H         1 UNK         0.0600 
    234 H234       -8.8694  -19.5485  -51.2158 H         1 UNK         0.0600 
    235 H235       -4.9810  -20.8072  -52.0115 H         1 UNK         0.3000 
    236 H236       -4.0125  -19.2536  -54.1598 H         1 UNK         0.0600 
    237 H237       -3.8846  -21.6940  -54.1735 H         1 UNK         0.0600 
    238 H238       -2.2640  -21.0454  -54.3351 H         1 UNK         0.0600 
    239 H239       -2.7859  -21.7073  -52.7946 H         1 UNK         0.0600 
    240 H240       -2.1423  -18.1227  -54.5466 H         1 UNK         0.3000 
    241 H241       -0.5228  -16.7265  -54.2521 H         1 UNK         0.0600 
    242 H242       -2.8080  -14.8349  -51.7074 H         1 UNK         0.3800 
    243 H243       -3.2300  -16.3354  -52.4889 H         1 UNK         0.3800 
    244 H244        0.4741  -17.8204  -51.5954 H         1 UNK         0.0800 
    245 H245        0.5251  -18.8518  -52.9920 H         1 UNK         0.0800 
    246 H246        2.8472  -19.2496  -53.6586 H         1 UNK         0.0800 
    247 H247        4.1469  -18.0855  -53.6421 H         1 UNK         0.0800 
@<TRIPOS>BOND
     1    1    2 1    
     2    1  127 1    
     3    1  128 1    
     4    1  129 1    
     5    2    3 2    
     6    2    4 am   BACKBONE|DICT|INTERRES
     7    4    5 1    
     8    4  130 1    
     9    5    6 1    
    10    5   65 1    
    11    5  131 1    
    12    6    7 1    
    13    6  132 1    
    14    6  133 1    
    15    7    8 1    
    16    8    9 1    
    17    8  134 1    
    18    8  135 1    
    19    9   10 ar   
    20    9   14 ar   
    21   10   11 ar   
    22   10  136 1    
    23   11   12 ar   
    24   11  126 1    
    25   12   13 ar   
    26   12  137 1    
    27   13   14 ar   
    28   13   15 1    
    29   14  138 1    
    30   15   16 1    
    31   15  139 1    
    32   15  140 1    
    33   16   17 1    
    34   17   18 1    
    35   17  141 1    
    36   17  142 1    
    37   18   19 1    
    38   18   67 1    
    39   18  143 1    
    40   19   20 am   BACKBONE|DICT|INTERRES
    41   19  144 1    
    42   20   21 2    
    43   20   22 1    
    44   22   23 1    
    45   22   24 1    
    46   22  145 1    
    47   23  146 1    
    48   23  147 1    
    49   23  148 1    
    50   24   25 am   BACKBONE|DICT|INTERRES
    51   24  149 1    
    52   25   26 2    
    53   25   27 1    
    54   27   28 1    
    55   27   29 1    
    56   27  150 1    
    57   28  151 1    
    58   28  152 1    
    59   28  153 1    
    60   29   30 am   BACKBONE|DICT|INTERRES
    61   29  154 1    
    62   30   31 2    
    63   30   32 1    
    64   32   33 1    
    65   32   34 1    
    66   32  155 1    
    67   33  156 1    
    68   33  157 1    
    69   33  158 1    
    70   34   35 am   BACKBONE|DICT|INTERRES
    71   34  159 1    
    72   35   36 2    
    73   35   37 1    
    74   37   38 1    
    75   37   39 1    
    76   37  160 1    
    77   38  161 1    
    78   38  162 1    
    79   38  163 1    
    80   39   40 am   BACKBONE|DICT|INTERRES
    81   39  164 1    
    82   40   41 2    
    83   40   42 1    
    84   42   43 1    
    85   42   44 1    
    86   42  165 1    
    87   43  166 1    
    88   43  167 1    
    89   43  168 1    
    90   44   45 am   BACKBONE|DICT|INTERRES
    91   44  169 1    
    92   45   46 2    
    93   45   47 1    
    94   47   48 1    
    95   47   49 1    
    96   47  170 1    
    97   48  171 1    
    98   48  172 1    
    99   48  173 1    
   100   49   50 am   BACKBONE|DICT|INTERRES
   101   49  174 1    
   102   50   51 2    
   103   50   52 1    
   104   52   53 1    
   105   52   54 1    
   106   52  175 1    
   107   53  176 1    
   108   53  177 1    
   109   53  178 1    
   110   54   55 am   BACKBONE|DICT|INTERRES
   111   54  179 1    
   112   55   56 2    
   113   55   57 1    
   114   57   58 1    
   115   57   59 1    
   116   57  180 1    
   117   58  181 1    
   118   58  182 1    
   119   58  183 1    
   120   59   60 am   BACKBONE|DICT|INTERRES
   121   59  184 1    
   122   60   61 2    
   123   60   62 1    
   124   62   63 1    
   125   62   64 1    
   126   62  185 1    
   127   63  186 1    
   128   63  187 1    
   129   63  188 1    
   130   64   65 am   BACKBONE|DICT|INTERRES
   131   64  189 1    
   132   65   66 2    
   133   67   68 2    
   134   67   69 am   BACKBONE|DICT|INTERRES
   135   69   70 1    
   136   69  190 1    
   137   70   71 1    
   138   70   72 1    
   139   70  191 1    
   140   71  192 1    
   141   71  193 1    
   142   71  194 1    
   143   72   73 2    
   144   72   74 am   BACKBONE|DICT|INTERRES
   145   74   75 1    
   146   74  195 1    
   147   75   76 1    
   148   75   77 1    
   149   75  196 1    
   150   76  197 1    
   151   76  198 1    
   152   76  199 1    
   153   77   78 2    
   154   77   79 am   BACKBONE|DICT|INTERRES
   155   79   80 1    
   156   79  200 1    
   157   80   81 1    
   158   80   82 1    
   159   80  201 1    
   160   81  202 1    
   161   81  203 1    
   162   81  204 1    
   163   82   83 2    
   164   82   84 am   BACKBONE|DICT|INTERRES
   165   84   85 1    
   166   84  205 1    
   167   85   86 1    
   168   85   87 1    
   169   85  206 1    
   170   86  207 1    
   171   86  208 1    
   172   86  209 1    
   173   87   88 2    
   174   87   89 am   BACKBONE|DICT|INTERRES
   175   89   90 1    
   176   89  210 1    
   177   90   91 1    
   178   90   92 1    
   179   90  211 1    
   180   91  212 1    
   181   91  213 1    
   182   91  214 1    
   183   92   93 2    
   184   92   94 am   BACKBONE|DICT|INTERRES
   185   94   95 1    
   186   94  215 1    
   187   95   96 1    
   188   95   97 1    
   189   95  216 1    
   190   96  217 1    
   191   96  218 1    
   192   96  219 1    
   193   97   98 2    
   194   97   99 am   BACKBONE|DICT|INTERRES
   195   99  100 1    
   196   99  220 1    
   197  100  101 1    
   198  100  102 1    
   199  100  221 1    
   200  101  222 1    
   201  101  223 1    
   202  101  224 1    
   203  102  103 2    
   204  102  104 am   BACKBONE|DICT|INTERRES
   205  104  105 1    
   206  104  225 1    
   207  105  106 1    
   208  105  107 1    
   209  105  226 1    
   210  106  227 1    
   211  106  228 1    
   212  106  229 1    
   213  107  108 2    
   214  107  109 am   BACKBONE|DICT|INTERRES
   215  109  110 1    
   216  109  230 1    
   217  110  111 1    
   218  110  112 1    
   219  110  231 1    
   220  111  232 1    
   221  111  233 1    
   222  111  234 1    
   223  112  113 2    
   224  112  114 am   BACKBONE|DICT|INTERRES
   225  114  115 1    
   226  114  235 1    
   227  115  116 1    
   228  115  117 1    
   229  115  236 1    
   230  116  237 1    
   231  116  238 1    
   232  116  239 1    
   233  117  118 2    
   234  117  119 am   BACKBONE|DICT|INTERRES
   235  119  120 1    
   236  119  240 1    
   237  120  121 1    
   238  120  124 1    
   239  120  241 1    
   240  121  122 am   BACKBONE|DICT|INTERRES
   241  121  123 2    
   242  122  242 1    
   243  122  243 1    
   244  124  125 1    
   245  124  244 1    
   246  124  245 1    
   247  125  126 1    
   248  126  246 1    
   249  126  247 1    
@<TRIPOS>SUBSTRUCTURE
     1 UNK         1 GROUP             0       ****    0 ROOT    
