@<TRIPOS>MOLECULE
3R540
247   249    1
SMALL
USER_CHARGES


@<TRIPOS>ATOM
      1 CA         -1.5365  -14.6261  -47.8381 C.3       0 UNK        -0.1800 
      2 C          -0.5913  -13.4548  -48.0579 C.2       0 UNK         0.5000 
      3 O          -0.9686  -12.3065  -47.8263 O.2       0 UNK        -0.5000 
      4 N           0.6350  -13.7440  -48.5107 N.am      1 UNK        -0.5000 
      5 CA          1.6672  -12.7541  -48.8506 C.3       1 UNK         0.1400 
      6 C6          2.7759  -13.3730  -49.7343 C.3       23 UNK        -0.0398 
      7 S7          2.1341  -13.8570  -51.3734 S.3       23 UNK        -0.2404 
      8 C8          3.3431  -15.1139  -51.8868 C.3       23 UNK        -0.0205 
      9 C9          2.7961  -16.5238  -51.7249 C.ar      23 UNK        -0.0193 
     10 C10         2.2001  -17.1701  -52.8124 C.ar      23 UNK        -0.1150 
     11 C11         1.7520  -18.4890  -52.6997 C.ar      23 UNK        -0.0193 
     12 C12         1.8828  -19.1506  -51.4753 C.ar      23 UNK        -0.1150 
     13 C13         2.4569  -18.5126  -50.3702 C.ar      23 UNK        -0.0193 
     14 C14         2.9224  -17.1994  -50.5076 C.ar      23 UNK        -0.1150 
     15 C15         2.6284  -19.2848  -49.0636 C.3       23 UNK        -0.0205 
     16 S16         2.2890  -18.3199  -47.5503 S.3       23 UNK        -0.2404 
     17 C17         0.5554  -17.8026  -47.7588 C.3       23 UNK        -0.0398 
     18 CA         -0.4618  -18.9654  -47.7043 C.3       11 UNK         0.1400 
     19 N          -0.4106  -19.7655  -46.4762 N.am      11 UNK        -0.5000 
     20 C          -1.0648  -20.9291  -46.3199 C.2       10 UNK         0.5000 
     21 O          -1.8550  -21.3783  -47.1555 O.2       10 UNK        -0.5000 
     22 CA         -0.8160  -21.7150  -45.0176 C.3       10 UNK         0.1400 
     23 CB         -1.1257  -23.2186  -45.1623 C.3       10 UNK        -0.1800 
     24 N           0.5179  -21.5162  -44.4528 N.am      10 UNK        -0.5000 
     25 C           1.7122  -21.7673  -45.0116 C.2       9 UNK         0.5000 
     26 O           1.8594  -22.2578  -46.1313 O.2       9 UNK        -0.5000 
     27 CA          2.9514  -21.4051  -44.1669 C.3       9 UNK         0.1400 
     28 CB          3.9352  -20.5172  -44.9467 C.3       9 UNK        -0.1800 
     29 N           2.5628  -20.7066  -42.9390 N.am      9 UNK        -0.5000 
     30 C           2.6562  -21.2103  -41.7034 C.2       8 UNK         0.5000 
     31 O           3.1780  -22.2939  -41.4392 O.2       8 UNK        -0.5000 
     32 CA          2.0419  -20.3718  -40.5683 C.3       8 UNK         0.1400 
     33 CB          3.0820  -19.3894  -40.0080 C.3       8 UNK        -0.1800 
     34 N           0.8273  -19.6396  -40.9495 N.am      8 UNK        -0.5000 
     35 C          -0.3476  -20.2190  -41.2443 C.2       7 UNK         0.5000 
     36 O          -0.4884  -21.4343  -41.3733 O.2       7 UNK        -0.5000 
     37 CA         -1.5706  -19.3059  -41.4348 C.3       7 UNK         0.1400 
     38 CB         -2.1151  -18.8491  -40.0729 C.3       7 UNK        -0.1800 
     39 N          -1.2441  -18.1311  -42.2353 N.am      7 UNK        -0.5000 
     40 C          -1.6637  -17.9141  -43.4885 C.2       6 UNK         0.5000 
     41 O          -2.4051  -18.6673  -44.1255 O.2       6 UNK        -0.5000 
     42 CA         -1.1100  -16.6549  -44.1811 C.3       6 UNK         0.1400 
     43 CB         -1.9316  -15.4211  -43.7790 C.3       6 UNK        -0.1800 
     44 N           0.3022  -16.3905  -43.9108 N.am      6 UNK        -0.5000 
     45 C           1.3128  -17.2705  -43.9442 C.2       5 UNK         0.5000 
     46 O           1.1941  -18.4479  -44.2852 O.2       5 UNK        -0.5000 
     47 CA          2.6750  -16.7670  -43.4382 C.3       5 UNK         0.1400 
     48 CB          3.5131  -16.2303  -44.6061 C.3       5 UNK        -0.1800 
     49 N           2.5780  -15.7379  -42.3968 N.am      5 UNK        -0.5000 
     50 C           1.9551  -15.8657  -41.2141 C.2       4 UNK         0.5000 
     51 O           1.3073  -16.8584  -40.8773 O.2       4 UNK        -0.5000 
     52 CA          2.0423  -14.6543  -40.2722 C.3       4 UNK         0.1400 
     53 CB          3.4694  -14.4745  -39.7310 C.3       4 UNK        -0.1800 
     54 N           1.6143  -13.4341  -40.9543 N.am      4 UNK        -0.5000 
     55 C           0.3327  -13.1264  -41.1950 C.2       3 UNK         0.5000 
     56 O          -0.6192  -13.7801  -40.7685 O.2       3 UNK        -0.5000 
     57 CA          0.0650  -11.8899  -42.0734 C.3       3 UNK         0.1400 
     58 CB         -0.0950  -10.6353  -41.2012 C.3       3 UNK        -0.1800 
     59 N           1.0892  -11.6393  -43.0937 N.am      3 UNK        -0.5000 
     60 C           1.3778  -12.4652  -44.1073 C.2       2 UNK         0.5000 
     61 O           0.8879  -13.5893  -44.2424 O.2       2 UNK        -0.5000 
     62 CA          2.3904  -11.9575  -45.1399 C.3       2 UNK         0.1400 
     63 CB          3.8344  -12.2817  -44.7223 C.3       2 UNK        -0.1800 
     64 N           2.0772  -12.5856  -46.4183 N.am      2 UNK        -0.5000 
     65 C           2.2696  -12.0337  -47.6214 C.2       1 UNK         0.5000 
     66 O           2.8788  -10.9757  -47.7882 O.2       1 UNK        -0.5000 
     67 C          -1.8783  -18.4623  -48.0430 C.2       11 UNK         0.5000 
     68 O          -2.2173  -18.4006  -49.2213 O.2       11 UNK        -0.5000 
     69 N          -2.6871  -18.1533  -47.0226 N.am      12 UNK        -0.5000 
     70 CA         -4.0979  -17.8034  -47.1803 C.3       12 UNK         0.1400 
     71 CB         -4.4583  -16.6589  -46.2222 C.3       12 UNK        -0.1800 
     72 C          -4.9883  -19.0212  -46.8993 C.2       12 UNK         0.5000 
     73 O          -5.9960  -19.2031  -47.5813 O.2       12 UNK        -0.5000 
     74 N          -4.6048  -19.8208  -45.8925 N.am      13 UNK        -0.5000 
     75 CA         -5.3811  -20.9496  -45.3820 C.3       13 UNK         0.1400 
     76 CB         -4.7364  -21.4563  -44.0830 C.3       13 UNK        -0.1800 
     77 C          -5.5700  -22.1073  -46.3804 C.2       13 UNK         0.5000 
     78 O          -6.5973  -22.7834  -46.3075 O.2       13 UNK        -0.5000 
     79 N          -4.5985  -22.3265  -47.2782 N.am      14 UNK        -0.5000 
     80 CA         -4.6405  -23.4134  -48.2565 C.3       14 UNK         0.1400 
     81 CB         -3.9247  -24.6517  -47.6947 C.3       14 UNK        -0.1800 
     82 C          -4.0550  -23.0265  -49.6204 C.2       14 UNK         0.5000 
     83 O          -4.5797  -23.4874  -50.6372 O.2       14 UNK        -0.5000 
     84 N          -2.9749  -22.2304  -49.6473 N.am      15 UNK        -0.5000 
     85 CA         -2.2520  -21.9190  -50.8827 C.3       15 UNK         0.1400 
     86 CB         -0.8677  -21.3312  -50.5875 C.3       15 UNK        -0.1800 
     87 C          -3.0792  -21.0361  -51.8271 C.2       15 UNK         0.5000 
     88 O          -3.5185  -21.5357  -52.8622 O.2       15 UNK        -0.5000 
     89 N          -3.3396  -19.7790  -51.4366 N.am      16 UNK        -0.5000 
     90 CA         -4.1424  -18.8129  -52.1987 C.3       16 UNK         0.1400 
     91 CB         -4.0030  -17.4151  -51.5795 C.3       16 UNK        -0.1800 
     92 C          -5.6293  -19.2024  -52.3176 C.2       16 UNK         0.5000 
     93 O          -6.3079  -18.7353  -53.2324 O.2       16 UNK        -0.5000 
     94 N          -6.0957  -20.0862  -51.4237 N.am      17 UNK        -0.5000 
     95 CA         -7.4043  -20.7412  -51.4838 C.3       17 UNK         0.1400 
     96 CB         -7.6869  -21.4046  -50.1264 C.3       17 UNK        -0.1800 
     97 C          -7.5204  -21.7756  -52.6262 C.2       17 UNK         0.5000 
     98 O          -8.6283  -22.2355  -52.9037 O.2       17 UNK        -0.5000 
     99 N          -6.3856  -22.1245  -53.2540 N.am      18 UNK        -0.5000 
    100 CA        -6.2167  -23.0685  -54.3631 C.3       18 UNK         0.1400 
    101 CB        -7.0426  -22.6517  -55.5982 C.3       18 UNK        -0.1800 
    102 C         -6.4347  -24.5370  -53.9554 C.2       18 UNK         0.5000 
    103 O         -6.6816  -25.3819  -54.8178 O.2       18 UNK        -0.5000 
    104 N         -6.3094  -24.8258  -52.6536 N.am      19 UNK        -0.5000 
    105 CA        -6.3180  -26.1808  -52.1127 C.3       19 UNK         0.1400 
    106 CB        -6.8051  -26.1523  -50.6552 C.3       19 UNK        -0.1800 
    107 C         -4.9195  -26.8098  -52.2150 C.2       19 UNK         0.5000 
    108 O         -4.8116  -27.9842  -52.5702 O.2       19 UNK        -0.5000 
    109 N         -3.8820  -26.0161  -51.9109 N.am      20 UNK        -0.5000 
    110 CA        -2.4888  -26.4595  -51.8957 C.3       20 UNK         0.1400 
    111 CB        -1.8382  -26.0487  -50.5648 C.3       20 UNK        -0.1800 
    112 C         -1.6627  -25.9293  -53.0795 C.2       20 UNK         0.5000 
    113 O         -0.7375  -26.6277  -53.4973 O.2       20 UNK        -0.5000 
    114 N         -1.9627  -24.7247  -53.5927 N.am      21 UNK        -0.5000 
    115 CA        -1.1355  -24.0669  -54.6087 C.3       21 UNK         0.1400 
    116 CB         0.1895  -23.5617  -53.9858 C.3       21 UNK        -0.1800 
    117 C         -1.9125  -22.9873  -55.3880 C.2       21 UNK         0.5000 
    118 O         -2.8637  -23.3237  -56.0930 O.2       21 UNK        -0.5000 
    119 N         -1.4384  -21.7369  -55.3042 N.am      22 UNK        -0.5000 
    120 CA        -1.7527  -20.5923  -56.1764 C.3       22 UNK         0.1400 
    121 C         -3.2230  -20.0857  -56.2360 C.2       22 UNK         0.5000 
    122 N         -4.0978  -20.4528  -55.3161 N.am      22 UNK        -0.7600 
    123 O         -3.5789  -19.3505  -57.1533 O.2       22 UNK        -0.5000 
    124 C124       -0.7480  -19.4278  -55.9524 C.3       23 UNK        -0.0398 
    125 S125       -0.5657  -18.8774  -54.2103 S.3       23 UNK        -0.2404 
    126 C126        1.2031  -19.2141  -53.9229 C.3       23 UNK        -0.0205 
    127 H127       -1.4810  -14.9615  -46.8041 H         1 UNK         0.0600 
    128 H128       -2.5641  -14.3298  -48.0486 H         1 UNK         0.0600 
    129 H129       -1.2920  -15.4630  -48.4916 H         1 UNK         0.0600 
    130 H130        0.8792  -14.7032  -48.7065 H         1 UNK         0.3000 
    131 H131        1.1812  -11.9707  -49.4368 H         1 UNK         0.0600 
    132 H132        3.2214  -14.2364  -49.2376 H         1 UNK         0.0800 
    133 H133        3.5860  -12.6604  -49.9020 H         1 UNK         0.0800 
    134 H134        3.6024  -14.9366  -52.9318 H         1 UNK         0.0800 
    135 H135        4.2736  -15.0023  -51.3280 H         1 UNK         0.0800 
    136 H136        2.1114  -16.6560  -53.7593 H         1 UNK         0.1150 
    137 H137        1.5698  -20.1792  -51.3916 H         1 UNK         0.1150 
    138 H138        3.3980  -16.7076  -49.6712 H         1 UNK         0.1150 
    139 H139        2.0035  -20.1788  -49.0562 H         1 UNK         0.0800 
    140 H140        3.6580  -19.6405  -49.0137 H         1 UNK         0.0800 
    141 H141        0.4791  -17.2745  -48.7110 H         1 UNK         0.0800 
    142 H142        0.3379  -17.0659  -46.9857 H         1 UNK         0.0800 
    143 H143       -0.1839  -19.6500  -48.5003 H         1 UNK         0.0600 
    144 H144        0.2285  -19.4529  -45.7513 H         1 UNK         0.3000 
    145 H145       -1.5070  -21.3025  -44.2830 H         1 UNK         0.0600 
    146 H146       -0.9502  -23.7484  -44.2261 H         1 UNK         0.0600 
    147 H147       -2.1693  -23.3814  -45.4325 H         1 UNK         0.0600 
    148 H148       -0.5116  -23.6847  -45.9335 H         1 UNK         0.0600 
    149 H149        0.5302  -21.1453  -43.5135 H         1 UNK         0.3000 
    150 H150        3.4560  -22.3451  -43.9359 H         1 UNK         0.0600 
    151 H151        4.2351  -20.9845  -45.8854 H         1 UNK         0.0600 
    152 H152        4.8419  -20.3374  -44.3693 H         1 UNK         0.0600 
    153 H153        3.4978  -19.5494  -45.1861 H         1 UNK         0.0600 
    154 H154        2.0964  -19.8169  -43.0783 H         1 UNK         0.3000 
    155 H155        1.7694  -21.0613  -39.7664 H         1 UNK         0.0600 
    156 H156        3.4142  -18.6781  -40.7643 H         1 UNK         0.0600 
    157 H157        3.9648  -19.9193  -39.6482 H         1 UNK         0.0600 
    158 H158        2.6790  -18.8229  -39.1683 H         1 UNK         0.0600 
    159 H159        0.8840  -18.6260  -40.8777 H         1 UNK         0.3000 
    160 H160       -2.3484  -19.8952  -41.9255 H         1 UNK         0.0600 
    161 H161       -3.0234  -18.2584  -40.1928 H         1 UNK         0.0600 
    162 H162       -1.3901  -18.2403  -39.5309 H         1 UNK         0.0600 
    163 H163       -2.3642  -19.7046  -39.4436 H         1 UNK         0.0600 
    164 H164       -0.5934  -17.4708  -41.8270 H         1 UNK         0.3000 
    165 H165       -1.2087  -16.7950  -45.2550 H         1 UNK         0.0600 
    166 H166       -1.6465  -14.5454  -44.3617 H         1 UNK         0.0600 
    167 H167       -2.9979  -15.5794  -43.9345 H         1 UNK         0.0600 
    168 H168       -1.7943  -15.1789  -42.7253 H         1 UNK         0.0600 
    169 H169        0.5330  -15.4255  -43.6918 H         1 UNK         0.3000 
    170 H170        3.2008  -17.6194  -43.0050 H         1 UNK         0.0600 
    171 H171        3.7283  -17.0215  -45.3239 H         1 UNK         0.0600 
    172 H172        2.9939  -15.4354  -45.1426 H         1 UNK         0.0600 
    173 H173        4.4722  -15.8418  -44.2638 H         1 UNK         0.0600 
    174 H174        3.0458  -14.8669  -42.5931 H         1 UNK         0.3000 
    175 H175        1.3819  -14.8401  -39.4223 H         1 UNK         0.0600 
    176 H176        4.1838  -14.2501  -40.5240 H         1 UNK         0.0600 
    177 H177        3.5129  -13.6634  -39.0040 H         1 UNK         0.0600 
    178 H178        3.8114  -15.3796  -39.2272 H         1 UNK         0.0600 
    179 H179        2.3327  -12.8324  -41.3284 H         1 UNK         0.3000 
    180 H180       -0.8793  -12.0642  -42.5937 H         1 UNK         0.0600 
    181 H181        0.8302  -10.3867  -40.6798 H         1 UNK         0.0600 
    182 H182       -0.8687  -10.7802  -40.4459 H         1 UNK         0.0600 
    183 H183       -0.3865   -9.7723  -41.8001 H         1 UNK         0.0600 
    184 H184        1.5488  -10.7410  -43.0506 H         1 UNK         0.3000 
    185 H185        2.2727  -10.8752  -45.2282 H         1 UNK         0.0600 
    186 H186        4.0791  -11.8177  -43.7662 H         1 UNK         0.0600 
    187 H187        3.9963  -13.3534  -44.6184 H         1 UNK         0.0600 
    188 H188        4.5488  -11.9073  -45.4555 H         1 UNK         0.0600 
    189 H189        1.5187  -13.4260  -46.3414 H         1 UNK         0.3000 
    190 H190       -2.3651  -18.3157  -46.0758 H         1 UNK         0.3000 
    191 H191       -4.2975  -17.4611  -48.1970 H         1 UNK         0.0600 
    192 H192       -4.3811  -16.9669  -45.1794 H         1 UNK         0.0600 
    193 H193       -5.4842  -16.3269  -46.3861 H         1 UNK         0.0600 
    194 H194       -3.8116  -15.7954  -46.3705 H         1 UNK         0.0600 
    195 H195       -3.7860  -19.5634  -45.3545 H         1 UNK         0.3000 
    196 H196       -6.3754  -20.5712  -45.1355 H         1 UNK         0.0600 
    197 H197       -3.7525  -21.8851  -44.2642 H         1 UNK         0.0600 
    198 H198       -5.3489  -22.2320  -43.6218 H         1 UNK         0.0600 
    199 H199       -4.6255  -20.6533  -43.3538 H         1 UNK         0.0600 
    200 H200       -3.7627  -21.7511  -47.2585 H         1 UNK         0.3000 
    201 H201       -5.6799  -23.6877  -48.4470 H         1 UNK         0.0600 
    202 H202       -2.8598  -24.4683  -47.5468 H         1 UNK         0.0600 
    203 H203       -4.0239  -25.4982  -48.3746 H         1 UNK         0.0600 
    204 H204       -4.3496  -24.9557  -46.7381 H         1 UNK         0.0600 
    205 H205       -2.5617  -21.9057  -48.7767 H         1 UNK         0.3000 
    206 H206       -2.0798  -22.8656  -51.3967 H         1 UNK         0.0600 
    207 H207       -0.4082  -21.7872  -49.7102 H         1 UNK         0.0600 
    208 H208       -0.2033  -21.5110  -51.4288 H         1 UNK         0.0600 
    209 H209       -0.8962  -20.2538  -50.4485 H         1 UNK         0.0600 
    210 H210       -2.9299  -19.4254  -50.5743 H         1 UNK         0.3000 
    211 H211       -3.7317  -18.7666  -53.2083 H         1 UNK         0.0600 
    212 H212       -4.4047  -17.3835  -50.5670 H         1 UNK         0.0600 
    213 H213       -4.5406  -16.6712  -52.1687 H         1 UNK         0.0600 
    214 H214       -2.9589  -17.1036  -51.5402 H         1 UNK         0.0600 
    215 H215       -5.4661  -20.3994  -50.7000 H         1 UNK         0.3000 
    216 H216       -8.1625  -19.9749  -51.6566 H         1 UNK         0.0600 
    217 H217       -8.6872  -21.8386  -50.1043 H         1 UNK         0.0600 
    218 H218       -7.6299  -20.6828  -49.3115 H         1 UNK         0.0600 
    219 H219       -6.9804  -22.2063  -49.9154 H         1 UNK         0.0600 
    220 H220       -5.5188  -21.7233  -52.9136 H         1 UNK         0.3000 
    221 H221       -5.1658  -23.0037  -54.6442 H         1 UNK         0.0600 
    222 H222       -8.1115  -22.7968  -55.4420 H         1 UNK         0.0600 
    223 H223       -6.8776  -21.6042  -55.8494 H         1 UNK         0.0600 
    224 H224       -6.7589  -23.2403  -56.4713 H         1 UNK         0.0600 
    225 H225       -6.0525  -24.0834  -52.0137 H         1 UNK         0.3000 
    226 H226       -7.0139  -26.7975  -52.6858 H         1 UNK         0.0600 
    227 H227       -7.7970  -25.7063  -50.5803 H         1 UNK         0.0600 
    228 H228       -6.8705  -27.1623  -50.2490 H         1 UNK         0.0600 
    229 H229       -6.1342  -25.5855  -50.0108 H         1 UNK         0.0600 
    230 H230       -4.0740  -25.0710  -51.5929 H         1 UNK         0.3000 
    231 H231       -2.4420  -27.5494  -51.9469 H         1 UNK         0.0600 
    232 H232       -2.3355  -26.5291  -49.7228 H         1 UNK         0.0600 
    233 H233       -1.8715  -24.9722  -50.4062 H         1 UNK         0.0600 
    234 H234       -0.7904  -26.3505  -50.5318 H         1 UNK         0.0600 
    235 H235       -2.7709  -24.2135  -53.2677 H         1 UNK         0.3000 
    236 H236       -0.8732  -24.8129  -55.3621 H         1 UNK         0.0600 
    237 H237        0.0113  -22.8420  -53.1903 H         1 UNK         0.0600 
    238 H238        0.7703  -24.3800  -53.5608 H         1 UNK         0.0600 
    239 H239        0.8278  -23.0888  -54.7335 H         1 UNK         0.0600 
    240 H240       -0.6912  -21.5664  -54.6494 H         1 UNK         0.3000 
    241 H241       -1.5692  -20.9588  -57.1883 H         1 UNK         0.0600 
    242 H242       -5.0438  -20.1140  -55.3731 H         1 UNK         0.3800 
    243 H243       -3.7973  -21.0100  -54.5192 H         1 UNK         0.3800 
    244 H244        0.2268  -19.7390  -56.3292 H         1 UNK         0.0800 
    245 H245       -1.0148  -18.5600  -56.5583 H         1 UNK         0.0800 
    246 H246        1.7789  -18.9054  -54.7968 H         1 UNK         0.0800 
    247 H247        1.3528  -20.2903  -53.8249 H         1 UNK         0.0800 
@<TRIPOS>BOND
     1    1    2 1    
     2    1  127 1    
     3    1  128 1    
     4    1  129 1    
     5    2    3 2    
     6    2    4 am   BACKBONE|DICT|INTERRES
     7    4    5 1    
     8    4  130 1    
     9    5    6 1    
    10    5   65 1    
    11    5  131 1    
    12    6    7 1    
    13    6  132 1    
    14    6  133 1    
    15    7    8 1    
    16    8    9 1    
    17    8  134 1    
    18    8  135 1    
    19    9   10 ar   
    20    9   14 ar   
    21   10   11 ar   
    22   10  136 1    
    23   11   12 ar   
    24   11  126 1    
    25   12   13 ar   
    26   12  137 1    
    27   13   14 ar   
    28   13   15 1    
    29   14  138 1    
    30   15   16 1    
    31   15  139 1    
    32   15  140 1    
    33   16   17 1    
    34   17   18 1    
    35   17  141 1    
    36   17  142 1    
    37   18   19 1    
    38   18   67 1    
    39   18  143 1    
    40   19   20 am   BACKBONE|DICT|INTERRES
    41   19  144 1    
    42   20   21 2    
    43   20   22 1    
    44   22   23 1    
    45   22   24 1    
    46   22  145 1    
    47   23  146 1    
    48   23  147 1    
    49   23  148 1    
    50   24   25 am   BACKBONE|DICT|INTERRES
    51   24  149 1    
    52   25   26 2    
    53   25   27 1    
    54   27   28 1    
    55   27   29 1    
    56   27  150 1    
    57   28  151 1    
    58   28  152 1    
    59   28  153 1    
    60   29   30 am   BACKBONE|DICT|INTERRES
    61   29  154 1    
    62   30   31 2    
    63   30   32 1    
    64   32   33 1    
    65   32   34 1    
    66   32  155 1    
    67   33  156 1    
    68   33  157 1    
    69   33  158 1    
    70   34   35 am   BACKBONE|DICT|INTERRES
    71   34  159 1    
    72   35   36 2    
    73   35   37 1    
    74   37   38 1    
    75   37   39 1    
    76   37  160 1    
    77   38  161 1    
    78   38  162 1    
    79   38  163 1    
    80   39   40 am   BACKBONE|DICT|INTERRES
    81   39  164 1    
    82   40   41 2    
    83   40   42 1    
    84   42   43 1    
    85   42   44 1    
    86   42  165 1    
    87   43  166 1    
    88   43  167 1    
    89   43  168 1    
    90   44   45 am   BACKBONE|DICT|INTERRES
    91   44  169 1    
    92   45   46 2    
    93   45   47 1    
    94   47   48 1    
    95   47   49 1    
    96   47  170 1    
    97   48  171 1    
    98   48  172 1    
    99   48  173 1    
   100   49   50 am   BACKBONE|DICT|INTERRES
   101   49  174 1    
   102   50   51 2    
   103   50   52 1    
   104   52   53 1    
   105   52   54 1    
   106   52  175 1    
   107   53  176 1    
   108   53  177 1    
   109   53  178 1    
   110   54   55 am   BACKBONE|DICT|INTERRES
   111   54  179 1    
   112   55   56 2    
   113   55   57 1    
   114   57   58 1    
   115   57   59 1    
   116   57  180 1    
   117   58  181 1    
   118   58  182 1    
   119   58  183 1    
   120   59   60 am   BACKBONE|DICT|INTERRES
   121   59  184 1    
   122   60   61 2    
   123   60   62 1    
   124   62   63 1    
   125   62   64 1    
   126   62  185 1    
   127   63  186 1    
   128   63  187 1    
   129   63  188 1    
   130   64   65 am   BACKBONE|DICT|INTERRES
   131   64  189 1    
   132   65   66 2    
   133   67   68 2    
   134   67   69 am   BACKBONE|DICT|INTERRES
   135   69   70 1    
   136   69  190 1    
   137   70   71 1    
   138   70   72 1    
   139   70  191 1    
   140   71  192 1    
   141   71  193 1    
   142   71  194 1    
   143   72   73 2    
   144   72   74 am   BACKBONE|DICT|INTERRES
   145   74   75 1    
   146   74  195 1    
   147   75   76 1    
   148   75   77 1    
   149   75  196 1    
   150   76  197 1    
   151   76  198 1    
   152   76  199 1    
   153   77   78 2    
   154   77   79 am   BACKBONE|DICT|INTERRES
   155   79   80 1    
   156   79  200 1    
   157   80   81 1    
   158   80   82 1    
   159   80  201 1    
   160   81  202 1    
   161   81  203 1    
   162   81  204 1    
   163   82   83 2    
   164   82   84 am   BACKBONE|DICT|INTERRES
   165   84   85 1    
   166   84  205 1    
   167   85   86 1    
   168   85   87 1    
   169   85  206 1    
   170   86  207 1    
   171   86  208 1    
   172   86  209 1    
   173   87   88 2    
   174   87   89 am   BACKBONE|DICT|INTERRES
   175   89   90 1    
   176   89  210 1    
   177   90   91 1    
   178   90   92 1    
   179   90  211 1    
   180   91  212 1    
   181   91  213 1    
   182   91  214 1    
   183   92   93 2    
   184   92   94 am   BACKBONE|DICT|INTERRES
   185   94   95 1    
   186   94  215 1    
   187   95   96 1    
   188   95   97 1    
   189   95  216 1    
   190   96  217 1    
   191   96  218 1    
   192   96  219 1    
   193   97   98 2    
   194   97   99 am   BACKBONE|DICT|INTERRES
   195   99  100 1    
   196   99  220 1    
   197  100  101 1    
   198  100  102 1    
   199  100  221 1    
   200  101  222 1    
   201  101  223 1    
   202  101  224 1    
   203  102  103 2    
   204  102  104 am   BACKBONE|DICT|INTERRES
   205  104  105 1    
   206  104  225 1    
   207  105  106 1    
   208  105  107 1    
   209  105  226 1    
   210  106  227 1    
   211  106  228 1    
   212  106  229 1    
   213  107  108 2    
   214  107  109 am   BACKBONE|DICT|INTERRES
   215  109  110 1    
   216  109  230 1    
   217  110  111 1    
   218  110  112 1    
   219  110  231 1    
   220  111  232 1    
   221  111  233 1    
   222  111  234 1    
   223  112  113 2    
   224  112  114 am   BACKBONE|DICT|INTERRES
   225  114  115 1    
   226  114  235 1    
   227  115  116 1    
   228  115  117 1    
   229  115  236 1    
   230  116  237 1    
   231  116  238 1    
   232  116  239 1    
   233  117  118 2    
   234  117  119 am   BACKBONE|DICT|INTERRES
   235  119  120 1    
   236  119  240 1    
   237  120  121 1    
   238  120  124 1    
   239  120  241 1    
   240  121  122 am   BACKBONE|DICT|INTERRES
   241  121  123 2    
   242  122  242 1    
   243  122  243 1    
   244  124  125 1    
   245  124  244 1    
   246  124  245 1    
   247  125  126 1    
   248  126  246 1    
   249  126  247 1    
@<TRIPOS>SUBSTRUCTURE
     1 UNK         1 GROUP             0       ****    0 ROOT    
