@<TRIPOS>MOLECULE
3R540
247   249    1
SMALL
USER_CHARGES


@<TRIPOS>ATOM
      1 CA          3.8677  -18.0687  -43.4243 C.3       0 UNK        -0.1800 
      2 C           3.6115  -16.8239  -44.2600 C.2       0 UNK         0.5000 
      3 O           3.4310  -15.7400  -43.7101 O.2       0 UNK        -0.5000 
      4 N           3.6212  -16.9660  -45.5908 N.am      1 UNK        -0.5000 
      5 CA          3.3448  -15.8998  -46.5656 C.3       1 UNK         0.1400 
      6 C6          3.2754  -16.4944  -47.9915 C.3       23 UNK        -0.0398 
      7 S7          2.3692  -15.4784  -49.2054 S.3       23 UNK        -0.2404 
      8 C8          2.9226  -16.2319  -50.7729 C.3       23 UNK        -0.0205 
      9 C9          2.3703  -17.6395  -50.9580 C.ar      23 UNK        -0.0193 
     10 C10         1.2118  -17.8567  -51.7106 C.ar      23 UNK        -0.1150 
     11 C11         0.6990  -19.1489  -51.8634 C.ar      23 UNK        -0.0193 
     12 C12         1.3297  -20.2209  -51.2244 C.ar      23 UNK        -0.1150 
     13 C13         2.4895  -20.0176  -50.4720 C.ar      23 UNK        -0.0193 
     14 C14         3.0224  -18.7299  -50.3754 C.ar      23 UNK        -0.1150 
     15 C15         3.1667  -21.1923  -49.7758 C.3       23 UNK        -0.0205 
     16 S16         3.5538  -20.8830  -48.0160 S.3       23 UNK        -0.2404 
     17 C17         1.9319  -20.4504  -47.3001 C.3       23 UNK        -0.0398 
     18 CA          1.1213  -21.6903  -46.8405 C.3       11 UNK         0.1400 
     19 N           0.4095  -21.4501  -45.5832 N.am      11 UNK        -0.5000 
     20 C          -0.1959  -22.3959  -44.8511 C.2       10 UNK         0.5000 
     21 O          -0.1607  -23.5978  -45.1161 O.2       10 UNK        -0.5000 
     22 CA         -1.0235  -21.9007  -43.6517 C.3       10 UNK         0.1400 
     23 CB         -0.1293  -21.6957  -42.4201 C.3       10 UNK        -0.1800 
     24 N          -1.7339  -20.6569  -43.9594 N.am      10 UNK        -0.5000 
     25 C          -2.7798  -20.5869  -44.7978 C.2       9 UNK         0.5000 
     26 O          -3.2782  -21.5725  -45.3401 O.2       9 UNK        -0.5000 
     27 CA         -3.3382  -19.1878  -45.1271 C.3       9 UNK         0.1400 
     28 CB         -4.4504  -18.8081  -44.1396 C.3       9 UNK        -0.1800 
     29 N          -2.3208  -18.1367  -45.1326 N.am      9 UNK        -0.5000 
     30 C          -1.2428  -18.1092  -45.9299 C.2       8 UNK         0.5000 
     31 O          -1.0130  -18.9540  -46.7927 O.2       8 UNK        -0.5000 
     32 CA         -0.2162  -16.9859  -45.6974 C.3       8 UNK         0.1400 
     33 CB         -0.4643  -15.8510  -46.7021 C.3       8 UNK        -0.1800 
     34 N          -0.2114  -16.4469  -44.3335 N.am      8 UNK        -0.5000 
     35 C          -0.0440  -17.1531  -43.2043 C.2       7 UNK         0.5000 
     36 O           0.1602  -18.3676  -43.1866 O.2       7 UNK        -0.5000 
     37 CA         -0.1960  -16.3947  -41.8716 C.3       7 UNK         0.1400 
     38 CB          1.1669  -15.9934  -41.2901 C.3       7 UNK        -0.1800 
     39 N          -1.0373  -15.2027  -41.9892 N.am      7 UNK        -0.5000 
     40 C          -2.3705  -15.2172  -42.1289 C.2       6 UNK         0.5000 
     41 O          -3.0437  -16.2471  -42.1605 O.2       6 UNK        -0.5000 
     42 CA         -3.0565  -13.8474  -42.2874 C.3       6 UNK         0.1400 
     43 CB         -3.2947  -13.1986  -40.9154 C.3       6 UNK        -0.1800 
     44 N          -2.2708  -12.9377  -43.1230 N.am      6 UNK        -0.5000 
     45 C          -2.1532  -13.0505  -44.4539 C.2       5 UNK         0.5000 
     46 O          -2.7810  -13.8695  -45.1230 O.2       5 UNK        -0.5000 
     47 CA         -1.1479  -12.1111  -45.1511 C.3       5 UNK         0.1400 
     48 CB         -1.8597  -10.8560  -45.6777 C.3       5 UNK        -0.1800 
     49 N          -0.0369  -11.7066  -44.2833 N.am      5 UNK        -0.5000 
     50 C           0.9059  -12.5370  -43.8193 C.2       4 UNK         0.5000 
     51 O           0.9568  -13.7360  -44.0962 O.2       4 UNK        -0.5000 
     52 CA          1.8945  -11.9392  -42.8120 C.3       4 UNK         0.1400 
     53 CB          1.2433  -11.8781  -41.4141 C.3       4 UNK        -0.1800 
     54 N           3.1198  -12.7350  -42.7641 N.am      4 UNK        -0.5000 
     55 C           4.2625  -12.3262  -42.1960 C.2       3 UNK         0.5000 
     56 O           4.4130  -11.2145  -41.6867 O.2       3 UNK        -0.5000 
     57 CA          5.4418  -13.3098  -42.1997 C.3       3 UNK         0.1400 
     58 CB          5.2196  -14.4461  -41.1873 C.3       3 UNK        -0.1800 
     59 N           5.6739  -13.8626  -43.5323 N.am      3 UNK        -0.5000 
     60 C           6.4382  -13.2777  -44.4668 C.2       2 UNK         0.5000 
     61 O           7.0186  -12.2048  -44.2944 O.2       2 UNK        -0.5000 
     62 CA          6.6173  -14.0100  -45.8129 C.3       2 UNK         0.1400 
     63 CB          7.9865  -14.7060  -45.8650 C.3       2 UNK        -0.1800 
     64 N           5.5781  -15.0044  -46.0739 N.am      2 UNK        -0.5000 
     65 C           4.3333  -14.7145  -46.4755 C.2       1 UNK         0.5000 
     66 O           3.9498  -13.5719  -46.7285 O.2       1 UNK        -0.5000 
     67 C           0.1450  -22.1626  -47.9349 C.2       11 UNK         0.5000 
     68 O           0.4244  -23.1445  -48.6197 O.2       11 UNK        -0.5000 
     69 N          -1.0066  -21.4846  -48.0354 N.am      12 UNK        -0.5000 
     70 CA         -2.1007  -21.8063  -48.9475 C.3       12 UNK         0.1400 
     71 CB         -3.2013  -20.7434  -48.8210 C.3       12 UNK        -0.1800 
     72 C          -2.6738  -23.2124  -48.7097 C.2       12 UNK         0.5000 
     73 O          -2.8803  -23.9494  -49.6723 O.2       12 UNK        -0.5000 
     74 N          -2.8798  -23.5777  -47.4368 N.am      13 UNK        -0.5000 
     75 CA         -3.3153  -24.9098  -47.0186 C.3       13 UNK         0.1400 
     76 CB         -3.6126  -24.9074  -45.5120 C.3       13 UNK        -0.1800 
     77 C          -2.2996  -26.0094  -47.3787 C.2       13 UNK         0.5000 
     78 O          -2.7015  -27.0567  -47.8862 O.2       13 UNK        -0.5000 
     79 N          -1.0059  -25.7403  -47.1499 N.am      14 UNK        -0.5000 
     80 CA          0.1001  -26.6360  -47.4978 C.3       14 UNK         0.1400 
     81 CB          1.3980  -26.1187  -46.8587 C.3       14 UNK        -0.1800 
     82 C           0.2728  -26.8172  -49.0189 C.2       14 UNK         0.5000 
     83 O           0.5321  -27.9316  -49.4744 O.2       14 UNK        -0.5000 
     84 N           0.1054  -25.7250  -49.7751 N.am      15 UNK        -0.5000 
     85 CA          0.1823  -25.6879  -51.2366 C.3       15 UNK         0.1400 
     86 CB          0.3995  -24.2305  -51.6772 C.3       15 UNK        -0.1800 
     87 C          -1.0555  -26.2754  -51.9444 C.2       15 UNK         0.5000 
     88 O          -0.9899  -26.5142  -53.1509 O.2       15 UNK        -0.5000 
     89 N          -2.1572  -26.4661  -51.2015 N.am      16 UNK        -0.5000 
     90 CA         -3.5003  -26.8233  -51.6763 C.3       16 UNK         0.1400 
     91 CB         -3.5222  -28.2357  -52.2966 C.3       16 UNK        -0.1800 
     92 C          -4.0879  -25.7331  -52.6006 C.2       16 UNK         0.5000 
     93 O          -4.6974  -26.0346  -53.6279 O.2       16 UNK        -0.5000 
     94 N          -3.8698  -24.4762  -52.2015 N.am      17 UNK        -0.5000 
     95 CA         -4.2260  -23.2471  -52.9068 C.3       17 UNK         0.1400 
     96 CB         -2.9171  -22.5421  -53.3032 C.3       17 UNK        -0.1800 
     97 C          -5.1240  -22.3495  -52.0299 C.2       17 UNK         0.5000 
     98 O          -5.2280  -21.1478  -52.2785 O.2       17 UNK        -0.5000 
     99 N          -5.7548  -22.9444  -51.0062 N.am      18 UNK        -0.5000 
    100 CA        -6.6053  -22.2852  -50.0105 C.3       18 UNK         0.1400 
    101 CB        -6.9016  -23.2827  -48.8805 C.3       18 UNK        -0.1800 
    102 C         -7.9113  -21.6856  -50.5702 C.2       18 UNK         0.5000 
    103 O         -8.5071  -20.8315  -49.9128 O.2       18 UNK        -0.5000 
    104 N         -8.3229  -22.1229  -51.7641 N.am      19 UNK        -0.5000 
    105 CA        -9.4366  -21.5787  -52.5301 C.3       19 UNK         0.1400 
    106 CB       -10.6262  -22.5493  -52.4589 C.3       19 UNK        -0.1800 
    107 C         -8.9733  -21.3819  -53.9797 C.2       19 UNK         0.5000 
    108 O         -8.1303  -22.1460  -54.4577 O.2       19 UNK        -0.5000 
    109 N         -9.5420  -20.3658  -54.6449 N.am      20 UNK        -0.5000 
    110 CA        -9.2960  -19.9638  -56.0386 C.3       20 UNK         0.1400 
    111 CB        -9.7732  -21.0608  -57.0141 C.3       20 UNK        -0.1800 
    112 C         -7.8474  -19.5032  -56.3259 C.2       20 UNK         0.5000 
    113 O         -7.4145  -19.5279  -57.4798 O.2       20 UNK        -0.5000 
    114 N         -7.1314  -19.0729  -55.2813 N.am      21 UNK        -0.5000 
    115 CA        -5.7525  -18.5973  -55.3182 C.3       21 UNK         0.1400 
    116 CB        -4.7769  -19.7745  -55.5394 C.3       21 UNK        -0.1800 
    117 C         -5.4946  -17.7689  -54.0461 C.2       21 UNK         0.5000 
    118 O         -6.2980  -16.8848  -53.7406 O.2       21 UNK        -0.5000 
    119 N         -4.3957  -18.0445  -53.3341 N.am      22 UNK        -0.5000 
    120 CA        -4.0022  -17.3721  -52.0837 C.3       22 UNK         0.1400 
    121 C         -4.9264  -17.6530  -50.8621 C.2       22 UNK         0.5000 
    122 N         -5.6623  -18.7560  -50.8246 N.am      22 UNK        -0.7600 
    123 O         -4.9933  -16.8397  -49.9447 O.2       22 UNK        -0.5000 
    124 C124       -2.5076  -17.6144  -51.7407 C.3       23 UNK        -0.0398 
    125 S125       -2.0503  -19.3831  -51.7489 S.3       23 UNK        -0.2404 
    126 C126       -0.5240  -19.4003  -52.7308 C.3       23 UNK        -0.0205 
    127 H127        4.1528  -18.9204  -44.0423 H         1 UNK         0.0600 
    128 H128        4.6694  -17.8818  -42.7099 H         1 UNK         0.0600 
    129 H129        2.9702  -18.3381  -42.8685 H         1 UNK         0.0600 
    130 H130        3.8194  -17.8761  -45.9803 H         1 UNK         0.3000 
    131 H131        2.3651  -15.4986  -46.3078 H         1 UNK         0.0600 
    132 H132        4.2779  -16.7090  -48.3657 H         1 UNK         0.0800 
    133 H133        2.7523  -17.4504  -47.9518 H         1 UNK         0.0800 
    134 H134        2.6015  -15.5954  -51.5987 H         1 UNK         0.0800 
    135 H135        4.0129  -16.2473  -50.8104 H         1 UNK         0.0800 
    136 H136        0.7129  -17.0219  -52.1821 H         1 UNK         0.1150 
    137 H137        0.9181  -21.2159  -51.3210 H         1 UNK         0.1150 
    138 H138        3.9324  -18.5750  -49.8145 H         1 UNK         0.1150 
    139 H139        2.5538  -22.0910  -49.8480 H         1 UNK         0.0800 
    140 H140        4.0954  -21.4168  -50.3015 H         1 UNK         0.0800 
    141 H141        1.3682  -19.8100  -47.9815 H         1 UNK         0.0800 
    142 H142        2.1527  -19.8161  -46.4406 H         1 UNK         0.0800 
    143 H143        1.8147  -22.5118  -46.6468 H         1 UNK         0.0600 
    144 H144        0.2786  -20.4863  -45.3133 H         1 UNK         0.3000 
    145 H145       -1.7614  -22.6692  -43.4116 H         1 UNK         0.0600 
    146 H146       -0.7111  -21.3622  -41.5608 H         1 UNK         0.0600 
    147 H147        0.3629  -22.6274  -42.1385 H         1 UNK         0.0600 
    148 H148        0.6512  -20.9566  -42.6039 H         1 UNK         0.0600 
    149 H149       -1.3405  -19.8018  -43.5823 H         1 UNK         0.3000 
    150 H150       -3.7706  -19.2303  -46.1282 H         1 UNK         0.0600 
    151 H151       -5.2462  -19.5541  -44.1417 H         1 UNK         0.0600 
    152 H152       -4.9015  -17.8507  -44.4012 H         1 UNK         0.0600 
    153 H153       -4.0727  -18.7325  -43.1191 H         1 UNK         0.0600 
    154 H154       -2.4229  -17.4062  -44.4415 H         1 UNK         0.3000 
    155 H155        0.7741  -17.4042  -45.8816 H         1 UNK         0.0600 
    156 H156        0.1759  -14.9898  -46.5156 H         1 UNK         0.0600 
    157 H157       -1.4977  -15.5073  -46.6711 H         1 UNK         0.0600 
    158 H158       -0.2702  -16.1901  -47.7204 H         1 UNK         0.0600 
    159 H159       -0.2715  -15.4392  -44.2491 H         1 UNK         0.3000 
    160 H160       -0.6703  -17.0806  -41.1665 H         1 UNK         0.0600 
    161 H161        1.6552  -15.2339  -41.8988 H         1 UNK         0.0600 
    162 H162        1.8386  -16.8502  -41.2290 H         1 UNK         0.0600 
    163 H163        1.0610  -15.5922  -40.2823 H         1 UNK         0.0600 
    164 H164       -0.5576  -14.3167  -42.0184 H         1 UNK         0.3000 
    165 H165       -4.0273  -14.0096  -42.7611 H         1 UNK         0.0600 
    166 H166       -2.3579  -12.9943  -40.3952 H         1 UNK         0.0600 
    167 H167       -3.8362  -12.2576  -41.0136 H         1 UNK         0.0600 
    168 H168       -3.8906  -13.8500  -40.2747 H         1 UNK         0.0600 
    169 H169       -1.7475  -12.2156  -42.6515 H         1 UNK         0.3000 
    170 H170       -0.7313  -12.6507  -46.0042 H         1 UNK         0.0600 
    171 H171       -2.6772  -11.1236  -46.3486 H         1 UNK         0.0600 
    172 H172       -2.2819  -10.2614  -44.8666 H         1 UNK         0.0600 
    173 H173       -1.1751  -10.2208  -46.2400 H         1 UNK         0.0600 
    174 H174       -0.0173  -10.7360  -44.0043 H         1 UNK         0.3000 
    175 H175        2.1450  -10.9293  -43.1436 H         1 UNK         0.0600 
    176 H176        0.3035  -11.3254  -41.4364 H         1 UNK         0.0600 
    177 H177        1.8870  -11.3740  -40.6935 H         1 UNK         0.0600 
    178 H178        1.0307  -12.8746  -41.0262 H         1 UNK         0.0600 
    179 H179        3.0584  -13.6557  -43.1915 H         1 UNK         0.3000 
    180 H180        6.3330  -12.7648  -41.8802 H         1 UNK         0.0600 
    181 H181        4.3112  -15.0117  -41.3928 H         1 UNK         0.0600 
    182 H182        5.1294  -14.0486  -40.1757 H         1 UNK         0.0600 
    183 H183        6.0563  -15.1447  -41.1884 H         1 UNK         0.0600 
    184 H184        5.1483  -14.6968  -43.7671 H         1 UNK         0.3000 
    185 H185        6.5889  -13.2571  -46.6035 H         1 UNK         0.0600 
    186 H186        8.1543  -15.1752  -46.8346 H         1 UNK         0.0600 
    187 H187        8.7951  -13.9908  -45.7079 H         1 UNK         0.0600 
    188 H188        8.0762  -15.4762  -45.0978 H         1 UNK         0.0600 
    189 H189        5.8085  -15.9664  -45.8721 H         1 UNK         0.3000 
    190 H190       -1.1227  -20.6469  -47.4694 H         1 UNK         0.3000 
    191 H191       -1.6967  -21.7711  -49.9606 H         1 UNK         0.0600 
    192 H192       -3.7921  -20.8655  -47.9138 H         1 UNK         0.0600 
    193 H193       -3.8806  -20.8035  -49.6692 H         1 UNK         0.0600 
    194 H194       -2.7879  -19.7347  -48.8185 H         1 UNK         0.0600 
    195 H195       -2.7477  -22.8900  -46.7013 H         1 UNK         0.3000 
    196 H196       -4.2442  -25.1362  -47.5454 H         1 UNK         0.0600 
    197 H197       -3.9507  -25.8891  -45.1782 H         1 UNK         0.0600 
    198 H198       -4.3985  -24.1924  -45.2679 H         1 UNK         0.0600 
    199 H199       -2.7305  -24.6462  -44.9270 H         1 UNK         0.0600 
    200 H200       -0.7583  -24.8638  -46.7039 H         1 UNK         0.3000 
    201 H201       -0.1181  -27.6171  -47.0710 H         1 UNK         0.0600 
    202 H202        1.3057  -26.0581  -45.7741 H         1 UNK         0.0600 
    203 H203        1.6625  -25.1270  -47.2263 H         1 UNK         0.0600 
    204 H204        2.2338  -26.7842  -47.0780 H         1 UNK         0.0600 
    205 H205       -0.0289  -24.8299  -49.3100 H         1 UNK         0.3000 
    206 H206        1.0481  -26.2731  -51.5529 H         1 UNK         0.0600 
    207 H207        1.3212  -23.8267  -51.2588 H         1 UNK         0.0600 
    208 H208        0.4740  -24.1511  -52.7624 H         1 UNK         0.0600 
    209 H209       -0.4227  -23.5897  -51.3565 H         1 UNK         0.0600 
    210 H210       -2.0997  -26.2072  -50.2252 H         1 UNK         0.3000 
    211 H211       -4.1360  -26.8456  -50.7899 H         1 UNK         0.0600 
    212 H212       -2.9641  -28.2808  -53.2320 H         1 UNK         0.0600 
    213 H213       -4.5442  -28.5487  -52.5131 H         1 UNK         0.0600 
    214 H214       -3.0953  -28.9712  -51.6148 H         1 UNK         0.0600 
    215 H215       -3.3920  -24.3365  -51.3103 H         1 UNK         0.3000 
    216 H216       -4.7916  -23.4729  -53.8127 H         1 UNK         0.0600 
    217 H217       -2.3126  -23.1747  -53.9533 H         1 UNK         0.0600 
    218 H218       -2.3171  -22.3008  -52.4257 H         1 UNK         0.0600 
    219 H219       -3.1025  -21.6125  -53.8391 H         1 UNK         0.0600 
    220 H220       -5.6053  -23.9345  -50.8817 H         1 UNK         0.3000 
    221 H221       -6.0421  -21.4560  -49.5827 H         1 UNK         0.0600 
    222 H222       -7.4337  -24.1608  -49.2483 H         1 UNK         0.0600 
    223 H223       -5.9814  -23.6197  -48.4035 H         1 UNK         0.0600 
    224 H224       -7.5172  -22.8258  -48.1046 H         1 UNK         0.0600 
    225 H225       -7.7359  -22.7696  -52.2737 H         1 UNK         0.3000 
    226 H226       -9.7383  -20.6089  -52.1283 H         1 UNK         0.0600 
    227 H227      -10.9587  -22.6883  -51.4301 H         1 UNK         0.0600 
    228 H228      -11.4760  -22.1695  -53.0275 H         1 UNK         0.0600 
    229 H229      -10.3705  -23.5294  -52.8635 H         1 UNK         0.0600 
    230 H230      -10.2202  -19.7992  -54.1540 H         1 UNK         0.3000 
    231 H231       -9.9205  -19.0859  -56.2096 H         1 UNK         0.0600 
    232 H232       -9.7480  -20.7074  -58.0455 H         1 UNK         0.0600 
    233 H233      -10.7999  -21.3588  -56.8013 H         1 UNK         0.0600 
    234 H234       -9.1469  -21.9516  -56.9598 H         1 UNK         0.0600 
    235 H235       -7.5745  -19.0326  -54.3741 H         1 UNK         0.3000 
    236 H236       -5.6471  -17.9051  -56.1559 H         1 UNK         0.0600 
    237 H237       -3.7354  -19.4523  -55.5144 H         1 UNK         0.0600 
    238 H238       -4.9164  -20.5491  -54.7878 H         1 UNK         0.0600 
    239 H239       -4.9355  -20.2380  -56.5129 H         1 UNK         0.0600 
    240 H240       -3.8180  -18.8265  -53.6061 H         1 UNK         0.3000 
    241 H241       -4.1025  -16.3011  -52.2706 H         1 UNK         0.0600 
    242 H242       -5.5395  -19.4841  -51.5250 H         1 UNK         0.3800 
    243 H243       -6.2825  -18.9043  -50.0464 H         1 UNK         0.3800 
    244 H244       -1.8898  -17.0810  -52.4633 H         1 UNK         0.0800 
    245 H245       -2.2497  -17.1898  -50.7687 H         1 UNK         0.0800 
    246 H246       -0.5811  -18.6752  -53.5437 H         1 UNK         0.0800 
    247 H247       -0.4340  -20.3770  -53.2087 H         1 UNK         0.0800 
@<TRIPOS>BOND
     1    1    2 1    
     2    1  127 1    
     3    1  128 1    
     4    1  129 1    
     5    2    3 2    
     6    2    4 am   BACKBONE|DICT|INTERRES
     7    4    5 1    
     8    4  130 1    
     9    5    6 1    
    10    5   65 1    
    11    5  131 1    
    12    6    7 1    
    13    6  132 1    
    14    6  133 1    
    15    7    8 1    
    16    8    9 1    
    17    8  134 1    
    18    8  135 1    
    19    9   10 ar   
    20    9   14 ar   
    21   10   11 ar   
    22   10  136 1    
    23   11   12 ar   
    24   11  126 1    
    25   12   13 ar   
    26   12  137 1    
    27   13   14 ar   
    28   13   15 1    
    29   14  138 1    
    30   15   16 1    
    31   15  139 1    
    32   15  140 1    
    33   16   17 1    
    34   17   18 1    
    35   17  141 1    
    36   17  142 1    
    37   18   19 1    
    38   18   67 1    
    39   18  143 1    
    40   19   20 am   BACKBONE|DICT|INTERRES
    41   19  144 1    
    42   20   21 2    
    43   20   22 1    
    44   22   23 1    
    45   22   24 1    
    46   22  145 1    
    47   23  146 1    
    48   23  147 1    
    49   23  148 1    
    50   24   25 am   BACKBONE|DICT|INTERRES
    51   24  149 1    
    52   25   26 2    
    53   25   27 1    
    54   27   28 1    
    55   27   29 1    
    56   27  150 1    
    57   28  151 1    
    58   28  152 1    
    59   28  153 1    
    60   29   30 am   BACKBONE|DICT|INTERRES
    61   29  154 1    
    62   30   31 2    
    63   30   32 1    
    64   32   33 1    
    65   32   34 1    
    66   32  155 1    
    67   33  156 1    
    68   33  157 1    
    69   33  158 1    
    70   34   35 am   BACKBONE|DICT|INTERRES
    71   34  159 1    
    72   35   36 2    
    73   35   37 1    
    74   37   38 1    
    75   37   39 1    
    76   37  160 1    
    77   38  161 1    
    78   38  162 1    
    79   38  163 1    
    80   39   40 am   BACKBONE|DICT|INTERRES
    81   39  164 1    
    82   40   41 2    
    83   40   42 1    
    84   42   43 1    
    85   42   44 1    
    86   42  165 1    
    87   43  166 1    
    88   43  167 1    
    89   43  168 1    
    90   44   45 am   BACKBONE|DICT|INTERRES
    91   44  169 1    
    92   45   46 2    
    93   45   47 1    
    94   47   48 1    
    95   47   49 1    
    96   47  170 1    
    97   48  171 1    
    98   48  172 1    
    99   48  173 1    
   100   49   50 am   BACKBONE|DICT|INTERRES
   101   49  174 1    
   102   50   51 2    
   103   50   52 1    
   104   52   53 1    
   105   52   54 1    
   106   52  175 1    
   107   53  176 1    
   108   53  177 1    
   109   53  178 1    
   110   54   55 am   BACKBONE|DICT|INTERRES
   111   54  179 1    
   112   55   56 2    
   113   55   57 1    
   114   57   58 1    
   115   57   59 1    
   116   57  180 1    
   117   58  181 1    
   118   58  182 1    
   119   58  183 1    
   120   59   60 am   BACKBONE|DICT|INTERRES
   121   59  184 1    
   122   60   61 2    
   123   60   62 1    
   124   62   63 1    
   125   62   64 1    
   126   62  185 1    
   127   63  186 1    
   128   63  187 1    
   129   63  188 1    
   130   64   65 am   BACKBONE|DICT|INTERRES
   131   64  189 1    
   132   65   66 2    
   133   67   68 2    
   134   67   69 am   BACKBONE|DICT|INTERRES
   135   69   70 1    
   136   69  190 1    
   137   70   71 1    
   138   70   72 1    
   139   70  191 1    
   140   71  192 1    
   141   71  193 1    
   142   71  194 1    
   143   72   73 2    
   144   72   74 am   BACKBONE|DICT|INTERRES
   145   74   75 1    
   146   74  195 1    
   147   75   76 1    
   148   75   77 1    
   149   75  196 1    
   150   76  197 1    
   151   76  198 1    
   152   76  199 1    
   153   77   78 2    
   154   77   79 am   BACKBONE|DICT|INTERRES
   155   79   80 1    
   156   79  200 1    
   157   80   81 1    
   158   80   82 1    
   159   80  201 1    
   160   81  202 1    
   161   81  203 1    
   162   81  204 1    
   163   82   83 2    
   164   82   84 am   BACKBONE|DICT|INTERRES
   165   84   85 1    
   166   84  205 1    
   167   85   86 1    
   168   85   87 1    
   169   85  206 1    
   170   86  207 1    
   171   86  208 1    
   172   86  209 1    
   173   87   88 2    
   174   87   89 am   BACKBONE|DICT|INTERRES
   175   89   90 1    
   176   89  210 1    
   177   90   91 1    
   178   90   92 1    
   179   90  211 1    
   180   91  212 1    
   181   91  213 1    
   182   91  214 1    
   183   92   93 2    
   184   92   94 am   BACKBONE|DICT|INTERRES
   185   94   95 1    
   186   94  215 1    
   187   95   96 1    
   188   95   97 1    
   189   95  216 1    
   190   96  217 1    
   191   96  218 1    
   192   96  219 1    
   193   97   98 2    
   194   97   99 am   BACKBONE|DICT|INTERRES
   195   99  100 1    
   196   99  220 1    
   197  100  101 1    
   198  100  102 1    
   199  100  221 1    
   200  101  222 1    
   201  101  223 1    
   202  101  224 1    
   203  102  103 2    
   204  102  104 am   BACKBONE|DICT|INTERRES
   205  104  105 1    
   206  104  225 1    
   207  105  106 1    
   208  105  107 1    
   209  105  226 1    
   210  106  227 1    
   211  106  228 1    
   212  106  229 1    
   213  107  108 2    
   214  107  109 am   BACKBONE|DICT|INTERRES
   215  109  110 1    
   216  109  230 1    
   217  110  111 1    
   218  110  112 1    
   219  110  231 1    
   220  111  232 1    
   221  111  233 1    
   222  111  234 1    
   223  112  113 2    
   224  112  114 am   BACKBONE|DICT|INTERRES
   225  114  115 1    
   226  114  235 1    
   227  115  116 1    
   228  115  117 1    
   229  115  236 1    
   230  116  237 1    
   231  116  238 1    
   232  116  239 1    
   233  117  118 2    
   234  117  119 am   BACKBONE|DICT|INTERRES
   235  119  120 1    
   236  119  240 1    
   237  120  121 1    
   238  120  124 1    
   239  120  241 1    
   240  121  122 am   BACKBONE|DICT|INTERRES
   241  121  123 2    
   242  122  242 1    
   243  122  243 1    
   244  124  125 1    
   245  124  244 1    
   246  124  245 1    
   247  125  126 1    
   248  126  246 1    
   249  126  247 1    
@<TRIPOS>SUBSTRUCTURE
     1 UNK         1 GROUP             0       ****    0 ROOT    
