@<TRIPOS>MOLECULE
3R540
247   249    1
SMALL
USER_CHARGES


@<TRIPOS>ATOM
      1 CA         -4.5124  -13.3314  -41.6714 C.3       0 UNK        -0.1800 
      2 C          -3.4979  -13.2500  -42.8025 C.2       0 UNK         0.5000 
      3 O          -2.8353  -12.2241  -42.9607 O.2       0 UNK        -0.5000 
      4 N          -3.3570  -14.3330  -43.5798 N.am      1 UNK        -0.5000 
      5 CA         -2.4463  -14.4389  -44.7294 C.3       1 UNK         0.1400 
      6 C6         -2.7472  -15.6764  -45.6085 C.3       23 UNK        -0.0398 
      7 S7         -2.6651  -17.2734  -44.7240 S.3       23 UNK        -0.2404 
      8 C8         -3.5786  -18.3484  -45.8763 C.3       23 UNK        -0.0205 
      9 C9         -2.7757  -18.6357  -47.1354 C.ar      23 UNK        -0.0193 
     10 C10        -3.0015  -17.9046  -48.3057 C.ar      23 UNK        -0.1150 
     11 C11        -2.2522  -18.1623  -49.4576 C.ar      23 UNK        -0.0193 
     12 C12        -1.2689  -19.1554  -49.4312 C.ar      23 UNK        -0.1150 
     13 C13        -1.0484  -19.9089  -48.2751 C.ar      23 UNK        -0.0193 
     14 C14        -1.8072  -19.6426  -47.1305 C.ar      23 UNK        -0.1150 
     15 C15        -0.0457  -21.0536  -48.2951 C.3       23 UNK        -0.0205 
     16 S16         1.0811  -21.0457  -46.8602 S.3       23 UNK        -0.2404 
     17 C17         1.3869  -22.8357  -46.6605 C.3       23 UNK        -0.0398 
     18 CA          0.5667  -23.5313  -45.5409 C.3       11 UNK         0.1400 
     19 N           0.9433  -23.0761  -44.1965 N.am      11 UNK        -0.5000 
     20 C           1.2029  -23.9019  -43.1706 C.2       10 UNK         0.5000 
     21 O           1.1559  -25.1296  -43.2537 O.2       10 UNK        -0.5000 
     22 CA          1.5736  -23.2644  -41.8171 C.3       10 UNK         0.1400 
     23 CB          3.0894  -23.0282  -41.7340 C.3       10 UNK        -0.1800 
     24 N           0.8818  -22.0044  -41.5547 N.am      10 UNK        -0.5000 
     25 C          -0.4387  -21.8698  -41.3683 C.2       9 UNK         0.5000 
     26 O          -1.2245  -22.8165  -41.3476 O.2       9 UNK        -0.5000 
     27 CA         -0.9755  -20.4311  -41.2090 C.3       9 UNK         0.1400 
     28 CB         -1.1664  -20.0924  -39.7231 C.3       9 UNK        -0.1800 
     29 N          -0.1261  -19.4057  -41.8250 N.am      9 UNK        -0.5000 
     30 C           0.2035  -19.3488  -43.1225 C.2       8 UNK         0.5000 
     31 O          -0.1882  -20.1596  -43.9644 O.2       8 UNK        -0.5000 
     32 CA          1.2006  -18.2512  -43.5101 C.3       8 UNK         0.1400 
     33 CB          2.5991  -18.5749  -42.9433 C.3       8 UNK        -0.1800 
     34 N           1.2622  -18.1206  -44.9624 N.am      8 UNK        -0.5000 
     35 C           1.8306  -17.1009  -45.6134 C.2       7 UNK         0.5000 
     36 O           2.3555  -16.1378  -45.0484 O.2       7 UNK        -0.5000 
     37 CA          1.8068  -17.1528  -47.1489 C.3       7 UNK         0.1400 
     38 CB          0.4801  -16.5979  -47.6810 C.3       7 UNK        -0.1800 
     39 N           2.8883  -16.3157  -47.6539 N.am      7 UNK        -0.5000 
     40 C           4.0275  -16.7470  -48.2039 C.2       6 UNK         0.5000 
     41 O           4.2437  -17.9173  -48.5200 O.2       6 UNK        -0.5000 
     42 CA          5.1226  -15.6826  -48.4178 C.3       6 UNK         0.1400 
     43 CB          5.0575  -15.1206  -49.8460 C.3       6 UNK        -0.1800 
     44 N           5.0198  -14.5731  -47.4663 N.am      6 UNK        -0.5000 
     45 C           5.3149  -14.6397  -46.1620 C.2       5 UNK         0.5000 
     46 O           5.8120  -15.6342  -45.6324 O.2       5 UNK        -0.5000 
     47 CA          4.9924  -13.4055  -45.2927 C.3       5 UNK         0.1400 
     48 CB          6.1736  -12.4173  -45.2721 C.3       5 UNK        -0.1800 
     49 N           3.7301  -12.7220  -45.6149 N.am      5 UNK        -0.5000 
     50 C           3.3852  -12.0402  -46.7188 C.2       4 UNK         0.5000 
     51 O           4.1222  -11.9068  -47.6963 O.2       4 UNK        -0.5000 
     52 CA          1.9699  -11.4314  -46.7670 C.3       4 UNK         0.1400 
     53 CB          1.0866  -12.2193  -47.7471 C.3       4 UNK        -0.1800 
     54 N           1.3180  -11.3934  -45.4559 N.am      4 UNK        -0.5000 
     55 C           1.5426  -10.4485  -44.5293 C.2       3 UNK         0.5000 
     56 O           2.2865   -9.4842  -44.7127 O.2       3 UNK        -0.5000 
     57 CA          0.8372  -10.5990  -43.1641 C.3       3 UNK         0.1400 
     58 CB         -0.4139   -9.7097  -43.1070 C.3       3 UNK        -0.1800 
     59 N           0.4541  -11.9745  -42.8423 N.am      3 UNK        -0.5000 
     60 C           1.3117  -12.9890  -42.6559 C.2       2 UNK         0.5000 
     61 O           2.5355  -12.8544  -42.6680 O.2       2 UNK        -0.5000 
     62 CA          0.7102  -14.3979  -42.4793 C.3       2 UNK         0.1400 
     63 CB          0.6409  -14.7763  -40.9926 C.3       2 UNK        -0.1800 
     64 N          -0.6189  -14.5702  -43.0748 N.am      2 UNK        -0.5000 
     65 C          -0.9499  -14.3419  -44.3557 C.2       1 UNK         0.5000 
     66 O          -0.1403  -13.9959  -45.2151 O.2       1 UNK        -0.5000 
     67 C          -0.9567  -23.4483  -45.7752 C.2       11 UNK         0.5000 
     68 O          -1.4311  -23.9846  -46.7748 O.2       11 UNK        -0.5000 
     69 N          -1.7035  -22.8111  -44.8594 N.am      12 UNK        -0.5000 
     70 CA         -3.1501  -22.5740  -44.9432 C.3       12 UNK         0.1400 
     71 CB         -3.5948  -21.7419  -43.7334 C.3       12 UNK        -0.1800 
     72 C          -4.0152  -23.8454  -45.0701 C.2       12 UNK         0.5000 
     73 O          -5.1237  -23.7731  -45.6006 O.2       12 UNK        -0.5000 
     74 N          -3.4980  -24.9803  -44.5841 N.am      13 UNK        -0.5000 
     75 CA         -4.1347  -26.2938  -44.6736 C.3       13 UNK         0.1400 
     76 CB         -3.6575  -27.1421  -43.4836 C.3       13 UNK        -0.1800 
     77 C          -3.8498  -27.0266  -46.0021 C.2       13 UNK         0.5000 
     78 O          -4.5089  -28.0305  -46.2781 O.2       13 UNK        -0.5000 
     79 N          -2.8682  -26.5555  -46.7829 N.am      14 UNK        -0.5000 
     80 CA         -2.4290  -27.1752  -48.0321 C.3       14 UNK         0.1400 
     81 CB         -0.9049  -26.9996  -48.1563 C.3       14 UNK        -0.1800 
     82 C          -3.1383  -26.5576  -49.2489 C.2       14 UNK         0.5000 
     83 O          -3.7365  -25.4834  -49.1533 O.2       14 UNK        -0.5000 
     84 N          -2.9973  -27.2246  -50.4036 N.am      15 UNK        -0.5000 
     85 CA         -3.5069  -26.7838  -51.7089 C.3       15 UNK         0.1400 
     86 CB         -3.2763  -27.8998  -52.7387 C.3       15 UNK        -0.1800 
     87 C          -2.8971  -25.4564  -52.2068 C.2       15 UNK         0.5000 
     88 O          -3.4996  -24.7888  -53.0459 O.2       15 UNK        -0.5000 
     89 N          -1.7426  -25.0692  -51.6459 N.am      16 UNK        -0.5000 
     90 CA         -1.0847  -23.7763  -51.8438 C.3       16 UNK         0.1400 
     91 CB          0.2554  -23.7896  -51.0909 C.3       16 UNK        -0.1800 
     92 C          -1.9307  -22.5642  -51.3988 C.2       16 UNK         0.5000 
     93 O          -1.6643  -21.4552  -51.8574 O.2       16 UNK        -0.5000 
     94 N          -2.9205  -22.7944  -50.5249 N.am      17 UNK        -0.5000 
     95 CA         -3.8427  -21.7831  -50.0135 C.3       17 UNK         0.1400 
     96 CB         -4.1584  -22.1241  -48.5530 C.3       17 UNK        -0.1800 
     97 C          -5.1333  -21.6502  -50.8453 C.2       17 UNK         0.5000 
     98 O          -5.9998  -20.8552  -50.4762 O.2       17 UNK        -0.5000 
     99 N          -5.2693  -22.4196  -51.9363 N.am      18 UNK        -0.5000 
    100 CA        -6.3648  -22.2803  -52.8972 C.3       18 UNK         0.1400 
    101 CB        -6.3723  -23.4949  -53.8372 C.3       18 UNK        -0.1800 
    102 C         -6.2183  -20.9834  -53.7122 C.2       18 UNK         0.5000 
    103 O         -5.0941  -20.5671  -53.9958 O.2       18 UNK        -0.5000 
    104 N         -7.3463  -20.3930  -54.1291 N.am      19 UNK        -0.5000 
    105 CA        -7.3972  -19.1370  -54.8895 C.3       19 UNK         0.1400 
    106 CB        -8.8632  -18.7513  -55.1355 C.3       19 UNK        -0.1800 
    107 C         -6.6176  -19.1755  -56.2195 C.2       19 UNK         0.5000 
    108 O         -6.0107  -18.1740  -56.6000 O.2       19 UNK        -0.5000 
    109 N         -6.6041  -20.3468  -56.8701 N.am      20 UNK        -0.5000 
    110 CA        -5.8377  -20.6193  -58.0868 C.3       20 UNK         0.1400 
    111 CB        -6.3102  -21.9549  -58.6814 C.3       20 UNK        -0.1800 
    112 C         -4.3111  -20.6396  -57.8646 C.2       20 UNK         0.5000 
    113 O         -3.5660  -20.3782  -58.8098 O.2       20 UNK        -0.5000 
    114 N         -3.8728  -20.9476  -56.6362 N.am      21 UNK        -0.5000 
    115 CA        -2.4692  -20.9312  -56.2305 C.3       21 UNK         0.1400 
    116 CB        -2.2264  -22.0223  -55.1764 C.3       21 UNK        -0.1800 
    117 C         -2.0599  -19.5437  -55.7064 C.2       21 UNK         0.5000 
    118 O         -0.9704  -19.0747  -56.0396 O.2       21 UNK        -0.5000 
    119 N         -2.9375  -18.9046  -54.9198 N.am      22 UNK        -0.5000 
    120 CA        -2.7468  -17.5405  -54.3985 C.3       22 UNK         0.1400 
    121 C         -2.7804  -16.4392  -55.4957 C.2       22 UNK         0.5000 
    122 N         -3.6165  -16.5555  -56.5202 N.am      22 UNK        -0.7600 
    123 O         -2.0360  -15.4659  -55.4159 O.2       22 UNK        -0.5000 
    124 C124       -3.7454  -17.1880  -53.2672 C.3       23 UNK        -0.0398 
    125 S125       -3.6356  -18.3075  -51.8335 S.3       23 UNK        -0.2404 
    126 C126       -2.5141  -17.3857  -50.7379 C.3       23 UNK        -0.0205 
    127 H127       -5.0138  -14.2992  -41.6453 H         1 UNK         0.0600 
    128 H128       -5.2709  -12.5581  -41.7925 H         1 UNK         0.0600 
    129 H129       -4.0176  -13.1781  -40.7124 H         1 UNK         0.0600 
    130 H130       -3.9124  -15.1562  -43.3924 H         1 UNK         0.3000 
    131 H131       -2.6418  -13.5634  -45.3526 H         1 UNK         0.0600 
    132 H132       -3.7473  -15.5708  -46.0307 H         1 UNK         0.0800 
    133 H133       -2.0732  -15.7097  -46.4651 H         1 UNK         0.0800 
    134 H134       -3.8126  -19.2870  -45.3746 H         1 UNK         0.0800 
    135 H135       -4.5386  -17.8943  -46.1257 H         1 UNK         0.0800 
    136 H136       -3.7614  -17.1363  -48.3213 H         1 UNK         0.1150 
    137 H137       -0.7049  -19.3676  -50.3287 H         1 UNK         0.1150 
    138 H138       -1.6433  -20.2189  -46.2312 H         1 UNK         0.1150 
    139 H139       -0.6141  -21.9826  -48.3303 H         1 UNK         0.0800 
    140 H140        0.5546  -21.0285  -49.2058 H         1 UNK         0.0800 
    141 H141        2.4503  -22.9656  -46.4560 H         1 UNK         0.0800 
    142 H142        1.2192  -23.3391  -47.6142 H         1 UNK         0.0800 
    143 H143        0.8013  -24.5939  -45.6317 H         1 UNK         0.0600 
    144 H144        0.9611  -22.0732  -44.0552 H         1 UNK         0.3000 
    145 H145        1.2942  -23.9701  -41.0319 H         1 UNK         0.0600 
    146 H146        3.3778  -22.6558  -40.7508 H         1 UNK         0.0600 
    147 H147        3.6391  -23.9552  -41.9027 H         1 UNK         0.0600 
    148 H148        3.4264  -22.3064  -42.4793 H         1 UNK         0.0600 
    149 H149        1.4497  -21.1709  -41.5446 H         1 UNK         0.3000 
    150 H150       -1.9516  -20.3867  -41.6924 H         1 UNK         0.0600 
    151 H151       -0.2175  -20.0917  -39.1851 H         1 UNK         0.0600 
    152 H152       -1.8187  -20.8194  -39.2372 H         1 UNK         0.0600 
    153 H153       -1.6260  -19.1119  -39.5972 H         1 UNK         0.0600 
    154 H154        0.2499  -18.7107  -41.1967 H         1 UNK         0.3000 
    155 H155        0.8350  -17.3146  -43.0890 H         1 UNK         0.0600 
    156 H156        2.9966  -19.4980  -43.3673 H         1 UNK         0.0600 
    157 H157        2.5750  -18.6938  -41.8596 H         1 UNK         0.0600 
    158 H158        3.3131  -17.7790  -43.1545 H         1 UNK         0.0600 
    159 H159        0.8150  -18.8775  -45.4686 H         1 UNK         0.3000 
    160 H160        1.9242  -18.1875  -47.4761 H         1 UNK         0.0600 
    161 H161        0.4297  -16.6664  -48.7676 H         1 UNK         0.0600 
    162 H162        0.3343  -15.5550  -47.4017 H         1 UNK         0.0600 
    163 H163       -0.3581  -17.1618  -47.2772 H         1 UNK         0.0600 
    164 H164        2.8589  -15.3551  -47.3448 H         1 UNK         0.3000 
    165 H165        6.0915  -16.1675  -48.2815 H         1 UNK         0.0600 
    166 H166        5.1505  -15.9180  -50.5844 H         1 UNK         0.0600 
    167 H167        4.1136  -14.6068  -50.0331 H         1 UNK         0.0600 
    168 H168        5.8664  -14.4129  -50.0282 H         1 UNK         0.0600 
    169 H169        4.6638  -13.6877  -47.8170 H         1 UNK         0.3000 
    170 H170        4.8617  -13.7762  -44.2746 H         1 UNK         0.0600 
    171 H171        5.9753  -11.5813  -44.6013 H         1 UNK         0.0600 
    172 H172        6.3849  -12.0117  -46.2617 H         1 UNK         0.0600 
    173 H173        7.0828  -12.9070  -44.9215 H         1 UNK         0.0600 
    174 H174        3.0353  -12.7810  -44.8809 H         1 UNK         0.3000 
    175 H175        2.0633  -10.4114  -47.1458 H         1 UNK         0.0600 
    176 H176        0.0741  -11.8169  -47.7811 H         1 UNK         0.0600 
    177 H177        1.4895  -12.1722  -48.7596 H         1 UNK         0.0600 
    178 H178        1.0215  -13.2716  -47.4727 H         1 UNK         0.0600 
    179 H179        0.7113  -12.1774  -45.2347 H         1 UNK         0.3000 
    180 H180        1.5350  -10.2586  -42.3964 H         1 UNK         0.0600 
    181 H181       -1.1563  -10.0148  -43.8458 H         1 UNK         0.0600 
    182 H182       -0.1631   -8.6665  -43.3035 H         1 UNK         0.0600 
    183 H183       -0.8838   -9.7513  -42.1241 H         1 UNK         0.0600 
    184 H184       -0.5392  -12.1721  -42.8300 H         1 UNK         0.3000 
    185 H185        1.3901  -15.0899  -42.9720 H         1 UNK         0.0600 
    186 H186        1.6204  -14.6877  -40.5207 H         1 UNK         0.0600 
    187 H187       -0.0470  -14.1300  -40.4458 H         1 UNK         0.0600 
    188 H188        0.3112  -15.8070  -40.8613 H         1 UNK         0.0600 
    189 H189       -1.3627  -14.8299  -42.4441 H         1 UNK         0.3000 
    190 H190       -1.2258  -22.3789  -44.0815 H         1 UNK         0.3000 
    191 H191       -3.3282  -21.9685  -45.8297 H         1 UNK         0.0600 
    192 H192       -3.0451  -20.8025  -43.6833 H         1 UNK         0.0600 
    193 H193       -4.6546  -21.4927  -43.7985 H         1 UNK         0.0600 
    194 H194       -3.4417  -22.2790  -42.7973 H         1 UNK         0.0600 
    195 H195       -2.5836  -24.9445  -44.1577 H         1 UNK         0.3000 
    196 H196       -5.2172  -26.1754  -44.5914 H         1 UNK         0.0600 
    197 H197       -4.1346  -28.1231  -43.4843 H         1 UNK         0.0600 
    198 H198       -3.9033  -26.6644  -42.5349 H         1 UNK         0.0600 
    199 H199       -2.5787  -27.3016  -43.5101 H         1 UNK         0.0600 
    200 H200       -2.4443  -25.6590  -46.5660 H         1 UNK         0.3000 
    201 H201       -2.6492  -28.2446  -48.0112 H         1 UNK         0.0600 
    202 H202       -0.5115  -27.5569  -49.0071 H         1 UNK         0.0600 
    203 H203       -0.6252  -25.9550  -48.2953 H         1 UNK         0.0600 
    204 H204       -0.3915  -27.3670  -47.2675 H         1 UNK         0.0600 
    205 H205       -2.4856  -28.0954  -50.4008 H         1 UNK         0.3000 
    206 H206       -4.5827  -26.6254  -51.6095 H         1 UNK         0.0600 
    207 H207       -3.7781  -28.8211  -52.4423 H         1 UNK         0.0600 
    208 H208       -3.6706  -27.6175  -53.7160 H         1 UNK         0.0600 
    209 H209       -2.2152  -28.1188  -52.8639 H         1 UNK         0.0600 
    210 H210       -1.3207  -25.6868  -50.9694 H         1 UNK         0.3000 
    211 H211       -0.8837  -23.6636  -52.9108 H         1 UNK         0.0600 
    212 H212        0.1112  -23.9259  -50.0181 H         1 UNK         0.0600 
    213 H213        0.7934  -22.8513  -51.2328 H         1 UNK         0.0600 
    214 H214        0.9026  -24.5906  -51.4484 H         1 UNK         0.0600 
    215 H215       -3.0714  -23.7384  -50.1865 H         1 UNK         0.3000 
    216 H216       -3.3563  -20.8086  -50.0306 H         1 UNK         0.0600 
    217 H217       -4.6981  -21.3120  -48.0648 H         1 UNK         0.0600 
    218 H218       -3.2352  -22.2873  -48.0005 H         1 UNK         0.0600 
    219 H219       -4.7632  -23.0275  -48.4673 H         1 UNK         0.0600 
    220 H220       -4.5098  -23.0343  -52.2019 H         1 UNK         0.3000 
    221 H221       -7.3087  -22.2542  -52.3489 H         1 UNK         0.0600 
    222 H222       -5.4673  -23.5380  -54.4451 H         1 UNK         0.0600 
    223 H223       -6.4442  -24.4279  -53.2778 H         1 UNK         0.0600 
    224 H224       -7.2227  -23.4578  -54.5189 H         1 UNK         0.0600 
    225 H225       -8.2352  -20.8000  -53.8760 H         1 UNK         0.3000 
    226 H226       -6.9415  -18.3626  -54.2694 H         1 UNK         0.0600 
    227 H227       -8.9330  -17.8093  -55.6814 H         1 UNK         0.0600 
    228 H228       -9.3866  -19.5090  -55.7198 H         1 UNK         0.0600 
    229 H229       -9.4002  -18.6203  -54.1958 H         1 UNK         0.0600 
    230 H230       -7.1265  -21.1169  -56.4797 H         1 UNK         0.3000 
    231 H231       -6.0540  -19.8280  -58.8078 H         1 UNK         0.0600 
    232 H232       -6.1372  -22.7845  -57.9945 H         1 UNK         0.0600 
    233 H233       -5.7801  -22.1797  -59.6078 H         1 UNK         0.0600 
    234 H234       -7.3745  -21.9283  -58.9162 H         1 UNK         0.0600 
    235 H235       -4.5464  -21.0738  -55.8904 H         1 UNK         0.3000 
    236 H236       -1.8374  -21.1616  -57.0911 H         1 UNK         0.0600 
    237 H237       -1.1860  -22.0227  -54.8499 H         1 UNK         0.0600 
    238 H238       -2.8461  -21.8775  -54.2920 H         1 UNK         0.0600 
    239 H239       -2.4450  -23.0132  -55.5746 H         1 UNK         0.0600 
    240 H240       -3.7792  -19.3923  -54.6243 H         1 UNK         0.3000 
    241 H241       -1.7461  -17.5083  -53.9627 H         1 UNK         0.0600 
    242 H242       -4.3045  -17.3024  -56.5585 H         1 UNK         0.3800 
    243 H243       -3.6279  -15.8398  -57.2289 H         1 UNK         0.3800 
    244 H244       -4.7678  -17.2290  -53.6457 H         1 UNK         0.0800 
    245 H245       -3.5933  -16.1639  -52.9215 H         1 UNK         0.0800 
    246 H246       -1.5723  -17.1968  -51.2555 H         1 UNK         0.0800 
    247 H247       -2.9457  -16.4106  -50.5072 H         1 UNK         0.0800 
@<TRIPOS>BOND
     1    1    2 1    
     2    1  127 1    
     3    1  128 1    
     4    1  129 1    
     5    2    3 2    
     6    2    4 am   BACKBONE|DICT|INTERRES
     7    4    5 1    
     8    4  130 1    
     9    5    6 1    
    10    5   65 1    
    11    5  131 1    
    12    6    7 1    
    13    6  132 1    
    14    6  133 1    
    15    7    8 1    
    16    8    9 1    
    17    8  134 1    
    18    8  135 1    
    19    9   10 ar   
    20    9   14 ar   
    21   10   11 ar   
    22   10  136 1    
    23   11   12 ar   
    24   11  126 1    
    25   12   13 ar   
    26   12  137 1    
    27   13   14 ar   
    28   13   15 1    
    29   14  138 1    
    30   15   16 1    
    31   15  139 1    
    32   15  140 1    
    33   16   17 1    
    34   17   18 1    
    35   17  141 1    
    36   17  142 1    
    37   18   19 1    
    38   18   67 1    
    39   18  143 1    
    40   19   20 am   BACKBONE|DICT|INTERRES
    41   19  144 1    
    42   20   21 2    
    43   20   22 1    
    44   22   23 1    
    45   22   24 1    
    46   22  145 1    
    47   23  146 1    
    48   23  147 1    
    49   23  148 1    
    50   24   25 am   BACKBONE|DICT|INTERRES
    51   24  149 1    
    52   25   26 2    
    53   25   27 1    
    54   27   28 1    
    55   27   29 1    
    56   27  150 1    
    57   28  151 1    
    58   28  152 1    
    59   28  153 1    
    60   29   30 am   BACKBONE|DICT|INTERRES
    61   29  154 1    
    62   30   31 2    
    63   30   32 1    
    64   32   33 1    
    65   32   34 1    
    66   32  155 1    
    67   33  156 1    
    68   33  157 1    
    69   33  158 1    
    70   34   35 am   BACKBONE|DICT|INTERRES
    71   34  159 1    
    72   35   36 2    
    73   35   37 1    
    74   37   38 1    
    75   37   39 1    
    76   37  160 1    
    77   38  161 1    
    78   38  162 1    
    79   38  163 1    
    80   39   40 am   BACKBONE|DICT|INTERRES
    81   39  164 1    
    82   40   41 2    
    83   40   42 1    
    84   42   43 1    
    85   42   44 1    
    86   42  165 1    
    87   43  166 1    
    88   43  167 1    
    89   43  168 1    
    90   44   45 am   BACKBONE|DICT|INTERRES
    91   44  169 1    
    92   45   46 2    
    93   45   47 1    
    94   47   48 1    
    95   47   49 1    
    96   47  170 1    
    97   48  171 1    
    98   48  172 1    
    99   48  173 1    
   100   49   50 am   BACKBONE|DICT|INTERRES
   101   49  174 1    
   102   50   51 2    
   103   50   52 1    
   104   52   53 1    
   105   52   54 1    
   106   52  175 1    
   107   53  176 1    
   108   53  177 1    
   109   53  178 1    
   110   54   55 am   BACKBONE|DICT|INTERRES
   111   54  179 1    
   112   55   56 2    
   113   55   57 1    
   114   57   58 1    
   115   57   59 1    
   116   57  180 1    
   117   58  181 1    
   118   58  182 1    
   119   58  183 1    
   120   59   60 am   BACKBONE|DICT|INTERRES
   121   59  184 1    
   122   60   61 2    
   123   60   62 1    
   124   62   63 1    
   125   62   64 1    
   126   62  185 1    
   127   63  186 1    
   128   63  187 1    
   129   63  188 1    
   130   64   65 am   BACKBONE|DICT|INTERRES
   131   64  189 1    
   132   65   66 2    
   133   67   68 2    
   134   67   69 am   BACKBONE|DICT|INTERRES
   135   69   70 1    
   136   69  190 1    
   137   70   71 1    
   138   70   72 1    
   139   70  191 1    
   140   71  192 1    
   141   71  193 1    
   142   71  194 1    
   143   72   73 2    
   144   72   74 am   BACKBONE|DICT|INTERRES
   145   74   75 1    
   146   74  195 1    
   147   75   76 1    
   148   75   77 1    
   149   75  196 1    
   150   76  197 1    
   151   76  198 1    
   152   76  199 1    
   153   77   78 2    
   154   77   79 am   BACKBONE|DICT|INTERRES
   155   79   80 1    
   156   79  200 1    
   157   80   81 1    
   158   80   82 1    
   159   80  201 1    
   160   81  202 1    
   161   81  203 1    
   162   81  204 1    
   163   82   83 2    
   164   82   84 am   BACKBONE|DICT|INTERRES
   165   84   85 1    
   166   84  205 1    
   167   85   86 1    
   168   85   87 1    
   169   85  206 1    
   170   86  207 1    
   171   86  208 1    
   172   86  209 1    
   173   87   88 2    
   174   87   89 am   BACKBONE|DICT|INTERRES
   175   89   90 1    
   176   89  210 1    
   177   90   91 1    
   178   90   92 1    
   179   90  211 1    
   180   91  212 1    
   181   91  213 1    
   182   91  214 1    
   183   92   93 2    
   184   92   94 am   BACKBONE|DICT|INTERRES
   185   94   95 1    
   186   94  215 1    
   187   95   96 1    
   188   95   97 1    
   189   95  216 1    
   190   96  217 1    
   191   96  218 1    
   192   96  219 1    
   193   97   98 2    
   194   97   99 am   BACKBONE|DICT|INTERRES
   195   99  100 1    
   196   99  220 1    
   197  100  101 1    
   198  100  102 1    
   199  100  221 1    
   200  101  222 1    
   201  101  223 1    
   202  101  224 1    
   203  102  103 2    
   204  102  104 am   BACKBONE|DICT|INTERRES
   205  104  105 1    
   206  104  225 1    
   207  105  106 1    
   208  105  107 1    
   209  105  226 1    
   210  106  227 1    
   211  106  228 1    
   212  106  229 1    
   213  107  108 2    
   214  107  109 am   BACKBONE|DICT|INTERRES
   215  109  110 1    
   216  109  230 1    
   217  110  111 1    
   218  110  112 1    
   219  110  231 1    
   220  111  232 1    
   221  111  233 1    
   222  111  234 1    
   223  112  113 2    
   224  112  114 am   BACKBONE|DICT|INTERRES
   225  114  115 1    
   226  114  235 1    
   227  115  116 1    
   228  115  117 1    
   229  115  236 1    
   230  116  237 1    
   231  116  238 1    
   232  116  239 1    
   233  117  118 2    
   234  117  119 am   BACKBONE|DICT|INTERRES
   235  119  120 1    
   236  119  240 1    
   237  120  121 1    
   238  120  124 1    
   239  120  241 1    
   240  121  122 am   BACKBONE|DICT|INTERRES
   241  121  123 2    
   242  122  242 1    
   243  122  243 1    
   244  124  125 1    
   245  124  244 1    
   246  124  245 1    
   247  125  126 1    
   248  126  246 1    
   249  126  247 1    
@<TRIPOS>SUBSTRUCTURE
     1 UNK         1 GROUP             0       ****    0 ROOT    
