@<TRIPOS>MOLECULE
3R540
247   249    1
SMALL
USER_CHARGES


@<TRIPOS>ATOM
      1 CA          2.2396   -9.9593  -50.8417 C.3       0 UNK        -0.1800 
      2 C           2.2570  -10.8768  -49.6281 C.2       0 UNK         0.5000 
      3 O           2.9199  -10.5701  -48.6374 O.2       0 UNK        -0.5000 
      4 N           1.5167  -11.9923  -49.6914 N.am      1 UNK        -0.5000 
      5 CA          1.4388  -13.0321  -48.6526 C.3       1 UNK         0.1400 
      6 C6          0.6174  -14.2578  -49.1182 C.3       23 UNK        -0.0398 
      7 S7          1.3429  -15.0672  -50.5856 S.3       23 UNK        -0.2404 
      8 C8          2.1368  -16.5357  -49.8424 C.3       23 UNK        -0.0205 
      9 C9          1.2480  -17.7778  -49.7568 C.ar      23 UNK        -0.0193 
     10 C10        -0.1286  -17.6974  -49.5094 C.ar      23 UNK        -0.1150 
     11 C11        -0.9079  -18.8537  -49.4138 C.ar      23 UNK        -0.0193 
     12 C12        -0.3040  -20.1026  -49.5567 C.ar      23 UNK        -0.1150 
     13 C13         1.0693  -20.2033  -49.7869 C.ar      23 UNK        -0.0193 
     14 C14         1.8364  -19.0400  -49.8936 C.ar      23 UNK        -0.1150 
     15 C15         1.7232  -21.5733  -49.8810 C.3       23 UNK        -0.0205 
     16 S16         2.7577  -21.9746  -48.4297 S.3       23 UNK        -0.2404 
     17 C17         1.7518  -21.4450  -46.9963 C.3       23 UNK        -0.0398 
     18 CA          0.9011  -22.5685  -46.3608 C.3       11 UNK         0.1400 
     19 N           0.6399  -22.2889  -44.9450 N.am      11 UNK        -0.5000 
     20 C           0.0509  -23.1163  -44.0708 C.2       10 UNK         0.5000 
     21 O          -0.3537  -24.2423  -44.3608 O.2       10 UNK        -0.5000 
     22 CA         -0.1637  -22.5648  -42.6505 C.3       10 UNK         0.1400 
     23 CB          1.1381  -22.6038  -41.8354 C.3       10 UNK        -0.1800 
     24 N          -0.6799  -21.1959  -42.6925 N.am      10 UNK        -0.5000 
     25 C          -1.9620  -20.8885  -42.9335 C.2       9 UNK         0.5000 
     26 O          -2.8540  -21.7303  -43.0375 O.2       9 UNK        -0.5000 
     27 CA         -2.3129  -19.3973  -43.1054 C.3       9 UNK         0.1400 
     28 CB         -2.7002  -18.7791  -41.7537 C.3       9 UNK        -0.1800 
     29 N          -1.2396  -18.6055  -43.7094 N.am      9 UNK        -0.5000 
     30 C          -0.7679  -18.7742  -44.9529 C.2       8 UNK         0.5000 
     31 O          -1.2152  -19.6012  -45.7442 O.2       8 UNK        -0.5000 
     32 CA          0.4469  -17.9198  -45.3608 C.3       8 UNK         0.1400 
     33 CB         -0.0010  -16.5399  -45.8587 C.3       8 UNK        -0.1800 
     34 N           1.4204  -17.7600  -44.2784 N.am      8 UNK        -0.5000 
     35 C           2.0678  -18.7669  -43.6740 C.2       7 UNK         0.5000 
     36 O           1.9248  -19.9502  -43.9778 O.2       7 UNK        -0.5000 
     37 CA          2.9829  -18.3977  -42.4975 C.3       7 UNK         0.1400 
     38 CB          4.3480  -17.8993  -42.9952 C.3       7 UNK        -0.1800 
     39 N           2.3582  -17.3845  -41.6494 N.am      7 UNK        -0.5000 
     40 C           1.3967  -17.6460  -40.7527 C.2       6 UNK         0.5000 
     41 O           0.9900  -18.7803  -40.4993 O.2       6 UNK        -0.5000 
     42 CA          0.7650  -16.4364  -40.0361 C.3       6 UNK         0.1400 
     43 CB          1.5644  -16.0792  -38.7742 C.3       6 UNK        -0.1800 
     44 N           0.6587  -15.2518  -40.8908 N.am      6 UNK        -0.5000 
     45 C          -0.1402  -15.1625  -41.9630 C.2       5 UNK         0.5000 
     46 O          -0.8913  -16.0651  -42.3295 O.2       5 UNK        -0.5000 
     47 CA         -0.0556  -13.8662  -42.7918 C.3       5 UNK         0.1400 
     48 CB         -1.0245  -12.8121  -42.2368 C.3       5 UNK        -0.1800 
     49 N           1.2877  -13.2861  -42.8923 N.am      5 UNK        -0.5000 
     50 C           2.3843  -13.9237  -43.3298 C.2       4 UNK         0.5000 
     51 O           2.4135  -15.1261  -43.5960 O.2       4 UNK        -0.5000 
     52 CA          3.6382  -13.0568  -43.5234 C.3       4 UNK         0.1400 
     53 CB          4.7866  -13.8024  -44.2275 C.3       4 UNK        -0.1800 
     54 N           3.2735  -11.8804  -44.3054 N.am      4 UNK        -0.5000 
     55 C           3.6568  -10.6225  -44.0538 C.2       3 UNK         0.5000 
     56 O           4.4143  -10.3129  -43.1333 O.2       3 UNK        -0.5000 
     57 CA          3.1001   -9.5152  -44.9745 C.3       3 UNK         0.1400 
     58 CB          4.1863   -9.0302  -45.9465 C.3       3 UNK        -0.1800 
     59 N           1.9230   -9.9334  -45.7411 N.am      3 UNK        -0.5000 
     60 C           0.7091  -10.1487  -45.2101 C.2       2 UNK         0.5000 
     61 O           0.4436   -9.9393  -44.0263 O.2       2 UNK        -0.5000 
     62 CA         -0.3851  -10.7264  -46.1332 C.3       2 UNK         0.1400 
     63 CB         -1.3442   -9.6165  -46.5886 C.3       2 UNK        -0.1800 
     64 N           0.1313  -11.4210  -47.3156 N.am      2 UNK        -0.5000 
     65 C           0.9057  -12.5158  -47.2980 C.2       1 UNK         0.5000 
     66 O           1.2404  -13.0888  -46.2624 O.2       1 UNK        -0.5000 
     67 C          -0.3892  -22.8409  -47.1666 C.2       11 UNK         0.5000 
     68 O          -0.3506  -23.6105  -48.1242 O.2       11 UNK        -0.5000 
     69 N          -1.5251  -22.2713  -46.7386 N.am      12 UNK        -0.5000 
     70 CA         -2.8634  -22.5196  -47.2806 C.3       12 UNK         0.1400 
     71 CB         -3.8925  -21.6959  -46.4928 C.3       12 UNK        -0.1800 
     72 C          -3.2720  -24.0082  -47.2938 C.2       12 UNK         0.5000 
     73 O          -4.0134  -24.4152  -48.1865 O.2       12 UNK        -0.5000 
     74 N          -2.7607  -24.8002  -46.3377 N.am      13 UNK        -0.5000 
     75 CA         -2.9549  -26.2501  -46.2876 C.3       13 UNK         0.1400 
     76 CB         -2.6008  -26.7711  -44.8871 C.3       13 UNK        -0.1800 
     77 C          -2.1380  -26.9866  -47.3659 C.2       13 UNK         0.5000 
     78 O          -2.6371  -27.9476  -47.9511 O.2       13 UNK        -0.5000 
     79 N          -0.9166  -26.5059  -47.6428 N.am      14 UNK        -0.5000 
     80 CA         -0.0521  -27.0031  -48.7184 C.3       14 UNK         0.1400 
     81 CB          1.3863  -26.5075  -48.5003 C.3       14 UNK        -0.1800 
     82 C          -0.5743  -26.5971  -50.1101 C.2       14 UNK         0.5000 
     83 O          -0.4350  -27.3637  -51.0630 O.2       14 UNK        -0.5000 
     84 N          -1.2220  -25.4262  -50.1830 N.am      15 UNK        -0.5000 
     85 CA         -1.9661  -24.9249  -51.3406 C.3       15 UNK         0.1400 
     86 CB         -2.1417  -23.4045  -51.1962 C.3       15 UNK        -0.1800 
     87 C          -3.3292  -25.6246  -51.5520 C.2       15 UNK         0.5000 
     88 O          -4.0295  -25.2821  -52.5057 O.2       15 UNK        -0.5000 
     89 N          -3.6807  -26.5808  -50.6772 N.am      16 UNK        -0.5000 
     90 CA         -4.8551  -27.4554  -50.6911 C.3       16 UNK         0.1400 
     91 CB         -4.7858  -28.4415  -51.8769 C.3       16 UNK        -0.1800 
     92 C          -6.1825  -26.6789  -50.6283 C.2       16 UNK         0.5000 
     93 O          -6.7161  -26.4714  -49.5381 O.2       16 UNK        -0.5000 
     94 N          -6.6913  -26.2702  -51.7967 N.am      17 UNK        -0.5000 
     95 CA         -7.8889  -25.4463  -51.9476 C.3       17 UNK         0.1400 
     96 CB         -8.3638  -25.5285  -53.4067 C.3       17 UNK        -0.1800 
     97 C          -7.6640  -23.9775  -51.5399 C.2       17 UNK         0.5000 
     98 O          -8.6385  -23.2954  -51.2191 O.2       17 UNK        -0.5000 
     99 N          -6.3998  -23.5229  -51.5672 N.am      18 UNK        -0.5000 
    100 CA        -5.9581  -22.1464  -51.3231 C.3       18 UNK         0.1400 
    101 CB        -6.2062  -21.7454  -49.8512 C.3       18 UNK        -0.1800 
    102 C         -6.5600  -21.1756  -52.3640 C.2       18 UNK         0.5000 
    103 O         -6.6857  -21.5570  -53.5311 O.2       18 UNK        -0.5000 
    104 N         -6.9054  -19.9486  -51.9459 N.am      19 UNK        -0.5000 
    105 CA        -7.5118  -18.8807  -52.7498 C.3       19 UNK         0.1400 
    106 CB        -8.9703  -19.2392  -53.1125 C.3       19 UNK        -0.1800 
    107 C         -6.6379  -18.5217  -53.9682 C.2       19 UNK         0.5000 
    108 O         -5.6160  -17.8588  -53.7969 O.2       19 UNK        -0.5000 
    109 N         -7.0135  -18.9995  -55.1623 N.am      20 UNK        -0.5000 
    110 CA        -6.2422  -18.8622  -56.3996 C.3       20 UNK         0.1400 
    111 CB        -7.0672  -19.4145  -57.5713 C.3       20 UNK        -0.1800 
    112 C         -4.8615  -19.5471  -56.3397 C.2       20 UNK         0.5000 
    113 O         -3.9119  -19.0455  -56.9432 O.2       20 UNK        -0.5000 
    114 N         -4.7529  -20.6468  -55.5779 N.am      21 UNK        -0.5000 
    115 CA        -3.5020  -21.3783  -55.3552 C.3       21 UNK         0.1400 
    116 CB        -3.8155  -22.7638  -54.7711 C.3       21 UNK        -0.1800 
    117 C         -2.4913  -20.6159  -54.4722 C.2       21 UNK         0.5000 
    118 O         -1.3076  -20.9540  -54.4913 O.2       21 UNK        -0.5000 
    119 N         -2.9576  -19.5902  -53.7467 N.am      22 UNK        -0.5000 
    120 CA        -2.1144  -18.6227  -53.0258 C.3       22 UNK         0.1400 
    121 C         -1.5063  -17.5223  -53.9486 C.2       22 UNK         0.5000 
    122 N         -1.8522  -17.4419  -55.2299 N.am      22 UNK        -0.7600 
    123 O         -0.6907  -16.7248  -53.4967 O.2       22 UNK        -0.5000 
    124 C124       -2.8648  -17.9871  -51.8264 C.3       23 UNK        -0.0398 
    125 S125       -3.3957  -19.2284  -50.5957 S.3       23 UNK        -0.2404 
    126 C126       -2.4014  -18.7589  -49.1432 C.3       23 UNK        -0.0205 
    127 H127        3.2486   -9.8430  -51.2372 H         1 UNK         0.0600 
    128 H128        1.6051  -10.3508  -51.6371 H         1 UNK         0.0600 
    129 H129        1.8664   -8.9743  -50.5614 H         1 UNK         0.0600 
    130 H130        1.0033  -12.1923  -50.5383 H         1 UNK         0.3000 
    131 H131        2.4612  -13.3681  -48.4660 H         1 UNK         0.0600 
    132 H132       -0.4053  -13.9635  -49.3604 H         1 UNK         0.0800 
    133 H133        0.5375  -14.9907  -48.3153 H         1 UNK         0.0800 
    134 H134        2.5110  -16.2938  -48.8467 H         1 UNK         0.0800 
    135 H135        3.0156  -16.7637  -50.4475 H         1 UNK         0.0800 
    136 H136       -0.6051  -16.7365  -49.3934 H         1 UNK         0.1150 
    137 H137       -0.9063  -20.9957  -49.4739 H         1 UNK         0.1150 
    138 H138        2.9009  -19.1230  -50.0630 H         1 UNK         0.1150 
    139 H139        0.9707  -22.3519  -50.0065 H         1 UNK         0.0800 
    140 H140        2.3444  -21.6130  -50.7767 H         1 UNK         0.0800 
    141 H141        1.1449  -20.5692  -47.2203 H         1 UNK         0.0800 
    142 H142        2.4825  -21.0944  -46.2671 H         1 UNK         0.0800 
    143 H143        1.4859  -23.4905  -46.3823 H         1 UNK         0.0600 
    144 H144        0.9721  -21.3902  -44.6020 H         1 UNK         0.3000 
    145 H145       -0.8916  -23.2048  -42.1470 H         1 UNK         0.0600 
    146 H146        0.9768  -22.2398  -40.8204 H         1 UNK         0.0600 
    147 H147        1.5180  -23.6233  -41.7595 H         1 UNK         0.0600 
    148 H148        1.9225  -21.9956  -42.2857 H         1 UNK         0.0600 
    149 H149       -0.0020  -20.4485  -42.6330 H         1 UNK         0.3000 
    150 H150       -3.1794  -19.3404  -43.7676 H         1 UNK         0.0600 
    151 H151       -3.4986  -19.3482  -41.2757 H         1 UNK         0.0600 
    152 H152       -3.0597  -17.7574  -41.8768 H         1 UNK         0.0600 
    153 H153       -1.8539  -18.7558  -41.0661 H         1 UNK         0.0600 
    154 H154       -0.8650  -17.8476  -43.1463 H         1 UNK         0.3000 
    155 H155        0.9531  -18.4263  -46.1844 H         1 UNK         0.0600 
    156 H156       -0.5788  -16.0090  -45.1036 H         1 UNK         0.0600 
    157 H157       -0.6310  -16.6331  -46.7437 H         1 UNK         0.0600 
    158 H158        0.8550  -15.9194  -46.1240 H         1 UNK         0.0600 
    159 H159        1.6306  -16.8089  -43.9867 H         1 UNK         0.3000 
    160 H160        3.1514  -19.2996  -41.9047 H         1 UNK         0.0600 
    161 H161        5.0000  -17.6361  -42.1623 H         1 UNK         0.0600 
    162 H162        4.2541  -17.0241  -43.6379 H         1 UNK         0.0600 
    163 H163        4.8545  -18.6733  -43.5731 H         1 UNK         0.0600 
    164 H164        2.5743  -16.4206  -41.8678 H         1 UNK         0.3000 
    165 H165       -0.2435  -16.7242  -39.7310 H         1 UNK         0.0600 
    166 H166        1.0820  -15.2769  -38.2156 H         1 UNK         0.0600 
    167 H167        1.6424  -16.9377  -38.1058 H         1 UNK         0.0600 
    168 H168        2.5784  -15.7584  -39.0165 H         1 UNK         0.0600 
    169 H169        1.2497  -14.4658  -40.6634 H         1 UNK         0.3000 
    170 H170       -0.3714  -14.1068  -43.8078 H         1 UNK         0.0600 
    171 H171       -2.0359  -13.2133  -42.1572 H         1 UNK         0.0600 
    172 H172       -0.7256  -12.4737  -41.2440 H         1 UNK         0.0600 
    173 H173       -1.0753  -11.9398  -42.8879 H         1 UNK         0.0600 
    174 H174        1.3565  -12.2938  -42.7157 H         1 UNK         0.3000 
    175 H175        3.9735  -12.7638  -42.5266 H         1 UNK         0.0600 
    176 H176        4.4872  -14.1585  -45.2141 H         1 UNK         0.0600 
    177 H177        5.6560  -13.1571  -44.3536 H         1 UNK         0.0600 
    178 H178        5.1068  -14.6672  -43.6456 H         1 UNK         0.0600 
    179 H179        2.6175  -12.0550  -45.0599 H         1 UNK         0.3000 
    180 H180        2.8126   -8.6744  -44.3398 H         1 UNK         0.0600 
    181 H181        4.5464   -9.8399  -46.5822 H         1 UNK         0.0600 
    182 H182        5.0458   -8.6329  -45.4050 H         1 UNK         0.0600 
    183 H183        3.8137   -8.2355  -46.5932 H         1 UNK         0.0600 
    184 H184        2.0770  -10.1401  -46.7222 H         1 UNK         0.3000 
    185 H185       -0.9526  -11.4512  -45.5459 H         1 UNK         0.0600 
    186 H186       -1.7741   -9.0950  -45.7323 H         1 UNK         0.0600 
    187 H187       -0.8353   -8.8736  -47.2041 H         1 UNK         0.0600 
    188 H188       -2.1731  -10.0236  -47.1680 H         1 UNK         0.0600 
    189 H189       -0.0780  -11.0038  -48.2109 H         1 UNK         0.3000 
    190 H190       -1.4576  -21.5624  -46.0157 H         1 UNK         0.3000 
    191 H191       -2.8646  -22.1620  -48.3108 H         1 UNK         0.0600 
    192 H192       -3.9502  -22.0182  -45.4533 H         1 UNK         0.0600 
    193 H193       -4.8890  -21.8019  -46.9227 H         1 UNK         0.0600 
    194 H194       -3.6482  -20.6342  -46.5004 H         1 UNK         0.0600 
    195 H195       -2.1343  -24.4003  -45.6488 H         1 UNK         0.3000 
    196 H196       -4.0116  -26.4604  -46.4674 H         1 UNK         0.0600 
    197 H197       -2.8106  -27.8383  -44.8056 H         1 UNK         0.0600 
    198 H198       -3.1838  -26.2649  -44.1175 H         1 UNK         0.0600 
    199 H199       -1.5447  -26.6280  -44.6570 H         1 UNK         0.0600 
    200 H200       -0.6050  -25.6713  -47.1657 H         1 UNK         0.3000 
    201 H201       -0.0430  -28.0941  -48.6716 H         1 UNK         0.0600 
    202 H202        1.7627  -26.8057  -47.5218 H         1 UNK         0.0600 
    203 H203        1.4620  -25.4225  -48.5725 H         1 UNK         0.0600 
    204 H204        2.0578  -26.9293  -49.2490 H         1 UNK         0.0600 
    205 H205       -1.2019  -24.8267  -49.3630 H         1 UNK         0.3000 
    206 H206       -1.3680  -25.1109  -52.2347 H         1 UNK         0.0600 
    207 H207       -1.1886  -22.9100  -51.0121 H         1 UNK         0.0600 
    208 H208       -2.5554  -22.9689  -52.1048 H         1 UNK         0.0600 
    209 H209       -2.8163  -23.1557  -50.3788 H         1 UNK         0.0600 
    210 H210       -3.0578  -26.7357  -49.8965 H         1 UNK         0.3000 
    211 H211       -4.8025  -28.0474  -49.7761 H         1 UNK         0.0600 
    212 H212       -4.7337  -27.9343  -52.8405 H         1 UNK         0.0600 
    213 H213       -5.6597  -29.0939  -51.8942 H         1 UNK         0.0600 
    214 H214       -3.9071  -29.0816  -51.7962 H         1 UNK         0.0600 
    215 H215       -6.1467  -26.4365  -52.6318 H         1 UNK         0.3000 
    216 H216       -8.6737  -25.8535  -51.3067 H         1 UNK         0.0600 
    217 H217       -9.2770  -24.9503  -53.5530 H         1 UNK         0.0600 
    218 H218       -8.5814  -26.5572  -53.6946 H         1 UNK         0.0600 
    219 H219       -7.6140  -25.1364  -54.0953 H         1 UNK         0.0600 
    220 H220       -5.6805  -24.1637  -51.8846 H         1 UNK         0.3000 
    221 H221       -4.8807  -22.1369  -51.4875 H         1 UNK         0.0600 
    222 H222       -7.2675  -21.6293  -49.6302 H         1 UNK         0.0600 
    223 H223       -5.8098  -22.5014  -49.1737 H         1 UNK         0.0600 
    224 H224       -5.7116  -20.8072  -49.6016 H         1 UNK         0.0600 
    225 H225       -6.7268  -19.7134  -50.9801 H         1 UNK         0.3000 
    226 H226       -7.5387  -17.9906  -52.1195 H         1 UNK         0.0600 
    227 H227       -9.5723  -19.3627  -52.2122 H         1 UNK         0.0600 
    228 H228       -9.4343  -18.4477  -53.7023 H         1 UNK         0.0600 
    229 H229       -9.0439  -20.1661  -53.6821 H         1 UNK         0.0600 
    230 H230       -7.8421  -19.5747  -55.2061 H         1 UNK         0.3000 
    231 H231       -6.0736  -17.7970  -56.5709 H         1 UNK         0.0600 
    232 H232       -8.0123  -18.8811  -57.6749 H         1 UNK         0.0600 
    233 H233       -7.2910  -20.4741  -57.4414 H         1 UNK         0.0600 
    234 H234       -6.5287  -19.3055  -58.5137 H         1 UNK         0.0600 
    235 H235       -5.5673  -20.9757  -55.0664 H         1 UNK         0.3000 
    236 H236       -3.0264  -21.5292  -56.3266 H         1 UNK         0.0600 
    237 H237       -2.9076  -23.3587  -54.6638 H         1 UNK         0.0600 
    238 H238       -4.2747  -22.6934  -53.7870 H         1 UNK         0.0600 
    239 H239       -4.4942  -23.3221  -55.4159 H         1 UNK         0.0600 
    240 H240       -3.9387  -19.3517  -53.8060 H         1 UNK         0.3000 
    241 H241       -1.2589  -19.1628  -52.6147 H         1 UNK         0.0600 
    242 H242       -1.4391  -16.7237  -55.8033 H         1 UNK         0.3800 
    243 H243       -2.5208  -18.0814  -55.6399 H         1 UNK         0.3800 
    244 H244       -2.2382  -17.2422  -51.3350 H         1 UNK         0.0800 
    245 H245       -3.7434  -17.4406  -52.1657 H         1 UNK         0.0800 
    246 H246       -2.6774  -17.7519  -48.8271 H         1 UNK         0.0800 
    247 H247       -2.6528  -19.4181  -48.3121 H         1 UNK         0.0800 
@<TRIPOS>BOND
     1    1    2 1    
     2    1  127 1    
     3    1  128 1    
     4    1  129 1    
     5    2    3 2    
     6    2    4 am   BACKBONE|DICT|INTERRES
     7    4    5 1    
     8    4  130 1    
     9    5    6 1    
    10    5   65 1    
    11    5  131 1    
    12    6    7 1    
    13    6  132 1    
    14    6  133 1    
    15    7    8 1    
    16    8    9 1    
    17    8  134 1    
    18    8  135 1    
    19    9   10 ar   
    20    9   14 ar   
    21   10   11 ar   
    22   10  136 1    
    23   11   12 ar   
    24   11  126 1    
    25   12   13 ar   
    26   12  137 1    
    27   13   14 ar   
    28   13   15 1    
    29   14  138 1    
    30   15   16 1    
    31   15  139 1    
    32   15  140 1    
    33   16   17 1    
    34   17   18 1    
    35   17  141 1    
    36   17  142 1    
    37   18   19 1    
    38   18   67 1    
    39   18  143 1    
    40   19   20 am   BACKBONE|DICT|INTERRES
    41   19  144 1    
    42   20   21 2    
    43   20   22 1    
    44   22   23 1    
    45   22   24 1    
    46   22  145 1    
    47   23  146 1    
    48   23  147 1    
    49   23  148 1    
    50   24   25 am   BACKBONE|DICT|INTERRES
    51   24  149 1    
    52   25   26 2    
    53   25   27 1    
    54   27   28 1    
    55   27   29 1    
    56   27  150 1    
    57   28  151 1    
    58   28  152 1    
    59   28  153 1    
    60   29   30 am   BACKBONE|DICT|INTERRES
    61   29  154 1    
    62   30   31 2    
    63   30   32 1    
    64   32   33 1    
    65   32   34 1    
    66   32  155 1    
    67   33  156 1    
    68   33  157 1    
    69   33  158 1    
    70   34   35 am   BACKBONE|DICT|INTERRES
    71   34  159 1    
    72   35   36 2    
    73   35   37 1    
    74   37   38 1    
    75   37   39 1    
    76   37  160 1    
    77   38  161 1    
    78   38  162 1    
    79   38  163 1    
    80   39   40 am   BACKBONE|DICT|INTERRES
    81   39  164 1    
    82   40   41 2    
    83   40   42 1    
    84   42   43 1    
    85   42   44 1    
    86   42  165 1    
    87   43  166 1    
    88   43  167 1    
    89   43  168 1    
    90   44   45 am   BACKBONE|DICT|INTERRES
    91   44  169 1    
    92   45   46 2    
    93   45   47 1    
    94   47   48 1    
    95   47   49 1    
    96   47  170 1    
    97   48  171 1    
    98   48  172 1    
    99   48  173 1    
   100   49   50 am   BACKBONE|DICT|INTERRES
   101   49  174 1    
   102   50   51 2    
   103   50   52 1    
   104   52   53 1    
   105   52   54 1    
   106   52  175 1    
   107   53  176 1    
   108   53  177 1    
   109   53  178 1    
   110   54   55 am   BACKBONE|DICT|INTERRES
   111   54  179 1    
   112   55   56 2    
   113   55   57 1    
   114   57   58 1    
   115   57   59 1    
   116   57  180 1    
   117   58  181 1    
   118   58  182 1    
   119   58  183 1    
   120   59   60 am   BACKBONE|DICT|INTERRES
   121   59  184 1    
   122   60   61 2    
   123   60   62 1    
   124   62   63 1    
   125   62   64 1    
   126   62  185 1    
   127   63  186 1    
   128   63  187 1    
   129   63  188 1    
   130   64   65 am   BACKBONE|DICT|INTERRES
   131   64  189 1    
   132   65   66 2    
   133   67   68 2    
   134   67   69 am   BACKBONE|DICT|INTERRES
   135   69   70 1    
   136   69  190 1    
   137   70   71 1    
   138   70   72 1    
   139   70  191 1    
   140   71  192 1    
   141   71  193 1    
   142   71  194 1    
   143   72   73 2    
   144   72   74 am   BACKBONE|DICT|INTERRES
   145   74   75 1    
   146   74  195 1    
   147   75   76 1    
   148   75   77 1    
   149   75  196 1    
   150   76  197 1    
   151   76  198 1    
   152   76  199 1    
   153   77   78 2    
   154   77   79 am   BACKBONE|DICT|INTERRES
   155   79   80 1    
   156   79  200 1    
   157   80   81 1    
   158   80   82 1    
   159   80  201 1    
   160   81  202 1    
   161   81  203 1    
   162   81  204 1    
   163   82   83 2    
   164   82   84 am   BACKBONE|DICT|INTERRES
   165   84   85 1    
   166   84  205 1    
   167   85   86 1    
   168   85   87 1    
   169   85  206 1    
   170   86  207 1    
   171   86  208 1    
   172   86  209 1    
   173   87   88 2    
   174   87   89 am   BACKBONE|DICT|INTERRES
   175   89   90 1    
   176   89  210 1    
   177   90   91 1    
   178   90   92 1    
   179   90  211 1    
   180   91  212 1    
   181   91  213 1    
   182   91  214 1    
   183   92   93 2    
   184   92   94 am   BACKBONE|DICT|INTERRES
   185   94   95 1    
   186   94  215 1    
   187   95   96 1    
   188   95   97 1    
   189   95  216 1    
   190   96  217 1    
   191   96  218 1    
   192   96  219 1    
   193   97   98 2    
   194   97   99 am   BACKBONE|DICT|INTERRES
   195   99  100 1    
   196   99  220 1    
   197  100  101 1    
   198  100  102 1    
   199  100  221 1    
   200  101  222 1    
   201  101  223 1    
   202  101  224 1    
   203  102  103 2    
   204  102  104 am   BACKBONE|DICT|INTERRES
   205  104  105 1    
   206  104  225 1    
   207  105  106 1    
   208  105  107 1    
   209  105  226 1    
   210  106  227 1    
   211  106  228 1    
   212  106  229 1    
   213  107  108 2    
   214  107  109 am   BACKBONE|DICT|INTERRES
   215  109  110 1    
   216  109  230 1    
   217  110  111 1    
   218  110  112 1    
   219  110  231 1    
   220  111  232 1    
   221  111  233 1    
   222  111  234 1    
   223  112  113 2    
   224  112  114 am   BACKBONE|DICT|INTERRES
   225  114  115 1    
   226  114  235 1    
   227  115  116 1    
   228  115  117 1    
   229  115  236 1    
   230  116  237 1    
   231  116  238 1    
   232  116  239 1    
   233  117  118 2    
   234  117  119 am   BACKBONE|DICT|INTERRES
   235  119  120 1    
   236  119  240 1    
   237  120  121 1    
   238  120  124 1    
   239  120  241 1    
   240  121  122 am   BACKBONE|DICT|INTERRES
   241  121  123 2    
   242  122  242 1    
   243  122  243 1    
   244  124  125 1    
   245  124  244 1    
   246  124  245 1    
   247  125  126 1    
   248  126  246 1    
   249  126  247 1    
@<TRIPOS>SUBSTRUCTURE
     1 UNK         1 GROUP             0       ****    0 ROOT    
