@<TRIPOS>MOLECULE
3R540
247   249    1
SMALL
USER_CHARGES


@<TRIPOS>ATOM
      1 CA         -7.0229  -18.3593  -49.0651 C.3       0 UNK        -0.1800 
      2 C          -5.8117  -17.4414  -49.1231 C.2       0 UNK         0.5000 
      3 O          -5.4755  -16.9397  -50.1953 O.2       0 UNK        -0.5000 
      4 N          -5.1598  -17.2157  -47.9782 N.am      1 UNK        -0.5000 
      5 CA         -4.0048  -16.3287  -47.8312 C.3       1 UNK         0.1400 
      6 C6         -2.7495  -17.0652  -47.3011 C.3       23 UNK        -0.0398 
      7 S7         -2.1632  -18.3256  -48.4793 S.3       23 UNK        -0.2404 
      8 C8         -0.3652  -18.2774  -48.2322 C.3       23 UNK        -0.0205 
      9 C9          0.3158  -19.3961  -49.0066 C.ar      23 UNK        -0.0193 
     10 C10         0.9170  -19.1523  -50.2449 C.ar      23 UNK        -0.1150 
     11 C11         1.5060  -20.1950  -50.9672 C.ar      23 UNK        -0.0193 
     12 C12         1.5088  -21.4874  -50.4320 C.ar      23 UNK        -0.1150 
     13 C13         0.9183  -21.7425  -49.1913 C.ar      23 UNK        -0.0193 
     14 C14         0.3305  -20.6911  -48.4846 C.ar      23 UNK        -0.1150 
     15 C15         0.8635  -23.1562  -48.6334 C.3       23 UNK        -0.0205 
     16 S16         2.1541  -23.4569  -47.3807 S.3       23 UNK        -0.2404 
     17 C17         1.1548  -24.2654  -46.0880 C.3       23 UNK        -0.0398 
     18 CA          1.9650  -24.8192  -44.8875 C.3       11 UNK         0.1400 
     19 N           2.6241  -23.7555  -44.1171 N.am      11 UNK        -0.5000 
     20 C           3.5519  -23.9495  -43.1684 C.2       10 UNK         0.5000 
     21 O           4.0050  -25.0565  -42.8757 O.2       10 UNK        -0.5000 
     22 CA          4.0284  -22.7076  -42.3882 C.3       10 UNK         0.1400 
     23 CB          5.1204  -21.9524  -43.1613 C.3       10 UNK        -0.1800 
     24 N           2.9343  -21.7920  -42.0534 N.am      10 UNK        -0.5000 
     25 C           1.9711  -22.0543  -41.1570 C.2       9 UNK         0.5000 
     26 O           1.9243  -23.0864  -40.4878 O.2       9 UNK        -0.5000 
     27 CA          0.8415  -21.0137  -41.0153 C.3       9 UNK         0.1400 
     28 CB          1.2534  -19.8715  -40.0748 C.3       9 UNK        -0.1800 
     29 N           0.4219  -20.4629  -42.3037 N.am      9 UNK        -0.5000 
     30 C          -0.1336  -21.1865  -43.2844 C.2       8 UNK         0.5000 
     31 O          -0.4361  -22.3741  -43.1752 O.2       8 UNK        -0.5000 
     32 CA         -0.3205  -20.4944  -44.6413 C.3       8 UNK         0.1400 
     33 CB         -1.6756  -19.7827  -44.7235 C.3       8 UNK        -0.1800 
     34 N           0.7729  -19.5721  -44.9620 N.am      8 UNK        -0.5000 
     35 C           2.0361  -19.9686  -45.1799 C.2       7 UNK         0.5000 
     36 O           2.3850  -21.1443  -45.1498 O.2       7 UNK        -0.5000 
     37 CA          3.1025  -18.8809  -45.3815 C.3       7 UNK         0.1400 
     38 CB          3.1874  -18.4394  -46.8499 C.3       7 UNK        -0.1800 
     39 N           2.8619  -17.7314  -44.5110 N.am      7 UNK        -0.5000 
     40 C           3.0762  -17.7549  -43.1861 C.2       6 UNK         0.5000 
     41 O           3.5630  -18.7203  -42.5967 O.2       6 UNK        -0.5000 
     42 CA          2.6386  -16.5195  -42.3735 C.3       6 UNK         0.1400 
     43 CB          3.7966  -15.5183  -42.2519 C.3       6 UNK        -0.1800 
     44 N           1.4723  -15.8391  -42.9386 N.am      6 UNK        -0.5000 
     45 C           0.2530  -16.3826  -43.0618 C.2       5 UNK         0.5000 
     46 O          -0.0353  -17.5000  -42.6329 O.2       5 UNK        -0.5000 
     47 CA         -0.8017  -15.5694  -43.8430 C.3       5 UNK         0.1400 
     48 CB         -1.7167  -14.8048  -42.8762 C.3       5 UNK        -0.1800 
     49 N          -0.2374  -14.6261  -44.8173 N.am      5 UNK        -0.5000 
     50 C           0.5375  -14.9623  -45.8593 C.2       4 UNK         0.5000 
     51 O           0.8900  -16.1203  -46.0832 O.2       4 UNK        -0.5000 
     52 CA          1.0198  -13.8103  -46.7680 C.3       4 UNK         0.1400 
     53 CB          1.5607  -14.3072  -48.1268 C.3       4 UNK        -0.1800 
     54 N           0.0113  -12.7549  -46.9429 N.am      4 UNK        -0.5000 
     55 C          -1.1775  -12.8873  -47.5461 C.2       3 UNK         0.5000 
     56 O          -1.5609  -13.9222  -48.0977 O.2       3 UNK        -0.5000 
     57 CA         -2.0973  -11.6555  -47.5366 C.3       3 UNK         0.1400 
     58 CB         -1.7929  -10.7416  -48.7334 C.3       3 UNK        -0.1800 
     59 N          -3.4633  -12.1473  -47.6496 N.am      3 UNK        -0.5000 
     60 C          -4.4295  -12.0185  -46.7348 C.2       2 UNK         0.5000 
     61 O          -4.3860  -11.2342  -45.7865 O.2       2 UNK        -0.5000 
     62 CA         -5.6288  -12.9781  -46.8887 C.3       2 UNK         0.1400 
     63 CB         -6.7380  -12.3306  -47.7318 C.3       2 UNK        -0.1800 
     64 N          -5.2448  -14.2565  -47.4999 N.am      2 UNK        -0.5000 
     65 C          -4.4273  -15.1569  -46.9333 C.2       1 UNK         0.5000 
     66 O          -4.0331  -15.0886  -45.7681 O.2       1 UNK        -0.5000 
     67 C           1.0210  -25.6874  -44.0240 C.2       11 UNK         0.5000 
     68 O           0.6867  -26.7965  -44.4395 O.2       11 UNK        -0.5000 
     69 N           0.5596  -25.1508  -42.8835 N.am      12 UNK        -0.5000 
     70 CA         -0.5301  -25.6594  -42.0421 C.3       12 UNK         0.1400 
     71 CB         -0.1637  -27.0132  -41.3994 C.3       12 UNK        -0.1800 
     72 C          -1.8670  -25.6822  -42.8155 C.2       12 UNK         0.5000 
     73 O          -2.6032  -26.6683  -42.7708 O.2       12 UNK        -0.5000 
     74 N          -2.1162  -24.5880  -43.5507 N.am      13 UNK        -0.5000 
     75 CA         -3.2551  -24.2875  -44.4270 C.3       13 UNK         0.1400 
     76 CB         -4.5787  -24.3031  -43.6379 C.3       13 UNK        -0.1800 
     77 C          -3.3529  -25.1365  -45.7140 C.2       13 UNK         0.5000 
     78 O          -4.2063  -24.8412  -46.5527 O.2       13 UNK        -0.5000 
     79 N          -2.4931  -26.1516  -45.8776 N.am      14 UNK        -0.5000 
     80 CA         -2.4654  -27.0525  -47.0293 C.3       14 UNK         0.1400 
     81 CB         -1.5008  -28.2138  -46.7421 C.3       14 UNK        -0.1800 
     82 C          -2.0764  -26.3065  -48.3182 C.2       14 UNK         0.5000 
     83 O          -0.9246  -25.8965  -48.4571 O.2       14 UNK        -0.5000 
     84 N          -3.0538  -26.1284  -49.2169 N.am      15 UNK        -0.5000 
     85 CA         -2.9592  -25.3965  -50.4858 C.3       15 UNK         0.1400 
     86 CB         -1.9705  -26.0828  -51.4530 C.3       15 UNK        -0.1800 
     87 C          -2.6832  -23.8856  -50.3133 C.2       15 UNK         0.5000 
     88 O          -2.0758  -23.2711  -51.1912 O.2       15 UNK        -0.5000 
     89 N          -3.1553  -23.3041  -49.2000 N.am      16 UNK        -0.5000 
     90 CA         -3.1473  -21.8627  -48.9500 C.3       16 UNK         0.1400 
     91 CB         -3.5141  -21.6053  -47.4792 C.3       16 UNK        -0.1800 
     92 C          -4.1077  -21.1449  -49.9165 C.2       16 UNK         0.5000 
     93 O          -5.3180  -21.3648  -49.8358 O.2       16 UNK        -0.5000 
     94 N          -3.5511  -20.3543  -50.8430 N.am      17 UNK        -0.5000 
     95 CA         -4.2747  -19.7904  -51.9812 C.3       17 UNK         0.1400 
     96 CB         -4.4670  -20.8899  -53.0487 C.3       17 UNK        -0.1800 
     97 C          -3.5808  -18.5396  -52.5532 C.2       17 UNK         0.5000 
     98 O          -3.6431  -18.3173  -53.7651 O.2       17 UNK        -0.5000 
     99 N          -2.9143  -17.7357  -51.7099 N.am      18 UNK        -0.5000 
    100 CA        -2.2002  -16.5215  -52.1322 C.3       18 UNK         0.1400 
    101 CB        -1.3808  -15.9303  -50.9803 C.3       18 UNK        -0.1800 
    102 C         -3.0950  -15.4378  -52.7519 C.2       18 UNK         0.5000 
    103 O         -2.6651  -14.7727  -53.6949 O.2       18 UNK        -0.5000 
    104 N         -4.3255  -15.3018  -52.2418 N.am      19 UNK        -0.5000 
    105 CA        -5.3226  -14.3693  -52.7675 C.3       19 UNK         0.1400 
    106 CB        -6.4178  -14.1553  -51.7107 C.3       19 UNK        -0.1800 
    107 C         -5.9355  -14.8422  -54.1005 C.2       19 UNK         0.5000 
    108 O         -6.4701  -14.0165  -54.8417 O.2       19 UNK        -0.5000 
    109 N         -5.8582  -16.1513  -54.3764 N.am      20 UNK        -0.5000 
    110 CA        -6.3919  -16.7750  -55.5820 C.3       20 UNK         0.1400 
    111 CB        -6.9295  -18.1726  -55.2406 C.3       20 UNK        -0.1800 
    112 C         -5.3431  -16.8470  -56.7031 C.2       20 UNK         0.5000 
    113 O         -5.6488  -16.4434  -57.8266 O.2       20 UNK        -0.5000 
    114 N         -4.1428  -17.3669  -56.4013 N.am      21 UNK        -0.5000 
    115 CA        -3.1143  -17.6379  -57.4117 C.3       21 UNK         0.1400 
    116 CB        -3.4674  -18.9271  -58.1800 C.3       21 UNK        -0.1800 
    117 C         -1.6758  -17.7302  -56.8724 C.2       21 UNK         0.5000 
    118 O         -0.7497  -17.4869  -57.6477 O.2       21 UNK        -0.5000 
    119 N         -1.4826  -18.1042  -55.5986 N.am      22 UNK        -0.5000 
    120 CA        -0.1456  -18.3618  -55.0206 C.3       22 UNK         0.1400 
    121 C          0.7242  -17.0928  -54.7585 C.2       22 UNK         0.5000 
    122 N          0.1796  -15.8834  -54.8201 N.am      22 UNK        -0.7600 
    123 O          1.9210  -17.2027  -54.5121 O.2       22 UNK        -0.5000 
    124 C124       -0.2202  -19.2958  -53.7764 C.3       23 UNK        -0.0398 
    125 S125        1.1311  -20.5231  -53.7093 S.3       23 UNK        -0.2404 
    126 C126        2.1507  -19.9259  -52.3198 C.3       23 UNK        -0.0205 
    127 H127       -7.0984  -18.8691  -48.1045 H         1 UNK         0.0600 
    128 H128       -6.9586  -19.1173  -49.8450 H         1 UNK         0.0600 
    129 H129       -7.9351  -17.7845  -49.2230 H         1 UNK         0.0600 
    130 H130       -5.4980  -17.6327  -47.1224 H         1 UNK         0.3000 
    131 H131       -3.7399  -15.8855  -48.7911 H         1 UNK         0.0600 
    132 H132       -1.9401  -16.3562  -47.1212 H         1 UNK         0.0800 
    133 H133       -2.9610  -17.5415  -46.3438 H         1 UNK         0.0800 
    134 H134        0.0289  -17.3037  -48.5240 H         1 UNK         0.0800 
    135 H135       -0.1519  -18.3828  -47.1708 H         1 UNK         0.0800 
    136 H136        0.9282  -18.1536  -50.6532 H         1 UNK         0.1150 
    137 H137        1.9576  -22.2967  -50.9906 H         1 UNK         0.1150 
    138 H138       -0.1443  -20.8869  -47.5371 H         1 UNK         0.1150 
    139 H139       -0.1267  -23.3208  -48.2059 H         1 UNK         0.0800 
    140 H140        0.9657  -23.8899  -49.4345 H         1 UNK         0.0800 
    141 H141        0.3988  -23.5590  -45.7426 H         1 UNK         0.0800 
    142 H142        0.6128  -25.0768  -46.5755 H         1 UNK         0.0800 
    143 H143        2.7418  -25.4810  -45.2758 H         1 UNK         0.0600 
    144 H144        2.3862  -22.7993  -44.3754 H         1 UNK         0.3000 
    145 H145        4.4678  -23.0565  -41.4512 H         1 UNK         0.0600 
    146 H146        5.4812  -21.0928  -42.5960 H         1 UNK         0.0600 
    147 H147        4.7625  -21.5917  -44.1250 H         1 UNK         0.0600 
    148 H148        5.9772  -22.5992  -43.3536 H         1 UNK         0.0600 
    149 H149        2.9118  -20.9098  -42.5491 H         1 UNK         0.3000 
    150 H150       -0.0209  -21.5186  -40.5750 H         1 UNK         0.0600 
    151 H151        1.5069  -20.2550  -39.0858 H         1 UNK         0.0600 
    152 H152        0.4433  -19.1529  -39.9484 H         1 UNK         0.0600 
    153 H153        2.1231  -19.3320  -40.4485 H         1 UNK         0.0600 
    154 H154        0.5759  -19.4727  -42.4593 H         1 UNK         0.3000 
    155 H155       -0.3220  -21.2879  -45.3888 H         1 UNK         0.0600 
    156 H156       -2.4876  -20.4509  -44.4332 H         1 UNK         0.0600 
    157 H157       -1.8762  -19.4642  -45.7431 H         1 UNK         0.0600 
    158 H158       -1.7230  -18.9083  -44.0757 H         1 UNK         0.0600 
    159 H159        0.5684  -18.5834  -44.9471 H         1 UNK         0.3000 
    160 H160        4.0688  -19.3157  -45.1166 H         1 UNK         0.0600 
    161 H161        2.2659  -17.9741  -47.1927 H         1 UNK         0.0600 
    162 H162        3.3795  -19.2931  -47.5015 H         1 UNK         0.0600 
    163 H163        3.9967  -17.7250  -47.0000 H         1 UNK         0.0600 
    164 H164        2.3968  -16.9351  -44.9318 H         1 UNK         0.3000 
    165 H165        2.3738  -16.8616  -41.3708 H         1 UNK         0.0600 
    166 H166        3.5262  -14.6774  -41.6130 H         1 UNK         0.0600 
    167 H167        4.6756  -15.9903  -41.8108 H         1 UNK         0.0600 
    168 H168        4.0901  -15.1217  -43.2247 H         1 UNK         0.0600 
    169 H169        1.6226  -14.9150  -43.3148 H         1 UNK         0.3000 
    170 H170       -1.4141  -16.2838  -44.3970 H         1 UNK         0.0600 
    171 H171       -1.1673  -14.0487  -42.3141 H         1 UNK         0.0600 
    172 H172       -2.5255  -14.3064  -43.4114 H         1 UNK         0.0600 
    173 H173       -2.1765  -15.4822  -42.1552 H         1 UNK         0.0600 
    174 H174       -0.4851  -13.6551  -44.6982 H         1 UNK         0.3000 
    175 H175        1.8540  -13.3465  -46.2400 H         1 UNK         0.0600 
    176 H176        2.4129  -14.9735  -47.9871 H         1 UNK         0.0600 
    177 H177        0.8087  -14.8609  -48.6896 H         1 UNK         0.0600 
    178 H178        1.8977  -13.4758  -48.7455 H         1 UNK         0.0600 
    179 H179        0.2443  -11.8607  -46.5330 H         1 UNK         0.3000 
    180 H180       -1.9534  -11.1049  -46.6047 H         1 UNK         0.0600 
    181 H181       -0.7755  -10.3522  -48.6799 H         1 UNK         0.0600 
    182 H182       -2.4683   -9.8861  -48.7554 H         1 UNK         0.0600 
    183 H183       -1.8933  -11.2714  -49.6818 H         1 UNK         0.0600 
    184 H184       -3.5726  -12.8783  -48.3387 H         1 UNK         0.3000 
    185 H185       -6.0254  -13.1809  -45.8916 H         1 UNK         0.0600 
    186 H186       -7.0670  -11.3908  -47.2864 H         1 UNK         0.0600 
    187 H187       -6.3996  -12.1123  -48.7454 H         1 UNK         0.0600 
    188 H188       -7.6112  -12.9796  -47.8012 H         1 UNK         0.0600 
    189 H189       -5.5688  -14.4227  -48.4416 H         1 UNK         0.3000 
    190 H190        0.8722  -24.2154  -42.6575 H         1 UNK         0.3000 
    191 H191       -0.6545  -24.9352  -41.2355 H         1 UNK         0.0600 
    192 H192       -0.9177  -27.3127  -40.6708 H         1 UNK         0.0600 
    193 H193        0.7897  -26.9534  -40.8744 H         1 UNK         0.0600 
    194 H194       -0.0910  -27.8121  -42.1376 H         1 UNK         0.0600 
    195 H195       -1.4349  -23.8329  -43.4781 H         1 UNK         0.3000 
    196 H196       -3.0930  -23.2625  -44.7619 H         1 UNK         0.0600 
    197 H197       -4.8436  -25.3076  -43.3073 H         1 UNK         0.0600 
    198 H198       -4.5207  -23.6629  -42.7576 H         1 UNK         0.0600 
    199 H199       -5.4029  -23.9360  -44.2506 H         1 UNK         0.0600 
    200 H200       -1.8176  -26.3326  -45.1487 H         1 UNK         0.3000 
    201 H201       -3.4658  -27.4735  -47.1497 H         1 UNK         0.0600 
    202 H202       -1.5024  -28.9321  -47.5627 H         1 UNK         0.0600 
    203 H203       -1.7858  -28.7510  -45.8372 H         1 UNK         0.0600 
    204 H204       -0.4752  -27.8658  -46.6154 H         1 UNK         0.0600 
    205 H205       -3.9757  -26.4732  -48.9868 H         1 UNK         0.3000 
    206 H206       -3.9491  -25.4617  -50.9396 H         1 UNK         0.0600 
    207 H207       -2.1906  -27.1453  -51.5555 H         1 UNK         0.0600 
    208 H208       -2.0303  -25.6432  -52.4493 H         1 UNK         0.0600 
    209 H209       -0.9381  -25.9837  -51.1168 H         1 UNK         0.0600 
    210 H210       -3.6484  -23.8755  -48.5250 H         1 UNK         0.3000 
    211 H211       -2.1390  -21.4886  -49.1223 H         1 UNK         0.0600 
    212 H212       -4.4598  -22.0775  -47.2109 H         1 UNK         0.0600 
    213 H213       -3.6173  -20.5399  -47.2757 H         1 UNK         0.0600 
    214 H214       -2.7424  -21.9910  -46.8138 H         1 UNK         0.0600 
    215 H215       -2.5473  -20.2343  -50.8486 H         1 UNK         0.3000 
    216 H216       -5.2588  -19.4566  -51.6482 H         1 UNK         0.0600 
    217 H217       -5.0225  -21.7393  -52.6512 H         1 UNK         0.0600 
    218 H218       -3.5079  -21.2621  -53.4109 H         1 UNK         0.0600 
    219 H219       -5.0240  -20.5275  -53.9110 H         1 UNK         0.0600 
    220 H220       -2.9310  -17.9374  -50.7183 H         1 UNK         0.3000 
    221 H221       -1.4991  -16.8184  -52.9069 H         1 UNK         0.0600 
    222 H222       -0.6462  -16.6411  -50.6181 H         1 UNK         0.0600 
    223 H223       -0.8330  -15.0437  -51.3024 H         1 UNK         0.0600 
    224 H224       -2.0081  -15.6346  -50.1431 H         1 UNK         0.0600 
    225 H225       -4.6261  -15.9139  -51.4850 H         1 UNK         0.3000 
    226 H226       -4.8369  -13.4083  -52.9498 H         1 UNK         0.0600 
    227 H227       -5.9958  -13.7982  -50.7715 H         1 UNK         0.0600 
    228 H228       -7.1424  -13.4120  -52.0451 H         1 UNK         0.0600 
    229 H229       -6.9648  -15.0763  -51.5059 H         1 UNK         0.0600 
    230 H230       -5.3551  -16.7495  -53.7369 H         1 UNK         0.3000 
    231 H231       -7.2347  -16.1873  -55.9527 H         1 UNK         0.0600 
    232 H232       -7.3547  -18.6532  -56.1226 H         1 UNK         0.0600 
    233 H233       -7.7157  -18.1195  -54.4873 H         1 UNK         0.0600 
    234 H234       -6.1450  -18.8233  -54.8600 H         1 UNK         0.0600 
    235 H235       -3.9590  -17.6722  -55.4493 H         1 UNK         0.3000 
    236 H236       -3.1070  -16.8089  -58.1230 H         1 UNK         0.0600 
    237 H237       -2.7047  -19.1661  -58.9223 H         1 UNK         0.0600 
    238 H238       -3.5501  -19.7810  -57.5065 H         1 UNK         0.0600 
    239 H239       -4.4124  -18.8297  -58.7142 H         1 UNK         0.0600 
    240 H240       -2.2798  -18.2766  -54.9941 H         1 UNK         0.3000 
    241 H241        0.3975  -18.9106  -55.7930 H         1 UNK         0.0600 
    242 H242       -0.8005  -15.7590  -55.0227 H         1 UNK         0.3800 
    243 H243        0.7609  -15.0756  -54.6635 H         1 UNK         0.3800 
    244 H244       -0.2589  -18.7316  -52.8453 H         1 UNK         0.0800 
    245 H245       -1.1416  -19.8786  -53.8010 H         1 UNK         0.0800 
    246 H246        2.3588  -18.8627  -52.4457 H         1 UNK         0.0800 
    247 H247        3.1183  -20.4280  -52.3573 H         1 UNK         0.0800 
@<TRIPOS>BOND
     1    1    2 1    
     2    1  127 1    
     3    1  128 1    
     4    1  129 1    
     5    2    3 2    
     6    2    4 am   BACKBONE|DICT|INTERRES
     7    4    5 1    
     8    4  130 1    
     9    5    6 1    
    10    5   65 1    
    11    5  131 1    
    12    6    7 1    
    13    6  132 1    
    14    6  133 1    
    15    7    8 1    
    16    8    9 1    
    17    8  134 1    
    18    8  135 1    
    19    9   10 ar   
    20    9   14 ar   
    21   10   11 ar   
    22   10  136 1    
    23   11   12 ar   
    24   11  126 1    
    25   12   13 ar   
    26   12  137 1    
    27   13   14 ar   
    28   13   15 1    
    29   14  138 1    
    30   15   16 1    
    31   15  139 1    
    32   15  140 1    
    33   16   17 1    
    34   17   18 1    
    35   17  141 1    
    36   17  142 1    
    37   18   19 1    
    38   18   67 1    
    39   18  143 1    
    40   19   20 am   BACKBONE|DICT|INTERRES
    41   19  144 1    
    42   20   21 2    
    43   20   22 1    
    44   22   23 1    
    45   22   24 1    
    46   22  145 1    
    47   23  146 1    
    48   23  147 1    
    49   23  148 1    
    50   24   25 am   BACKBONE|DICT|INTERRES
    51   24  149 1    
    52   25   26 2    
    53   25   27 1    
    54   27   28 1    
    55   27   29 1    
    56   27  150 1    
    57   28  151 1    
    58   28  152 1    
    59   28  153 1    
    60   29   30 am   BACKBONE|DICT|INTERRES
    61   29  154 1    
    62   30   31 2    
    63   30   32 1    
    64   32   33 1    
    65   32   34 1    
    66   32  155 1    
    67   33  156 1    
    68   33  157 1    
    69   33  158 1    
    70   34   35 am   BACKBONE|DICT|INTERRES
    71   34  159 1    
    72   35   36 2    
    73   35   37 1    
    74   37   38 1    
    75   37   39 1    
    76   37  160 1    
    77   38  161 1    
    78   38  162 1    
    79   38  163 1    
    80   39   40 am   BACKBONE|DICT|INTERRES
    81   39  164 1    
    82   40   41 2    
    83   40   42 1    
    84   42   43 1    
    85   42   44 1    
    86   42  165 1    
    87   43  166 1    
    88   43  167 1    
    89   43  168 1    
    90   44   45 am   BACKBONE|DICT|INTERRES
    91   44  169 1    
    92   45   46 2    
    93   45   47 1    
    94   47   48 1    
    95   47   49 1    
    96   47  170 1    
    97   48  171 1    
    98   48  172 1    
    99   48  173 1    
   100   49   50 am   BACKBONE|DICT|INTERRES
   101   49  174 1    
   102   50   51 2    
   103   50   52 1    
   104   52   53 1    
   105   52   54 1    
   106   52  175 1    
   107   53  176 1    
   108   53  177 1    
   109   53  178 1    
   110   54   55 am   BACKBONE|DICT|INTERRES
   111   54  179 1    
   112   55   56 2    
   113   55   57 1    
   114   57   58 1    
   115   57   59 1    
   116   57  180 1    
   117   58  181 1    
   118   58  182 1    
   119   58  183 1    
   120   59   60 am   BACKBONE|DICT|INTERRES
   121   59  184 1    
   122   60   61 2    
   123   60   62 1    
   124   62   63 1    
   125   62   64 1    
   126   62  185 1    
   127   63  186 1    
   128   63  187 1    
   129   63  188 1    
   130   64   65 am   BACKBONE|DICT|INTERRES
   131   64  189 1    
   132   65   66 2    
   133   67   68 2    
   134   67   69 am   BACKBONE|DICT|INTERRES
   135   69   70 1    
   136   69  190 1    
   137   70   71 1    
   138   70   72 1    
   139   70  191 1    
   140   71  192 1    
   141   71  193 1    
   142   71  194 1    
   143   72   73 2    
   144   72   74 am   BACKBONE|DICT|INTERRES
   145   74   75 1    
   146   74  195 1    
   147   75   76 1    
   148   75   77 1    
   149   75  196 1    
   150   76  197 1    
   151   76  198 1    
   152   76  199 1    
   153   77   78 2    
   154   77   79 am   BACKBONE|DICT|INTERRES
   155   79   80 1    
   156   79  200 1    
   157   80   81 1    
   158   80   82 1    
   159   80  201 1    
   160   81  202 1    
   161   81  203 1    
   162   81  204 1    
   163   82   83 2    
   164   82   84 am   BACKBONE|DICT|INTERRES
   165   84   85 1    
   166   84  205 1    
   167   85   86 1    
   168   85   87 1    
   169   85  206 1    
   170   86  207 1    
   171   86  208 1    
   172   86  209 1    
   173   87   88 2    
   174   87   89 am   BACKBONE|DICT|INTERRES
   175   89   90 1    
   176   89  210 1    
   177   90   91 1    
   178   90   92 1    
   179   90  211 1    
   180   91  212 1    
   181   91  213 1    
   182   91  214 1    
   183   92   93 2    
   184   92   94 am   BACKBONE|DICT|INTERRES
   185   94   95 1    
   186   94  215 1    
   187   95   96 1    
   188   95   97 1    
   189   95  216 1    
   190   96  217 1    
   191   96  218 1    
   192   96  219 1    
   193   97   98 2    
   194   97   99 am   BACKBONE|DICT|INTERRES
   195   99  100 1    
   196   99  220 1    
   197  100  101 1    
   198  100  102 1    
   199  100  221 1    
   200  101  222 1    
   201  101  223 1    
   202  101  224 1    
   203  102  103 2    
   204  102  104 am   BACKBONE|DICT|INTERRES
   205  104  105 1    
   206  104  225 1    
   207  105  106 1    
   208  105  107 1    
   209  105  226 1    
   210  106  227 1    
   211  106  228 1    
   212  106  229 1    
   213  107  108 2    
   214  107  109 am   BACKBONE|DICT|INTERRES
   215  109  110 1    
   216  109  230 1    
   217  110  111 1    
   218  110  112 1    
   219  110  231 1    
   220  111  232 1    
   221  111  233 1    
   222  111  234 1    
   223  112  113 2    
   224  112  114 am   BACKBONE|DICT|INTERRES
   225  114  115 1    
   226  114  235 1    
   227  115  116 1    
   228  115  117 1    
   229  115  236 1    
   230  116  237 1    
   231  116  238 1    
   232  116  239 1    
   233  117  118 2    
   234  117  119 am   BACKBONE|DICT|INTERRES
   235  119  120 1    
   236  119  240 1    
   237  120  121 1    
   238  120  124 1    
   239  120  241 1    
   240  121  122 am   BACKBONE|DICT|INTERRES
   241  121  123 2    
   242  122  242 1    
   243  122  243 1    
   244  124  125 1    
   245  124  244 1    
   246  124  245 1    
   247  125  126 1    
   248  126  246 1    
   249  126  247 1    
@<TRIPOS>SUBSTRUCTURE
     1 UNK         1 GROUP             0       ****    0 ROOT    
