@<TRIPOS>MOLECULE
3R540
247   249    1
SMALL
USER_CHARGES


@<TRIPOS>ATOM
      1 CA          4.1903  -10.7540  -48.2451 C.3       0 UNK        -0.1800 
      2 C           3.1237  -11.3303  -47.3267 C.2       0 UNK         0.5000 
      3 O           3.1711  -11.1015  -46.1184 O.2       0 UNK        -0.5000 
      4 N           2.1525  -12.0576  -47.8956 N.am      1 UNK        -0.5000 
      5 CA          1.0636  -12.7659  -47.2023 C.3       1 UNK         0.1400 
      6 C6          0.1756  -13.5478  -48.2019 C.3       23 UNK        -0.0398 
      7 S7          1.0721  -14.9093  -49.0176 S.3       23 UNK        -0.2404 
      8 C8         -0.3238  -15.8044  -49.7669 C.3       23 UNK        -0.0205 
      9 C9          0.1547  -16.9154  -50.6878 C.ar      23 UNK        -0.0193 
     10 C10         0.6245  -16.6015  -51.9660 C.ar      23 UNK        -0.1150 
     11 C11         1.0474  -17.6090  -52.8364 C.ar      23 UNK        -0.0193 
     12 C12         1.0133  -18.9394  -52.4119 C.ar      23 UNK        -0.1150 
     13 C13         0.5297  -19.2704  -51.1437 C.ar      23 UNK        -0.0193 
     14 C14         0.1006  -18.2535  -50.2834 C.ar      23 UNK        -0.1150 
     15 C15         0.4235  -20.7331  -50.7409 C.3       23 UNK        -0.0205 
     16 S16         1.8723  -21.3087  -49.8036 S.3       23 UNK        -0.2404 
     17 C17         1.3451  -20.9819  -48.0884 C.3       23 UNK        -0.0398 
     18 CA          0.7632  -22.2288  -47.3777 C.3       11 UNK         0.1400 
     19 N           0.7212  -22.0458  -45.9264 N.am      11 UNK        -0.5000 
     20 C           0.4214  -22.9998  -45.0350 C.2       10 UNK         0.5000 
     21 O           0.1908  -24.1700  -45.3371 O.2       10 UNK        -0.5000 
     22 CA          0.3096  -22.5598  -43.5638 C.3       10 UNK         0.1400 
     23 CB          1.6982  -22.4396  -42.9190 C.3       10 UNK        -0.1800 
     24 N          -0.4205  -21.2999  -43.4084 N.am      10 UNK        -0.5000 
     25 C          -1.7086  -21.1297  -43.7414 C.2       9 UNK         0.5000 
     26 O          -2.4267  -22.0301  -44.1743 O.2       9 UNK        -0.5000 
     27 CA         -2.2817  -19.7079  -43.6166 C.3       9 UNK         0.1400 
     28 CB         -2.6361  -19.3874  -42.1570 C.3       9 UNK        -0.1800 
     29 N          -1.3772  -18.6861  -44.1418 N.am      9 UNK        -0.5000 
     30 C          -0.9789  -18.6002  -45.4196 C.2       8 UNK         0.5000 
     31 O          -1.3547  -19.3595  -46.3117 O.2       8 UNK        -0.5000 
     32 CA          0.0584  -17.5130  -45.7444 C.3       8 UNK         0.1400 
     33 CB         -0.6051  -16.1310  -45.7817 C.3       8 UNK        -0.1800 
     34 N           1.1638  -17.4981  -44.7876 N.am      8 UNK        -0.5000 
     35 C           1.9921  -18.5263  -44.5558 C.2       7 UNK         0.5000 
     36 O           1.9513  -19.5923  -45.1673 O.2       7 UNK        -0.5000 
     37 CA          2.9995  -18.3546  -43.4086 C.3       7 UNK         0.1400 
     38 CB          4.2377  -17.5796  -43.8808 C.3       7 UNK        -0.1800 
     39 N           2.3956  -17.6821  -42.2584 N.am      7 UNK        -0.5000 
     40 C           1.4607  -18.2334  -41.4708 C.2       6 UNK         0.5000 
     41 O           1.0399  -19.3824  -41.6090 O.2       6 UNK        -0.5000 
     42 CA          0.8679  -17.3321  -40.3725 C.3       6 UNK         0.1400 
     43 CB          1.7900  -17.2913  -39.1449 C.3       6 UNK        -0.1800 
     44 N           0.6218  -15.9678  -40.8435 N.am      6 UNK        -0.5000 
     45 C          -0.3017  -15.6433  -41.7593 C.2       5 UNK         0.5000 
     46 O          -1.0688  -16.4587  -42.2698 O.2       5 UNK        -0.5000 
     47 CA         -0.3502  -14.1714  -42.2104 C.3       5 UNK         0.1400 
     48 CB         -1.2828  -13.3553  -41.3042 C.3       5 UNK        -0.1800 
     49 N           0.9627  -13.5243  -42.2576 N.am      5 UNK        -0.5000 
     50 C           1.9817  -13.9009  -43.0402 C.2       4 UNK         0.5000 
     51 O           1.9471  -14.8949  -43.7675 O.2       4 UNK        -0.5000 
     52 CA          3.2357  -13.0066  -42.9996 C.3       4 UNK         0.1400 
     53 CB          4.3566  -13.5094  -43.9262 C.3       4 UNK        -0.1800 
     54 N           2.9101  -11.6316  -43.3704 N.am      4 UNK        -0.5000 
     55 C           2.4270  -10.6919  -42.5482 C.2       3 UNK         0.5000 
     56 O           2.1678  -10.8947  -41.3612 O.2       3 UNK        -0.5000 
     57 CA          2.1576   -9.3126  -43.1669 C.3       3 UNK         0.1400 
     58 CB          3.4754   -8.5861  -43.4815 C.3       3 UNK        -0.1800 
     59 N           1.3783   -9.4534  -44.3946 N.am      3 UNK        -0.5000 
     60 C           0.0544   -9.2683  -44.4843 C.2       2 UNK         0.5000 
     61 O          -0.6509   -8.8931  -43.5468 O.2       2 UNK        -0.5000 
     62 CA         -0.6005   -9.5494  -45.8521 C.3       2 UNK         0.1400 
     63 CB         -0.6970   -8.2570  -46.6771 C.3       2 UNK        -0.1800 
     64 N           0.1096  -10.5617  -46.6356 N.am      2 UNK        -0.5000 
     65 C           0.1770  -11.8620  -46.3164 C.2       1 UNK         0.5000 
     66 O          -0.4194  -12.3570  -45.3603 O.2       1 UNK        -0.5000 
     67 C          -0.6188  -22.6290  -47.9381 C.2       11 UNK         0.5000 
     68 O          -0.7083  -23.5883  -48.7036 O.2       11 UNK        -0.5000 
     69 N          -1.6764  -21.9159  -47.5248 N.am      12 UNK        -0.5000 
     70 CA         -3.0623  -22.1941  -47.9045 C.3       12 UNK         0.1400 
     71 CB         -3.9750  -21.0761  -47.3818 C.3       12 UNK        -0.1800 
     72 C          -3.5521  -23.5728  -47.4254 C.2       12 UNK         0.5000 
     73 O          -4.2317  -24.2658  -48.1820 O.2       12 UNK        -0.5000 
     74 N          -3.1657  -23.9625  -46.2025 N.am      13 UNK        -0.5000 
     75 CA         -3.4305  -25.2816  -45.6283 C.3       13 UNK         0.1400 
     76 CB         -3.0758  -25.2780  -44.1339 C.3       13 UNK        -0.1800 
     77 C          -2.6871  -26.4106  -46.3653 C.2       13 UNK         0.5000 
     78 O          -3.2762  -27.4668  -46.5939 O.2       13 UNK        -0.5000 
     79 N          -1.4272  -26.1625  -46.7525 N.am      14 UNK        -0.5000 
     80 CA         -0.6060  -27.0788  -47.5478 C.3       14 UNK         0.1400 
     81 CB          0.8513  -26.5925  -47.5598 C.3       14 UNK        -0.1800 
     82 C          -1.1378  -27.2591  -48.9823 C.2       14 UNK         0.5000 
     83 O          -1.1355  -28.3794  -49.4939 O.2       14 UNK        -0.5000 
     84 N          -1.6153  -26.1635  -49.5904 N.am      15 UNK        -0.5000 
     85 CA         -2.2956  -26.1546  -50.8882 C.3       15 UNK         0.1400 
     86 CB         -2.4091  -24.7053  -51.3861 C.3       15 UNK        -0.1800 
     87 C          -3.6877  -26.8168  -50.8454 C.2       15 UNK         0.5000 
     88 O          -4.1742  -27.2701  -51.8817 O.2       15 UNK        -0.5000 
     89 N          -4.3049  -26.8407  -49.6556 N.am      16 UNK        -0.5000 
     90 CA         -5.5944  -27.4238  -49.2657 C.3       16 UNK         0.1400 
     91 CB         -5.6375  -28.9367  -49.5495 C.3       16 UNK        -0.1800 
     92 C          -6.8252  -26.7071  -49.8507 C.2       16 UNK         0.5000 
     93 O          -7.8088  -26.5162  -49.1347 O.2       16 UNK        -0.5000 
     94 N          -6.7533  -26.3108  -51.1262 N.am      17 UNK        -0.5000 
     95 CA         -7.7904  -25.5636  -51.8374 C.3       17 UNK         0.1400 
     96 CB         -7.5113  -25.6471  -53.3460 C.3       17 UNK        -0.1800 
     97 C          -7.8918  -24.0915  -51.3925 C.2       17 UNK         0.5000 
     98 O          -8.9595  -23.4949  -51.5406 O.2       17 UNK        -0.5000 
     99 N          -6.7848  -23.5415  -50.8669 N.am      18 UNK        -0.5000 
    100 CA        -6.5938  -22.1424  -50.4702 C.3       18 UNK         0.1400 
    101 CB        -7.4410  -21.8156  -49.2200 C.3       18 UNK        -0.1800 
    102 C         -6.8080  -21.1679  -51.6532 C.2       18 UNK         0.5000 
    103 O         -6.4908  -21.5275  -52.7896 O.2       18 UNK        -0.5000 
    104 N         -7.3195  -19.9592  -51.3692 N.am      19 UNK        -0.5000 
    105 CA        -7.6120  -18.8749  -52.3150 C.3       19 UNK         0.1400 
    106 CB        -8.8315  -19.2442  -53.1903 C.3       19 UNK        -0.1800 
    107 C         -6.3567  -18.4630  -53.1142 C.2       19 UNK         0.5000 
    108 O         -5.3610  -18.0680  -52.5031 O.2       19 UNK        -0.5000 
    109 N         -6.3991  -18.5898  -54.4474 N.am      20 UNK        -0.5000 
    110 CA        -5.2602  -18.4338  -55.3532 C.3       20 UNK         0.1400 
    111 CB        -5.7883  -18.1640  -56.7734 C.3       20 UNK        -0.1800 
    112 C         -4.3429  -19.6733  -55.2828 C.2       20 UNK         0.5000 
    113 O         -4.2769  -20.4609  -56.2277 O.2       20 UNK        -0.5000 
    114 N         -3.6834  -19.8370  -54.1310 N.am      21 UNK        -0.5000 
    115 CA        -2.8699  -20.9960  -53.7622 C.3       21 UNK         0.1400 
    116 CB        -2.7241  -21.0039  -52.2318 C.3       21 UNK        -0.1800 
    117 C         -1.4908  -21.0567  -54.4533 C.2       21 UNK         0.5000 
    118 O         -0.7894  -22.0571  -54.2972 O.2       21 UNK        -0.5000 
    119 N         -1.1135  -19.9957  -55.1782 N.am      22 UNK        -0.5000 
    120 CA         0.1387  -19.8786  -55.9405 C.3       22 UNK         0.1400 
    121 C          0.2796  -20.9460  -57.0629 C.2       22 UNK         0.5000 
    122 N          1.4716  -21.4911  -57.2660 N.am      22 UNK        -0.7600 
    123 O         -0.6693  -21.2470  -57.7834 O.2       22 UNK        -0.5000 
    124 C124        0.3278  -18.4585  -56.5364 C.3       23 UNK        -0.0398 
    125 S125        0.0817  -17.0841  -55.3582 S.3       23 UNK        -0.2404 
    126 C126        1.5100  -17.2535  -54.2406 C.3       23 UNK        -0.0205 
    127 H127        5.1731  -11.1242  -47.9537 H         1 UNK         0.0600 
    128 H128        4.0188  -11.0252  -49.2870 H         1 UNK         0.0600 
    129 H129        4.1991   -9.6665  -48.1723 H         1 UNK         0.0600 
    130 H130        2.1835  -12.2061  -48.8944 H         1 UNK         0.3000 
    131 H131        1.5367  -13.4816  -46.5264 H         1 UNK         0.0600 
    132 H132       -0.2165  -12.8782  -48.9696 H         1 UNK         0.0800 
    133 H133       -0.6968  -13.9707  -47.7014 H         1 UNK         0.0800 
    134 H134       -0.9404  -15.1064  -50.3354 H         1 UNK         0.0800 
    135 H135       -0.9613  -16.2100  -48.9806 H         1 UNK         0.0800 
    136 H136        0.6482  -15.5699  -52.2885 H         1 UNK         0.1150 
    137 H137        1.3408  -19.7262  -53.0743 H         1 UNK         0.1150 
    138 H138       -0.2894  -18.5008  -49.3067 H         1 UNK         0.1150 
    139 H139       -0.4917  -20.8928  -50.1714 H         1 UNK         0.0800 
    140 H140        0.3288  -21.3549  -51.6327 H         1 UNK         0.0800 
    141 H141        0.6515  -20.1427  -48.0478 H         1 UNK         0.0800 
    142 H142        2.2386  -20.6483  -47.5598 H         1 UNK         0.0800 
    143 H143        1.4407  -23.0652  -47.5626 H         1 UNK         0.0600 
    144 H144        0.9473  -21.1147  -45.5845 H         1 UNK         0.3000 
    145 H145       -0.2455  -23.3330  -43.0287 H         1 UNK         0.0600 
    146 H146        1.6202  -22.1996  -41.8585 H         1 UNK         0.0600 
    147 H147        2.2489  -23.3774  -43.0012 H         1 UNK         0.0600 
    148 H148        2.2985  -21.6633  -43.3934 H         1 UNK         0.0600 
    149 H149        0.0953  -20.5174  -43.0191 H         1 UNK         0.3000 
    150 H150       -3.2010  -19.6690  -44.2043 H         1 UNK         0.0600 
    151 H151       -3.3165  -20.1345  -41.7464 H         1 UNK         0.0600 
    152 H152       -3.1296  -18.4187  -42.0761 H         1 UNK         0.0600 
    153 H153       -1.7500  -19.3640  -41.5222 H         1 UNK         0.0600 
    154 H154       -1.0519  -17.9875  -43.4796 H         1 UNK         0.3000 
    155 H155        0.4768  -17.7215  -46.7313 H         1 UNK         0.0600 
    156 H156       -1.1219  -15.8996  -44.8517 H         1 UNK         0.0600 
    157 H157       -1.3420  -16.0747  -46.5827 H         1 UNK         0.0600 
    158 H158        0.1341  -15.3500  -45.9487 H         1 UNK         0.0600 
    159 H159        1.3117  -16.6334  -44.2743 H         1 UNK         0.3000 
    160 H160        3.3227  -19.3478  -43.0900 H         1 UNK         0.0600 
    161 H161        4.9461  -17.4257  -43.0667 H         1 UNK         0.0600 
    162 H162        3.9716  -16.6048  -44.2883 H         1 UNK         0.0600 
    163 H163        4.7586  -18.1273  -44.6671 H         1 UNK         0.0600 
    164 H164        2.6428  -16.7142  -42.1166 H         1 UNK         0.3000 
    165 H165       -0.0873  -17.7646  -40.0669 H         1 UNK         0.0600 
    166 H166        1.3410  -16.7174  -38.3340 H         1 UNK         0.0600 
    167 H167        1.9775  -18.2966  -38.7651 H         1 UNK         0.0600 
    168 H168        2.7564  -16.8431  -39.3788 H         1 UNK         0.0600 
    169 H169        1.2108  -15.2373  -40.4719 H         1 UNK         0.3000 
    170 H170       -0.7599  -14.1521  -43.2219 H         1 UNK         0.0600 
    171 H171       -2.2781  -13.8001  -41.2660 H         1 UNK         0.0600 
    172 H172       -0.9062  -13.3013  -40.2821 H         1 UNK         0.0600 
    173 H173       -1.3973  -12.3362  -41.6749 H         1 UNK         0.0600 
    174 H174        1.0808  -12.6822  -41.7063 H         1 UNK         0.3000 
    175 H175        3.6182  -13.0220  -41.9770 H         1 UNK         0.0600 
    176 H176        4.0203  -13.5919  -44.9607 H         1 UNK         0.0600 
    177 H177        5.2147  -12.8373  -43.9077 H         1 UNK         0.0600 
    178 H178        4.7109  -14.4905  -43.6113 H         1 UNK         0.0600 
    179 H179        3.0509  -11.3972  -44.3514 H         1 UNK         0.3000 
    180 H180        1.6126   -8.7143  -42.4337 H         1 UNK         0.0600 
    181 H181        4.0700   -9.1222  -44.2224 H         1 UNK         0.0600 
    182 H182        4.0860   -8.4793  -42.5840 H         1 UNK         0.0600 
    183 H183        3.2872   -7.5843  -43.8677 H         1 UNK         0.0600 
    184 H184        1.8735   -9.8205  -45.1994 H         1 UNK         0.3000 
    185 H185       -1.6134   -9.9123  -45.6649 H         1 UNK         0.0600 
    186 H186       -1.2444   -7.4863  -46.1328 H         1 UNK         0.0600 
    187 H187        0.2893   -7.8548  -46.9123 H         1 UNK         0.0600 
    188 H188       -1.2244   -8.4263  -47.6161 H         1 UNK         0.0600 
    189 H189        0.6284  -10.2369  -47.4384 H         1 UNK         0.3000 
    190 H190       -1.5262  -21.1098  -46.9219 H         1 UNK         0.3000 
    191 H191       -3.1126  -22.1885  -48.9951 H         1 UNK         0.0600 
    192 H192       -3.9182  -20.9857  -46.2968 H         1 UNK         0.0600 
    193 H193       -5.0163  -21.2665  -47.6398 H         1 UNK         0.0600 
    194 H194       -3.7024  -20.1123  -47.8120 H         1 UNK         0.0600 
    195 H195       -2.6623  -23.3038  -45.6146 H         1 UNK         0.3000 
    196 H196       -4.5012  -25.4759  -45.7201 H         1 UNK         0.0600 
    197 H197       -3.2821  -26.2483  -43.6807 H         1 UNK         0.0600 
    198 H198       -3.6614  -24.5349  -43.5925 H         1 UNK         0.0600 
    199 H199       -2.0212  -25.0557  -43.9699 H         1 UNK         0.0600 
    200 H200       -0.9908  -25.2897  -46.4711 H         1 UNK         0.3000 
    201 H201       -0.6301  -28.0561  -47.0613 H         1 UNK         0.0600 
    202 H202        1.2550  -26.5347  -46.5488 H         1 UNK         0.0600 
    203 H203        0.9453  -25.6060  -48.0135 H         1 UNK         0.0600 
    204 H204        1.4861  -27.2757  -48.1252 H         1 UNK         0.0600 
    205 H205       -1.4937  -25.2631  -49.1331 H         1 UNK         0.3000 
    206 H206       -1.6845  -26.7149  -51.5986 H         1 UNK         0.0600 
    207 H207       -1.4254  -24.2444  -51.4799 H         1 UNK         0.0600 
    208 H208       -2.8826  -24.6617  -52.3678 H         1 UNK         0.0600 
    209 H209       -3.0019  -24.0918  -50.7072 H         1 UNK         0.0600 
    210 H210       -3.8393  -26.3442  -48.9063 H         1 UNK         0.3000 
    211 H211       -5.6498  -27.2949  -48.1836 H         1 UNK         0.0600 
    212 H212       -5.6074  -29.1541  -50.6174 H         1 UNK         0.0600 
    213 H213       -6.5520  -29.3796  -49.1534 H         1 UNK         0.0600 
    214 H214       -4.7977  -29.4477  -49.0782 H         1 UNK         0.0600 
    215 H215       -5.9108  -26.5496  -51.6420 H         1 UNK         0.3000 
    216 H216       -8.7542  -26.0375  -51.6398 H         1 UNK         0.0600 
    217 H217       -8.2797  -25.1226  -53.9154 H         1 UNK         0.0600 
    218 H218       -7.5019  -26.6818  -53.6892 H         1 UNK         0.0600 
    219 H219       -6.5500  -25.1991  -53.6016 H         1 UNK         0.0600 
    220 H220       -5.9684  -24.1302  -50.7941 H         1 UNK         0.3000 
    221 H221       -5.5438  -22.0508  -50.1899 H         1 UNK         0.0600 
    222 H222       -8.5087  -21.8066  -49.4423 H         1 UNK         0.0600 
    223 H223       -7.2733  -22.5531  -48.4345 H         1 UNK         0.0600 
    224 H224       -7.1802  -20.8433  -48.8016 H         1 UNK         0.0600 
    225 H225       -7.5184  -19.7494  -50.4016 H         1 UNK         0.3000 
    226 H226       -7.8876  -18.0054  -51.7166 H         1 UNK         0.0600 
    227 H227       -9.6994  -19.4664  -52.5693 H         1 UNK         0.0600 
    228 H228       -9.1130  -18.4190  -53.8457 H         1 UNK         0.0600 
    229 H229       -8.6439  -20.1198  -53.8129 H         1 UNK         0.0600 
    230 H230       -7.2418  -18.9646  -54.8579 H         1 UNK         0.3000 
    231 H231       -4.6733  -17.5658  -55.0450 H         1 UNK         0.0600 
    232 H232       -6.3870  -17.2535  -56.8041 H         1 UNK         0.0600 
    233 H233       -6.4077  -18.9845  -57.1380 H         1 UNK         0.0600 
    234 H234       -4.9653  -18.0345  -57.4773 H         1 UNK         0.0600 
    235 H235       -3.8587  -19.1586  -53.3976 H         1 UNK         0.3000 
    236 H236       -3.4118  -21.8983  -54.0534 H         1 UNK         0.0600 
    237 H237       -2.1289  -21.8524  -51.8954 H         1 UNK         0.0600 
    238 H238       -2.2418  -20.0943  -51.8731 H         1 UNK         0.0600 
    239 H239       -3.6955  -21.0798  -51.7443 H         1 UNK         0.0600 
    240 H240       -1.7479  -19.2149  -55.2446 H         1 UNK         0.3000 
    241 H241        0.9492  -20.0522  -55.2336 H         1 UNK         0.0600 
    242 H242        1.5780  -22.1717  -58.0025 H         1 UNK         0.3800 
    243 H243        2.2688  -21.2562  -56.6949 H         1 UNK         0.3800 
    244 H244        1.3232  -18.3599  -56.9732 H         1 UNK         0.0800 
    245 H245       -0.3746  -18.3024  -57.3574 H         1 UNK         0.0800 
    246 H246        2.2111  -18.0006  -54.6148 H         1 UNK         0.0800 
    247 H247        2.0566  -16.3096  -54.2199 H         1 UNK         0.0800 
@<TRIPOS>BOND
     1    1    2 1    
     2    1  127 1    
     3    1  128 1    
     4    1  129 1    
     5    2    3 2    
     6    2    4 am   BACKBONE|DICT|INTERRES
     7    4    5 1    
     8    4  130 1    
     9    5    6 1    
    10    5   65 1    
    11    5  131 1    
    12    6    7 1    
    13    6  132 1    
    14    6  133 1    
    15    7    8 1    
    16    8    9 1    
    17    8  134 1    
    18    8  135 1    
    19    9   10 ar   
    20    9   14 ar   
    21   10   11 ar   
    22   10  136 1    
    23   11   12 ar   
    24   11  126 1    
    25   12   13 ar   
    26   12  137 1    
    27   13   14 ar   
    28   13   15 1    
    29   14  138 1    
    30   15   16 1    
    31   15  139 1    
    32   15  140 1    
    33   16   17 1    
    34   17   18 1    
    35   17  141 1    
    36   17  142 1    
    37   18   19 1    
    38   18   67 1    
    39   18  143 1    
    40   19   20 am   BACKBONE|DICT|INTERRES
    41   19  144 1    
    42   20   21 2    
    43   20   22 1    
    44   22   23 1    
    45   22   24 1    
    46   22  145 1    
    47   23  146 1    
    48   23  147 1    
    49   23  148 1    
    50   24   25 am   BACKBONE|DICT|INTERRES
    51   24  149 1    
    52   25   26 2    
    53   25   27 1    
    54   27   28 1    
    55   27   29 1    
    56   27  150 1    
    57   28  151 1    
    58   28  152 1    
    59   28  153 1    
    60   29   30 am   BACKBONE|DICT|INTERRES
    61   29  154 1    
    62   30   31 2    
    63   30   32 1    
    64   32   33 1    
    65   32   34 1    
    66   32  155 1    
    67   33  156 1    
    68   33  157 1    
    69   33  158 1    
    70   34   35 am   BACKBONE|DICT|INTERRES
    71   34  159 1    
    72   35   36 2    
    73   35   37 1    
    74   37   38 1    
    75   37   39 1    
    76   37  160 1    
    77   38  161 1    
    78   38  162 1    
    79   38  163 1    
    80   39   40 am   BACKBONE|DICT|INTERRES
    81   39  164 1    
    82   40   41 2    
    83   40   42 1    
    84   42   43 1    
    85   42   44 1    
    86   42  165 1    
    87   43  166 1    
    88   43  167 1    
    89   43  168 1    
    90   44   45 am   BACKBONE|DICT|INTERRES
    91   44  169 1    
    92   45   46 2    
    93   45   47 1    
    94   47   48 1    
    95   47   49 1    
    96   47  170 1    
    97   48  171 1    
    98   48  172 1    
    99   48  173 1    
   100   49   50 am   BACKBONE|DICT|INTERRES
   101   49  174 1    
   102   50   51 2    
   103   50   52 1    
   104   52   53 1    
   105   52   54 1    
   106   52  175 1    
   107   53  176 1    
   108   53  177 1    
   109   53  178 1    
   110   54   55 am   BACKBONE|DICT|INTERRES
   111   54  179 1    
   112   55   56 2    
   113   55   57 1    
   114   57   58 1    
   115   57   59 1    
   116   57  180 1    
   117   58  181 1    
   118   58  182 1    
   119   58  183 1    
   120   59   60 am   BACKBONE|DICT|INTERRES
   121   59  184 1    
   122   60   61 2    
   123   60   62 1    
   124   62   63 1    
   125   62   64 1    
   126   62  185 1    
   127   63  186 1    
   128   63  187 1    
   129   63  188 1    
   130   64   65 am   BACKBONE|DICT|INTERRES
   131   64  189 1    
   132   65   66 2    
   133   67   68 2    
   134   67   69 am   BACKBONE|DICT|INTERRES
   135   69   70 1    
   136   69  190 1    
   137   70   71 1    
   138   70   72 1    
   139   70  191 1    
   140   71  192 1    
   141   71  193 1    
   142   71  194 1    
   143   72   73 2    
   144   72   74 am   BACKBONE|DICT|INTERRES
   145   74   75 1    
   146   74  195 1    
   147   75   76 1    
   148   75   77 1    
   149   75  196 1    
   150   76  197 1    
   151   76  198 1    
   152   76  199 1    
   153   77   78 2    
   154   77   79 am   BACKBONE|DICT|INTERRES
   155   79   80 1    
   156   79  200 1    
   157   80   81 1    
   158   80   82 1    
   159   80  201 1    
   160   81  202 1    
   161   81  203 1    
   162   81  204 1    
   163   82   83 2    
   164   82   84 am   BACKBONE|DICT|INTERRES
   165   84   85 1    
   166   84  205 1    
   167   85   86 1    
   168   85   87 1    
   169   85  206 1    
   170   86  207 1    
   171   86  208 1    
   172   86  209 1    
   173   87   88 2    
   174   87   89 am   BACKBONE|DICT|INTERRES
   175   89   90 1    
   176   89  210 1    
   177   90   91 1    
   178   90   92 1    
   179   90  211 1    
   180   91  212 1    
   181   91  213 1    
   182   91  214 1    
   183   92   93 2    
   184   92   94 am   BACKBONE|DICT|INTERRES
   185   94   95 1    
   186   94  215 1    
   187   95   96 1    
   188   95   97 1    
   189   95  216 1    
   190   96  217 1    
   191   96  218 1    
   192   96  219 1    
   193   97   98 2    
   194   97   99 am   BACKBONE|DICT|INTERRES
   195   99  100 1    
   196   99  220 1    
   197  100  101 1    
   198  100  102 1    
   199  100  221 1    
   200  101  222 1    
   201  101  223 1    
   202  101  224 1    
   203  102  103 2    
   204  102  104 am   BACKBONE|DICT|INTERRES
   205  104  105 1    
   206  104  225 1    
   207  105  106 1    
   208  105  107 1    
   209  105  226 1    
   210  106  227 1    
   211  106  228 1    
   212  106  229 1    
   213  107  108 2    
   214  107  109 am   BACKBONE|DICT|INTERRES
   215  109  110 1    
   216  109  230 1    
   217  110  111 1    
   218  110  112 1    
   219  110  231 1    
   220  111  232 1    
   221  111  233 1    
   222  111  234 1    
   223  112  113 2    
   224  112  114 am   BACKBONE|DICT|INTERRES
   225  114  115 1    
   226  114  235 1    
   227  115  116 1    
   228  115  117 1    
   229  115  236 1    
   230  116  237 1    
   231  116  238 1    
   232  116  239 1    
   233  117  118 2    
   234  117  119 am   BACKBONE|DICT|INTERRES
   235  119  120 1    
   236  119  240 1    
   237  120  121 1    
   238  120  124 1    
   239  120  241 1    
   240  121  122 am   BACKBONE|DICT|INTERRES
   241  121  123 2    
   242  122  242 1    
   243  122  243 1    
   244  124  125 1    
   245  124  244 1    
   246  124  245 1    
   247  125  126 1    
   248  126  246 1    
   249  126  247 1    
@<TRIPOS>SUBSTRUCTURE
     1 UNK         1 GROUP             0       ****    0 ROOT    
