@<TRIPOS>MOLECULE
3R540
247   249    1
SMALL
USER_CHARGES


@<TRIPOS>ATOM
      1 CA         -4.1977  -16.1859  -51.5215 C.3       0 UNK        -0.1800 
      2 C          -3.3433  -15.7678  -50.3340 C.2       0 UNK         0.5000 
      3 O          -3.8424  -15.7351  -49.2087 O.2       0 UNK        -0.5000 
      4 N          -2.0712  -15.4298  -50.5886 N.am      1 UNK        -0.5000 
      5 CA         -0.9913  -15.0901  -49.6426 C.3       1 UNK         0.1400 
      6 C6         -0.6211  -16.2498  -48.6854 C.3       23 UNK        -0.0398 
      7 S7          0.0264  -17.7194  -49.5530 S.3       23 UNK        -0.2404 
      8 C8          1.7912  -17.6814  -49.0707 C.3       23 UNK        -0.0205 
      9 C9          2.5442  -18.9811  -49.3577 C.ar      23 UNK        -0.0193 
     10 C10         2.3310  -19.7013  -50.5398 C.ar      23 UNK        -0.1150 
     11 C11         3.0444  -20.8753  -50.7997 C.ar      23 UNK        -0.0193 
     12 C12         3.9872  -21.3255  -49.8737 C.ar      23 UNK        -0.1150 
     13 C13         4.2182  -20.6190  -48.6917 C.ar      23 UNK        -0.0193 
     14 C14         3.4935  -19.4487  -48.4393 C.ar      23 UNK        -0.1150 
     15 C15         5.2769  -21.1110  -47.7122 C.3       23 UNK        -0.0205 
     16 S16         4.5726  -21.8062  -46.1836 S.3       23 UNK        -0.2404 
     17 C17         3.5272  -23.1710  -46.7977 C.3       23 UNK        -0.0398 
     18 CA          3.3863  -24.3536  -45.8010 C.3       11 UNK         0.1400 
     19 N           2.9527  -23.9241  -44.4629 N.am      11 UNK        -0.5000 
     20 C           2.9597  -24.6947  -43.3643 C.2       10 UNK         0.5000 
     21 O           3.4280  -25.8331  -43.3320 O.2       10 UNK        -0.5000 
     22 CA          2.2867  -24.1194  -42.1050 C.3       10 UNK         0.1400 
     23 CB          3.2979  -23.3477  -41.2429 C.3       10 UNK        -0.1800 
     24 N           1.1591  -23.2486  -42.4443 N.am      10 UNK        -0.5000 
     25 C          -0.0652  -23.6841  -42.7748 C.2       9 UNK         0.5000 
     26 O          -0.3894  -24.8715  -42.7726 O.2       9 UNK        -0.5000 
     27 CA         -1.0933  -22.6233  -43.2164 C.3       9 UNK         0.1400 
     28 CB         -1.8137  -22.0274  -41.9980 C.3       9 UNK        -0.1800 
     29 N          -0.4991  -21.5371  -43.9923 N.am      9 UNK        -0.5000 
     30 C           0.0710  -21.6702  -45.1972 C.2       8 UNK         0.5000 
     31 O           0.0875  -22.7212  -45.8399 O.2       8 UNK        -0.5000 
     32 CA          0.7649  -20.4200  -45.7665 C.3       8 UNK         0.1400 
     33 CB         -0.2515  -19.6095  -46.5708 C.3       8 UNK        -0.1800 
     34 N           1.3739  -19.5486  -44.7551 N.am      8 UNK        -0.5000 
     35 C           2.2680  -19.9218  -43.8275 C.2       7 UNK         0.5000 
     36 O           2.6445  -21.0803  -43.6669 O.2       7 UNK        -0.5000 
     37 CA          2.7836  -18.8273  -42.8823 C.3       7 UNK         0.1400 
     38 CB          3.8811  -17.9901  -43.5578 C.3       7 UNK        -0.1800 
     39 N           1.6902  -17.9627  -42.4429 N.am      7 UNK        -0.5000 
     40 C           0.8161  -18.2888  -41.4795 C.2       6 UNK         0.5000 
     41 O           0.8991  -19.3115  -40.7988 O.2       6 UNK        -0.5000 
     42 CA         -0.3648  -17.3243  -41.2530 C.3       6 UNK         0.1400 
     43 CB          0.0113  -16.2404  -40.2318 C.3       6 UNK        -0.1800 
     44 N          -0.8230  -16.6829  -42.4863 N.am      6 UNK        -0.5000 
     45 C          -1.4003  -17.3278  -43.5100 C.2       5 UNK         0.5000 
     46 O          -1.6651  -18.5303  -43.4977 O.2       5 UNK        -0.5000 
     47 CA         -1.6872  -16.4975  -44.7777 C.3       5 UNK         0.1400 
     48 CB         -3.1185  -15.9432  -44.7372 C.3       5 UNK        -0.1800 
     49 N          -0.7365  -15.4023  -45.0132 N.am      5 UNK        -0.5000 
     50 C           0.5899  -15.5600  -45.1592 C.2       4 UNK         0.5000 
     51 O           1.1340  -16.6632  -45.1135 O.2       4 UNK        -0.5000 
     52 CA          1.4650  -14.3089  -45.3804 C.3       4 UNK         0.1400 
     53 CB          2.4225  -14.4841  -46.5722 C.3       4 UNK        -0.1800 
     54 N           0.6877  -13.0822  -45.5623 N.am      4 UNK        -0.5000 
     55 C           0.2618  -12.2953  -44.5637 C.2       3 UNK         0.5000 
     56 O           0.4930  -12.5217  -43.3756 O.2       3 UNK        -0.5000 
     57 CA         -0.5842  -11.0625  -44.9454 C.3       3 UNK         0.1400 
     58 CB          0.2968   -9.8056  -45.0061 C.3       3 UNK        -0.1800 
     59 N          -1.3000  -11.2027  -46.2161 N.am      3 UNK        -0.5000 
     60 C          -2.2588  -12.1053  -46.4622 C.2       2 UNK         0.5000 
     61 O          -2.6539  -12.9145  -45.6235 O.2       2 UNK        -0.5000 
     62 CA         -2.8511  -12.1490  -47.8861 C.3       2 UNK         0.1400 
     63 CB         -2.5517  -10.8915  -48.7324 C.3       2 UNK        -0.1800 
     64 N          -2.4356  -13.3573  -48.6046 N.am      2 UNK        -0.5000 
     65 C          -1.1860  -13.7748  -48.8496 C.2       1 UNK         0.5000 
     66 O          -0.1849  -13.1593  -48.4789 O.2       1 UNK        -0.5000 
     67 C           2.4433  -25.4226  -46.4048 C.2       11 UNK         0.5000 
     68 O           2.8569  -26.1427  -47.3140 O.2       11 UNK        -0.5000 
     69 N           1.1956  -25.4788  -45.9073 N.am      12 UNK        -0.5000 
     70 CA          0.0582  -26.2687  -46.3927 C.3       12 UNK         0.1400 
     71 CB          0.3230  -27.7807  -46.2406 C.3       12 UNK        -0.1800 
     72 C          -0.3550  -25.8573  -47.8218 C.2       12 UNK         0.5000 
     73 O          -0.7158  -26.7052  -48.6400 O.2       12 UNK        -0.5000 
     74 N          -0.2595  -24.5511  -48.0970 N.am      13 UNK        -0.5000 
     75 CA         -0.4063  -23.9657  -49.4273 C.3       13 UNK         0.1400 
     76 CB          0.5507  -22.7708  -49.5207 C.3       13 UNK        -0.1800 
     77 C          -1.8353  -23.5032  -49.7505 C.2       13 UNK         0.5000 
     78 O          -2.1262  -23.2854  -50.9274 O.2       13 UNK        -0.5000 
     79 N          -2.6642  -23.3259  -48.7091 N.am      14 UNK        -0.5000 
     80 CA         -3.9469  -22.6063  -48.6816 C.3       14 UNK         0.1400 
     81 CB         -4.9510  -23.1601  -49.7127 C.3       14 UNK        -0.1800 
     82 C          -3.7561  -21.0826  -48.8348 C.2       14 UNK         0.5000 
     83 O          -2.7450  -20.6307  -49.3728 O.2       14 UNK        -0.5000 
     84 N          -4.7187  -20.3072  -48.3266 N.am      15 UNK        -0.5000 
     85 CA         -4.6707  -18.8480  -48.2686 C.3       15 UNK         0.1400 
     86 CB         -3.5274  -18.3982  -47.3368 C.3       15 UNK        -0.1800 
     87 C          -6.0075  -18.2977  -47.7542 C.2       15 UNK         0.5000 
     88 O          -6.8597  -19.0798  -47.3249 O.2       15 UNK        -0.5000 
     89 N          -6.1198  -16.9603  -47.7585 N.am      16 UNK        -0.5000 
     90 CA         -7.2035  -16.1414  -47.2061 C.3       16 UNK         0.1400 
     91 CB         -7.3078  -16.3228  -45.6778 C.3       16 UNK        -0.1800 
     92 C          -8.5411  -16.3921  -47.9254 C.2       16 UNK         0.5000 
     93 O          -9.3307  -17.2377  -47.5020 O.2       16 UNK        -0.5000 
     94 N          -8.7422  -15.6722  -49.0374 N.am      17 UNK        -0.5000 
     95 CA         -9.8666  -15.7318  -49.9851 C.3       17 UNK         0.1400 
     96 CB        -11.2296  -15.5270  -49.2953 C.3       17 UNK        -0.1800 
     97 C          -9.8605  -16.9901  -50.8746 C.2       17 UNK         0.5000 
     98 O         -10.1607  -16.8843  -52.0647 O.2       17 UNK        -0.5000 
     99 N          -9.4710  -18.1413  -50.3137 N.am      18 UNK        -0.5000 
    100 CA        -9.0871  -19.3366  -51.0594 C.3       18 UNK         0.1400 
    101 CB        -8.9896  -20.5276  -50.0943 C.3       18 UNK        -0.1800 
    102 C         -7.7404  -19.0980  -51.7650 C.2       18 UNK         0.5000 
    103 O         -6.8352  -18.5140  -51.1635 O.2       18 UNK        -0.5000 
    104 N         -7.6353  -19.5423  -53.0225 N.am      19 UNK        -0.5000 
    105 CA        -6.4309  -19.4112  -53.8404 C.3       19 UNK         0.1400 
    106 CB        -6.7602  -19.7877  -55.2932 C.3       19 UNK        -0.1800 
    107 C         -5.2854  -20.2824  -53.2974 C.2       19 UNK         0.5000 
    108 O         -5.5027  -21.4606  -53.0045 O.2       19 UNK        -0.5000 
    109 N         -4.0937  -19.6882  -53.1871 N.am      20 UNK        -0.5000 
    110 CA        -2.8795  -20.3691  -52.7507 C.3       20 UNK         0.1400 
    111 CB        -1.8791  -19.3211  -52.2383 C.3       20 UNK        -0.1800 
    112 C         -2.2581  -21.1707  -53.9034 C.2       20 UNK         0.5000 
    113 O         -2.3262  -20.7380  -55.0573 O.2       20 UNK        -0.5000 
    114 N         -1.5961  -22.2833  -53.5636 N.am      21 UNK        -0.5000 
    115 CA        -0.8698  -23.1639  -54.4880 C.3       21 UNK         0.1400 
    116 CB        -0.3033  -24.3494  -53.6907 C.3       21 UNK        -0.1800 
    117 C          0.2580  -22.4687  -55.2829 C.2       21 UNK         0.5000 
    118 O          0.6096  -22.9275  -56.3703 O.2       21 UNK        -0.5000 
    119 N          0.7862  -21.3730  -54.7274 N.am      22 UNK        -0.5000 
    120 CA         1.7939  -20.4928  -55.3359 C.3       22 UNK         0.1400 
    121 C          1.1807  -19.3678  -56.2234 C.2       22 UNK         0.5000 
    122 N         -0.1362  -19.2451  -56.3518 N.am      22 UNK        -0.7600 
    123 O          1.9188  -18.5926  -56.8253 O.2       22 UNK        -0.5000 
    124 C124        2.7489  -19.9092  -54.2588 C.3       23 UNK        -0.0398 
    125 S125        3.7818  -21.1938  -53.4708 S.3       23 UNK        -0.2404 
    126 C126        2.7648  -21.6971  -52.0482 C.3       23 UNK        -0.0205 
    127 H127       -5.1306  -15.6224  -51.5323 H         1 UNK         0.0600 
    128 H128       -4.4416  -17.2450  -51.4477 H         1 UNK         0.0600 
    129 H129       -3.6864  -16.0187  -52.4696 H         1 UNK         0.0600 
    130 H130       -1.7686  -15.4519  -51.5519 H         1 UNK         0.3000 
    131 H131       -0.1190  -14.9076  -50.2724 H         1 UNK         0.0600 
    132 H132        0.1246  -15.9275  -47.9624 H         1 UNK         0.0800 
    133 H133       -1.4864  -16.5449  -48.0951 H         1 UNK         0.0800 
    134 H134        2.2850  -16.8646  -49.5981 H         1 UNK         0.0800 
    135 H135        1.8619  -17.4513  -48.0065 H         1 UNK         0.0800 
    136 H136        1.5985  -19.3537  -51.2530 H         1 UNK         0.1150 
    137 H137        4.5399  -22.2327  -50.0741 H         1 UNK         0.1150 
    138 H138        3.6762  -18.9001  -47.5257 H         1 UNK         0.1150 
    139 H139        5.9185  -21.8598  -48.1792 H         1 UNK         0.0800 
    140 H140        5.9294  -20.2779  -47.4477 H         1 UNK         0.0800 
    141 H141        2.5501  -22.7584  -47.0492 H         1 UNK         0.0800 
    142 H142        3.9511  -23.5312  -47.7368 H         1 UNK         0.0800 
    143 H143        4.3688  -24.8172  -45.6916 H         1 UNK         0.0600 
    144 H144        2.6454  -22.9608  -44.3726 H         1 UNK         0.3000 
    145 H145        1.9153  -24.9581  -41.5123 H         1 UNK         0.0600 
    146 H146        2.8256  -22.9439  -40.3473 H         1 UNK         0.0600 
    147 H147        3.7500  -22.5182  -41.7865 H         1 UNK         0.0600 
    148 H148        4.1074  -24.0021  -40.9173 H         1 UNK         0.0600 
    149 H149        1.3764  -22.2652  -42.5557 H         1 UNK         0.3000 
    150 H150       -1.8346  -23.1192  -43.8465 H         1 UNK         0.0600 
    151 H151       -2.2927  -22.8079  -41.4056 H         1 UNK         0.0600 
    152 H152       -2.5911  -21.3269  -42.3041 H         1 UNK         0.0600 
    153 H153       -1.1226  -21.4936  -41.3440 H         1 UNK         0.0600 
    154 H154       -0.5083  -20.6170  -43.5712 H         1 UNK         0.3000 
    155 H155        1.5623  -20.7394  -46.4380 H         1 UNK         0.0600 
    156 H156       -0.5249  -20.1251  -47.4922 H         1 UNK         0.0600 
    157 H157        0.1447  -18.6335  -46.8408 H         1 UNK         0.0600 
    158 H158       -1.1664  -19.4492  -46.0024 H         1 UNK         0.0600 
    159 H159        1.1527  -18.5596  -44.8247 H         1 UNK         0.3000 
    160 H160        3.2244  -19.3148  -42.0098 H         1 UNK         0.0600 
    161 H161        3.5237  -17.4933  -44.4596 H         1 UNK         0.0600 
    162 H162        4.7229  -18.6204  -43.8477 H         1 UNK         0.0600 
    163 H163        4.2646  -17.2249  -42.8829 H         1 UNK         0.0600 
    164 H164        1.5130  -17.1424  -43.0064 H         1 UNK         0.3000 
    165 H165       -1.1944  -17.9063  -40.8457 H         1 UNK         0.0600 
    166 H166       -0.8406  -15.5991  -40.0053 H         1 UNK         0.0600 
    167 H167        0.3397  -16.6866  -39.2921 H         1 UNK         0.0600 
    168 H168        0.8215  -15.6071  -40.5957 H         1 UNK         0.0600 
    169 H169       -0.6465  -15.6933  -42.5802 H         1 UNK         0.3000 
    170 H170       -1.6090  -17.1735  -45.6283 H         1 UNK         0.0600 
    171 H171       -3.8436  -16.7392  -44.5623 H         1 UNK         0.0600 
    172 H172       -3.2416  -15.2049  -43.9441 H         1 UNK         0.0600 
    173 H173       -3.3852  -15.4681  -45.6813 H         1 UNK         0.0600 
    174 H174       -1.1302  -14.4711  -45.0733 H         1 UNK         0.3000 
    175 H175        2.0838  -14.2104  -44.4862 H         1 UNK         0.0600 
    176 H176        1.8923  -14.5531  -47.5204 H         1 UNK         0.0600 
    177 H177        3.1124  -13.6431  -46.6425 H         1 UNK         0.0600 
    178 H178        3.0274  -15.3858  -46.4672 H         1 UNK         0.0600 
    179 H179        0.4263  -12.8521  -46.5159 H         1 UNK         0.3000 
    180 H180       -1.3275  -10.9216  -44.1580 H         1 UNK         0.0600 
    181 H181       -0.3008   -8.9127  -45.1904 H         1 UNK         0.0600 
    182 H182        1.0466   -9.8781  -45.7950 H         1 UNK         0.0600 
    183 H183        0.8251   -9.6523  -44.0640 H         1 UNK         0.0600 
    184 H184       -1.0076  -10.5975  -46.9695 H         1 UNK         0.3000 
    185 H185       -3.9331  -12.2158  -47.7642 H         1 UNK         0.0600 
    186 H186       -3.0766  -10.9352  -49.6867 H         1 UNK         0.0600 
    187 H187       -2.8875   -9.9862  -48.2249 H         1 UNK         0.0600 
    188 H188       -1.4891  -10.7787  -48.9499 H         1 UNK         0.0600 
    189 H189       -3.1802  -13.9961  -48.8684 H         1 UNK         0.3000 
    190 H190        0.9661  -24.8006  -45.1933 H         1 UNK         0.3000 
    191 H191       -0.7840  -26.0153  -45.7471 H         1 UNK         0.0600 
    192 H192       -0.5746  -28.3577  -46.4656 H         1 UNK         0.0600 
    193 H193        0.6196  -28.0270  -45.2210 H         1 UNK         0.0600 
    194 H194        1.1091  -28.1266  -46.9120 H         1 UNK         0.0600 
    195 H195        0.0026  -23.9177  -47.3459 H         1 UNK         0.3000 
    196 H196       -0.1169  -24.6944  -50.1877 H         1 UNK         0.0600 
    197 H197        0.4214  -22.2427  -50.4646 H         1 UNK         0.0600 
    198 H198        1.5891  -23.0951  -49.4596 H         1 UNK         0.0600 
    199 H199        0.3765  -22.0474  -48.7236 H         1 UNK         0.0600 
    200 H200       -2.2805  -23.5404  -47.8003 H         1 UNK         0.3000 
    201 H201       -4.3591  -22.7821  -47.6868 H         1 UNK         0.0600 
    202 H202       -4.6658  -22.9147  -50.7358 H         1 UNK         0.0600 
    203 H203       -5.9442  -22.7399  -49.5512 H         1 UNK         0.0600 
    204 H204       -5.0392  -24.2437  -49.6377 H         1 UNK         0.0600 
    205 H205       -5.5533  -20.7064  -47.9149 H         1 UNK         0.3000 
    206 H206       -4.5084  -18.4617  -49.2761 H         1 UNK         0.0600 
    207 H207       -2.5565  -18.6231  -47.7726 H         1 UNK         0.0600 
    208 H208       -3.5462  -17.3241  -47.1675 H         1 UNK         0.0600 
    209 H209       -3.5869  -18.8837  -46.3621 H         1 UNK         0.0600 
    210 H210       -5.3551  -16.4373  -48.1786 H         1 UNK         0.3000 
    211 H211       -6.9236  -15.1018  -47.3845 H         1 UNK         0.0600 
    212 H212       -7.5772  -17.3423  -45.4007 H         1 UNK         0.0600 
    213 H213       -8.0684  -15.6618  -45.2609 H         1 UNK         0.0600 
    214 H214       -6.3639  -16.0821  -45.1887 H         1 UNK         0.0600 
    215 H215       -8.0033  -15.0410  -49.3149 H         1 UNK         0.3000 
    216 H216       -9.7187  -14.8836  -50.6554 H         1 UNK         0.0600 
    217 H217      -11.2316  -14.6249  -48.6836 H         1 UNK         0.0600 
    218 H218      -11.4990  -16.3685  -48.6568 H         1 UNK         0.0600 
    219 H219      -12.0230  -15.4196  -50.0358 H         1 UNK         0.0600 
    220 H220       -9.2449  -18.1265  -49.3253 H         1 UNK         0.3000 
    221 H221       -9.8573  -19.5498  -51.8036 H         1 UNK         0.0600 
    222 H222       -8.7235  -21.4409  -50.6278 H         1 UNK         0.0600 
    223 H223       -8.2311  -20.3633  -49.3282 H         1 UNK         0.0600 
    224 H224       -9.9400  -20.7076  -49.5916 H         1 UNK         0.0600 
    225 H225       -8.4095  -20.0386  -53.4386 H         1 UNK         0.3000 
    226 H226       -6.1225  -18.3634  -53.8205 H         1 UNK         0.0600 
    227 H227       -7.5370  -19.1417  -55.7029 H         1 UNK         0.0600 
    228 H228       -5.8813  -19.6837  -55.9309 H         1 UNK         0.0600 
    229 H229       -7.1031  -20.8200  -55.3740 H         1 UNK         0.0600 
    230 H230       -3.9842  -18.7358  -53.5004 H         1 UNK         0.3000 
    231 H231       -3.1288  -21.0495  -51.9356 H         1 UNK         0.0600 
    232 H232       -0.9789  -19.8003  -51.8512 H         1 UNK         0.0600 
    233 H233       -2.3048  -18.7403  -51.4198 H         1 UNK         0.0600 
    234 H234       -1.5749  -18.6267  -53.0225 H         1 UNK         0.0600 
    235 H235       -1.6497  -22.5949  -52.5949 H         1 UNK         0.3000 
    236 H236       -1.5908  -23.5468  -55.2126 H         1 UNK         0.0600 
    237 H237        0.3989  -24.0185  -52.9243 H         1 UNK         0.0600 
    238 H238       -1.0983  -24.9083  -53.1965 H         1 UNK         0.0600 
    239 H239        0.2251  -25.0455  -54.3435 H         1 UNK         0.0600 
    240 H240        0.4020  -21.0646  -53.8486 H         1 UNK         0.3000 
    241 H241        2.4018  -21.0908  -56.0175 H         1 UNK         0.0600 
    242 H242       -0.5028  -18.5135  -56.9394 H         1 UNK         0.3800 
    243 H243       -0.7813  -19.8779  -55.8892 H         1 UNK         0.3800 
    244 H244        2.1925  -19.3550  -53.5030 H         1 UNK         0.0800 
    245 H245        3.4377  -19.1914  -54.7075 H         1 UNK         0.0800 
    246 H246        1.7072  -21.6402  -52.2963 H         1 UNK         0.0800 
    247 H247        2.9611  -22.7506  -51.8434 H         1 UNK         0.0800 
@<TRIPOS>BOND
     1    1    2 1    
     2    1  127 1    
     3    1  128 1    
     4    1  129 1    
     5    2    3 2    
     6    2    4 am   BACKBONE|DICT|INTERRES
     7    4    5 1    
     8    4  130 1    
     9    5    6 1    
    10    5   65 1    
    11    5  131 1    
    12    6    7 1    
    13    6  132 1    
    14    6  133 1    
    15    7    8 1    
    16    8    9 1    
    17    8  134 1    
    18    8  135 1    
    19    9   10 ar   
    20    9   14 ar   
    21   10   11 ar   
    22   10  136 1    
    23   11   12 ar   
    24   11  126 1    
    25   12   13 ar   
    26   12  137 1    
    27   13   14 ar   
    28   13   15 1    
    29   14  138 1    
    30   15   16 1    
    31   15  139 1    
    32   15  140 1    
    33   16   17 1    
    34   17   18 1    
    35   17  141 1    
    36   17  142 1    
    37   18   19 1    
    38   18   67 1    
    39   18  143 1    
    40   19   20 am   BACKBONE|DICT|INTERRES
    41   19  144 1    
    42   20   21 2    
    43   20   22 1    
    44   22   23 1    
    45   22   24 1    
    46   22  145 1    
    47   23  146 1    
    48   23  147 1    
    49   23  148 1    
    50   24   25 am   BACKBONE|DICT|INTERRES
    51   24  149 1    
    52   25   26 2    
    53   25   27 1    
    54   27   28 1    
    55   27   29 1    
    56   27  150 1    
    57   28  151 1    
    58   28  152 1    
    59   28  153 1    
    60   29   30 am   BACKBONE|DICT|INTERRES
    61   29  154 1    
    62   30   31 2    
    63   30   32 1    
    64   32   33 1    
    65   32   34 1    
    66   32  155 1    
    67   33  156 1    
    68   33  157 1    
    69   33  158 1    
    70   34   35 am   BACKBONE|DICT|INTERRES
    71   34  159 1    
    72   35   36 2    
    73   35   37 1    
    74   37   38 1    
    75   37   39 1    
    76   37  160 1    
    77   38  161 1    
    78   38  162 1    
    79   38  163 1    
    80   39   40 am   BACKBONE|DICT|INTERRES
    81   39  164 1    
    82   40   41 2    
    83   40   42 1    
    84   42   43 1    
    85   42   44 1    
    86   42  165 1    
    87   43  166 1    
    88   43  167 1    
    89   43  168 1    
    90   44   45 am   BACKBONE|DICT|INTERRES
    91   44  169 1    
    92   45   46 2    
    93   45   47 1    
    94   47   48 1    
    95   47   49 1    
    96   47  170 1    
    97   48  171 1    
    98   48  172 1    
    99   48  173 1    
   100   49   50 am   BACKBONE|DICT|INTERRES
   101   49  174 1    
   102   50   51 2    
   103   50   52 1    
   104   52   53 1    
   105   52   54 1    
   106   52  175 1    
   107   53  176 1    
   108   53  177 1    
   109   53  178 1    
   110   54   55 am   BACKBONE|DICT|INTERRES
   111   54  179 1    
   112   55   56 2    
   113   55   57 1    
   114   57   58 1    
   115   57   59 1    
   116   57  180 1    
   117   58  181 1    
   118   58  182 1    
   119   58  183 1    
   120   59   60 am   BACKBONE|DICT|INTERRES
   121   59  184 1    
   122   60   61 2    
   123   60   62 1    
   124   62   63 1    
   125   62   64 1    
   126   62  185 1    
   127   63  186 1    
   128   63  187 1    
   129   63  188 1    
   130   64   65 am   BACKBONE|DICT|INTERRES
   131   64  189 1    
   132   65   66 2    
   133   67   68 2    
   134   67   69 am   BACKBONE|DICT|INTERRES
   135   69   70 1    
   136   69  190 1    
   137   70   71 1    
   138   70   72 1    
   139   70  191 1    
   140   71  192 1    
   141   71  193 1    
   142   71  194 1    
   143   72   73 2    
   144   72   74 am   BACKBONE|DICT|INTERRES
   145   74   75 1    
   146   74  195 1    
   147   75   76 1    
   148   75   77 1    
   149   75  196 1    
   150   76  197 1    
   151   76  198 1    
   152   76  199 1    
   153   77   78 2    
   154   77   79 am   BACKBONE|DICT|INTERRES
   155   79   80 1    
   156   79  200 1    
   157   80   81 1    
   158   80   82 1    
   159   80  201 1    
   160   81  202 1    
   161   81  203 1    
   162   81  204 1    
   163   82   83 2    
   164   82   84 am   BACKBONE|DICT|INTERRES
   165   84   85 1    
   166   84  205 1    
   167   85   86 1    
   168   85   87 1    
   169   85  206 1    
   170   86  207 1    
   171   86  208 1    
   172   86  209 1    
   173   87   88 2    
   174   87   89 am   BACKBONE|DICT|INTERRES
   175   89   90 1    
   176   89  210 1    
   177   90   91 1    
   178   90   92 1    
   179   90  211 1    
   180   91  212 1    
   181   91  213 1    
   182   91  214 1    
   183   92   93 2    
   184   92   94 am   BACKBONE|DICT|INTERRES
   185   94   95 1    
   186   94  215 1    
   187   95   96 1    
   188   95   97 1    
   189   95  216 1    
   190   96  217 1    
   191   96  218 1    
   192   96  219 1    
   193   97   98 2    
   194   97   99 am   BACKBONE|DICT|INTERRES
   195   99  100 1    
   196   99  220 1    
   197  100  101 1    
   198  100  102 1    
   199  100  221 1    
   200  101  222 1    
   201  101  223 1    
   202  101  224 1    
   203  102  103 2    
   204  102  104 am   BACKBONE|DICT|INTERRES
   205  104  105 1    
   206  104  225 1    
   207  105  106 1    
   208  105  107 1    
   209  105  226 1    
   210  106  227 1    
   211  106  228 1    
   212  106  229 1    
   213  107  108 2    
   214  107  109 am   BACKBONE|DICT|INTERRES
   215  109  110 1    
   216  109  230 1    
   217  110  111 1    
   218  110  112 1    
   219  110  231 1    
   220  111  232 1    
   221  111  233 1    
   222  111  234 1    
   223  112  113 2    
   224  112  114 am   BACKBONE|DICT|INTERRES
   225  114  115 1    
   226  114  235 1    
   227  115  116 1    
   228  115  117 1    
   229  115  236 1    
   230  116  237 1    
   231  116  238 1    
   232  116  239 1    
   233  117  118 2    
   234  117  119 am   BACKBONE|DICT|INTERRES
   235  119  120 1    
   236  119  240 1    
   237  120  121 1    
   238  120  124 1    
   239  120  241 1    
   240  121  122 am   BACKBONE|DICT|INTERRES
   241  121  123 2    
   242  122  242 1    
   243  122  243 1    
   244  124  125 1    
   245  124  244 1    
   246  124  245 1    
   247  125  126 1    
   248  126  246 1    
   249  126  247 1    
@<TRIPOS>SUBSTRUCTURE
     1 UNK         1 GROUP             0       ****    0 ROOT    
