@<TRIPOS>MOLECULE
3R540
247   249    1
SMALL
USER_CHARGES


@<TRIPOS>ATOM
      1 CA          3.0123  -10.5618  -46.4156 C.3       0 UNK        -0.1800 
      2 C           2.0410  -11.6856  -46.7410 C.2       0 UNK         0.5000 
      3 O           0.9591  -11.7505  -46.1585 O.2       0 UNK        -0.5000 
      4 N           2.4087  -12.5727  -47.6737 N.am      1 UNK        -0.5000 
      5 CA          1.6076  -13.7331  -48.0867 C.3       1 UNK         0.1400 
      6 C6          2.3815  -14.6571  -49.0549 C.3       23 UNK        -0.0398 
      7 S7          3.7543  -15.4945  -48.1951 S.3       23 UNK        -0.2404 
      8 C8          4.5728  -16.3480  -49.5762 C.3       23 UNK        -0.0205 
      9 C9          3.7251  -17.4796  -50.1386 C.ar      23 UNK        -0.0193 
     10 C10         3.0286  -17.3103  -51.3405 C.ar      23 UNK        -0.1150 
     11 C11         2.2753  -18.3593  -51.8752 C.ar      23 UNK        -0.0193 
     12 C12         2.2305  -19.5829  -51.2054 C.ar      23 UNK        -0.1150 
     13 C13         2.9100  -19.7616  -49.9983 C.ar      23 UNK        -0.0193 
     14 C14         3.6557  -18.7052  -49.4671 C.ar      23 UNK        -0.1150 
     15 C15         2.8419  -21.1050  -49.2907 C.3       23 UNK        -0.0205 
     16 S16         1.1476  -21.4739  -48.7484 S.3       23 UNK        -0.2404 
     17 C17         1.2876  -23.2423  -48.3546 C.3       23 UNK        -0.0398 
     18 CA          0.2611  -23.7456  -47.3149 C.3       11 UNK         0.1400 
     19 N           0.4029  -23.0994  -46.0051 N.am      11 UNK        -0.5000 
     20 C          -0.0332  -23.6521  -44.8642 C.2       10 UNK         0.5000 
     21 O          -0.6142  -24.7367  -44.8159 O.2       10 UNK        -0.5000 
     22 CA          0.1872  -22.8571  -43.5654 C.3       10 UNK         0.1400 
     23 CB          1.6709  -22.8566  -43.1672 C.3       10 UNK        -0.1800 
     24 N          -0.3007  -21.4820  -43.6477 N.am      10 UNK        -0.5000 
     25 C          -1.5798  -21.1358  -43.8519 C.2       9 UNK         0.5000 
     26 O          -2.4980  -21.9452  -43.9794 O.2       9 UNK        -0.5000 
     27 CA         -1.8779  -19.6314  -43.9880 C.3       9 UNK         0.1400 
     28 CB         -2.0089  -18.9694  -42.6093 C.3       9 UNK        -0.1800 
     29 N          -0.8688  -18.9269  -44.7773 N.am      9 UNK        -0.5000 
     30 C          -0.5836  -19.1991  -46.0580 C.2       8 UNK         0.5000 
     31 O          -1.1584  -20.0627  -46.7164 O.2       8 UNK        -0.5000 
     32 CA          0.5478  -18.3860  -46.6980 C.3       8 UNK         0.1400 
     33 CB          0.0230  -17.0289  -47.1774 C.3       8 UNK        -0.1800 
     34 N           1.6668  -18.1929  -45.7783 N.am      8 UNK        -0.5000 
     35 C           2.5341  -19.1538  -45.4305 C.2       7 UNK         0.5000 
     36 O           2.5058  -20.3036  -45.8685 O.2       7 UNK        -0.5000 
     37 CA          3.5930  -18.7714  -44.3803 C.3       7 UNK         0.1400 
     38 CB          4.7412  -17.9859  -45.0330 C.3       7 UNK        -0.1800 
     39 N           3.0385  -17.9921  -43.2717 N.am      7 UNK        -0.5000 
     40 C           2.1170  -18.4457  -42.4099 C.2       6 UNK         0.5000 
     41 O           1.6592  -19.5881  -42.4348 O.2       6 UNK        -0.5000 
     42 CA          1.5820  -17.4413  -41.3696 C.3       6 UNK         0.1400 
     43 CB          2.4709  -17.4460  -40.1170 C.3       6 UNK        -0.1800 
     44 N           1.4358  -16.0619  -41.8520 N.am      6 UNK        -0.5000 
     45 C           0.7634  -15.6811  -42.9472 C.2       5 UNK         0.5000 
     46 O           0.2761  -16.4734  -43.7572 O.2       5 UNK        -0.5000 
     47 CA          0.6534  -14.1601  -43.1875 C.3       5 UNK         0.1400 
     48 CB          2.0039  -13.6001  -43.6609 C.3       5 UNK        -0.1800 
     49 N          -0.3766  -13.8182  -44.1737 N.am      5 UNK        -0.5000 
     50 C          -1.6846  -14.0802  -44.0323 C.2       4 UNK         0.5000 
     51 O          -2.1919  -14.4678  -42.9772 O.2       4 UNK        -0.5000 
     52 CA         -2.5542  -13.9040  -45.2927 C.3       4 UNK         0.1400 
     53 CB         -4.0652  -14.0751  -45.0256 C.3       4 UNK        -0.1800 
     54 N          -2.2800  -12.6577  -46.0104 N.am      4 UNK        -0.5000 
     55 C          -2.4994  -11.4032  -45.5846 C.2       3 UNK         0.5000 
     56 O          -2.9790  -11.1297  -44.4835 O.2       3 UNK        -0.5000 
     57 CA         -2.1337  -10.2535  -46.5487 C.3       3 UNK         0.1400 
     58 CB         -1.2874   -9.1767  -45.8467 C.3       3 UNK        -0.1800 
     59 N          -1.4061  -10.7317  -47.7253 N.am      3 UNK        -0.5000 
     60 C          -1.9536  -11.0330  -48.9111 C.2       2 UNK         0.5000 
     61 O          -3.1448  -10.8664  -49.1732 O.2       2 UNK        -0.5000 
     62 CA         -1.0221  -11.6391  -49.9835 C.3       2 UNK         0.1400 
     63 CB         -0.6327  -10.5742  -51.0202 C.3       2 UNK        -0.1800 
     64 N           0.2007  -12.2348  -49.4362 N.am      2 UNK        -0.5000 
     65 C           0.2362  -13.3334  -48.6685 C.2       1 UNK         0.5000 
     66 O          -0.7657  -13.9699  -48.3452 O.2       1 UNK        -0.5000 
     67 C          -1.1930  -23.7294  -47.8389 C.2       11 UNK         0.5000 
     68 O          -1.5663  -24.6208  -48.6061 O.2       11 UNK        -0.5000 
     69 N          -2.0026  -22.7535  -47.4021 N.am      12 UNK        -0.5000 
     70 CA         -3.4460  -22.7200  -47.6259 C.3       12 UNK         0.1400 
     71 CB         -4.0171  -21.3456  -47.2516 C.3       12 UNK        -0.1800 
     72 C          -4.1628  -23.8440  -46.8609 C.2       12 UNK         0.5000 
     73 O          -4.9338  -24.5853  -47.4690 O.2       12 UNK        -0.5000 
     74 N          -3.8543  -23.9879  -45.5627 N.am      13 UNK        -0.5000 
     75 CA         -4.3840  -25.0369  -44.6848 C.3       13 UNK         0.1400 
     76 CB         -3.9477  -24.7661  -43.2373 C.3       13 UNK        -0.1800 
     77 C          -3.9750  -26.4580  -45.1165 C.2       13 UNK         0.5000 
     78 O          -4.7724  -27.3867  -44.9834 O.2       13 UNK        -0.5000 
     79 N          -2.7611  -26.5931  -45.6677 N.am      14 UNK        -0.5000 
     80 CA         -2.2454  -27.8213  -46.2784 C.3       14 UNK         0.1400 
     81 CB         -0.7220  -27.6935  -46.4345 C.3       14 UNK        -0.1800 
     82 C          -2.8916  -28.1591  -47.6401 C.2       14 UNK         0.5000 
     83 O          -2.6424  -29.2460  -48.1626 O.2       14 UNK        -0.5000 
     84 N          -3.6808  -27.2272  -48.1983 N.am      15 UNK        -0.5000 
     85 CA         -4.3605  -27.2836  -49.4965 C.3       15 UNK         0.1400 
     86 CB         -5.3836  -28.4372  -49.5458 C.3       15 UNK        -0.1800 
     87 C          -3.3943  -27.2801  -50.6999 C.2       15 UNK         0.5000 
     88 O          -3.7729  -27.7132  -51.7892 O.2       15 UNK        -0.5000 
     89 N          -2.1735  -26.7679  -50.4941 N.am      16 UNK        -0.5000 
     90 CA         -1.1613  -26.5945  -51.5330 C.3       16 UNK         0.1400 
     91 CB          0.2372  -26.6256  -50.8967 C.3       16 UNK        -0.1800 
     92 C          -1.4007  -25.2857  -52.3018 C.2       16 UNK         0.5000 
     93 O          -1.4247  -25.2975  -53.5327 O.2       16 UNK        -0.5000 
     94 N          -1.6118  -24.1918  -51.5565 N.am      17 UNK        -0.5000 
     95 CA         -1.9828  -22.8826  -52.1021 C.3       17 UNK         0.1400 
     96 CB         -1.3074  -21.7837  -51.2716 C.3       17 UNK        -0.1800 
     97 C          -3.5060  -22.6704  -52.1153 C.2       17 UNK         0.5000 
     98 O          -3.9829  -21.7889  -52.8312 O.2       17 UNK        -0.5000 
     99 N          -4.2327  -23.4545  -51.3031 N.am      18 UNK        -0.5000 
    100 CA        -5.6841  -23.4622  -51.0598 C.3       18 UNK         0.1400 
    101 CB        -6.4625  -23.7608  -52.3543 C.3       18 UNK        -0.1800 
    102 C         -6.2428  -22.2088  -50.3516 C.2       18 UNK         0.5000 
    103 O         -7.1917  -22.3313  -49.5770 O.2       18 UNK        -0.5000 
    104 N         -5.6469  -21.0410  -50.5995 N.am      19 UNK        -0.5000 
    105 CA        -5.9798  -19.7491  -50.0162 C.3       19 UNK         0.1400 
    106 CB        -7.1913  -19.1456  -50.7510 C.3       19 UNK        -0.1800 
    107 C         -4.7565  -18.8310  -50.1383 C.2       19 UNK         0.5000 
    108 O         -3.8564  -19.1078  -50.9348 O.2       19 UNK        -0.5000 
    109 N         -4.7728  -17.7153  -49.3974 N.am      20 UNK        -0.5000 
    110 CA        -3.7489  -16.6613  -49.4372 C.3       20 UNK         0.1400 
    111 CB        -4.0193  -15.6690  -48.2969 C.3       20 UNK        -0.1800 
    112 C         -3.6521  -15.9246  -50.7924 C.2       20 UNK         0.5000 
    113 O         -2.6526  -15.2570  -51.0552 O.2       20 UNK        -0.5000 
    114 N         -4.6812  -16.0801  -51.6374 N.am      21 UNK        -0.5000 
    115 CA        -4.7011  -15.6553  -53.0367 C.3       21 UNK         0.1400 
    116 CB        -6.1498  -15.7203  -53.5461 C.3       21 UNK        -0.1800 
    117 C         -3.7716  -16.4887  -53.9469 C.2       21 UNK         0.5000 
    118 O         -3.4524  -16.0250  -55.0420 O.2       21 UNK        -0.5000 
    119 N         -3.3563  -17.6781  -53.4829 N.am      22 UNK        -0.5000 
    120 CA        -2.4591  -18.6341  -54.1491 C.3       22 UNK         0.1400 
    121 C         -3.1027  -19.2477  -55.4221 C.2       22 UNK         0.5000 
    122 N         -3.8738  -20.3167  -55.2758 N.am      22 UNK        -0.7600 
    123 O         -2.8979  -18.7809  -56.5399 O.2       22 UNK        -0.5000 
    124 C124       -1.0358  -18.0643  -54.4057 C.3       23 UNK        -0.0398 
    125 S125       -0.1920  -17.6231  -52.8466 S.3       23 UNK        -0.2404 
    126 C126        1.5054  -18.1879  -53.1735 C.3       23 UNK        -0.0205 
    127 H127        2.5409   -9.5960  -46.5978 H         1 UNK         0.0600 
    128 H128        3.2992  -10.6098  -45.3653 H         1 UNK         0.0600 
    129 H129        3.9174  -10.6204  -47.0203 H         1 UNK         0.0600 
    130 H130        3.3161  -12.4876  -48.1093 H         1 UNK         0.3000 
    131 H131        1.3937  -14.2989  -47.1773 H         1 UNK         0.0600 
    132 H132        2.7743  -14.0901  -49.9005 H         1 UNK         0.0800 
    133 H133        1.7289  -15.4219  -49.4796 H         1 UNK         0.0800 
    134 H134        5.5227  -16.7523  -49.2237 H         1 UNK         0.0800 
    135 H135        4.8218  -15.6257  -50.3553 H         1 UNK         0.0800 
    136 H136        3.0713  -16.3635  -51.8603 H         1 UNK         0.1150 
    137 H137        1.6513  -20.3971  -51.6168 H         1 UNK         0.1150 
    138 H138        4.1866  -18.8354  -48.5344 H         1 UNK         0.1150 
    139 H139        3.1859  -21.8827  -49.9740 H         1 UNK         0.0800 
    140 H140        3.5063  -21.1263  -48.4255 H         1 UNK         0.0800 
    141 H141        1.2016  -23.8055  -49.2845 H         1 UNK         0.0800 
    142 H142        2.2942  -23.4369  -47.9816 H         1 UNK         0.0800 
    143 H143        0.5005  -24.7999  -47.1664 H         1 UNK         0.0600 
    144 H144        0.8499  -22.1909  -45.9896 H         1 UNK         0.3000 
    145 H145       -0.3737  -23.3591  -42.7744 H         1 UNK         0.0600 
    146 H146        1.8139  -22.4008  -42.1874 H         1 UNK         0.0600 
    147 H147        2.0629  -23.8730  -43.1127 H         1 UNK         0.0600 
    148 H148        2.2815  -22.3049  -43.8830 H         1 UNK         0.0600 
    149 H149        0.3874  -20.7482  -43.5122 H         1 UNK         0.3000 
    150 H150       -2.8323  -19.5249  -44.5072 H         1 UNK         0.0600 
    151 H151       -2.8267  -19.4143  -42.0415 H         1 UNK         0.0600 
    152 H152       -2.2146  -17.9022  -42.6988 H         1 UNK         0.0600 
    153 H153       -1.1002  -19.0889  -42.0205 H         1 UNK         0.0600 
    154 H154       -0.3738  -18.1633  -44.3237 H         1 UNK         0.3000 
    155 H155        0.9100  -18.9259  -47.5727 H         1 UNK         0.0600 
    156 H156        0.7984  -16.5029  -47.7240 H         1 UNK         0.0600 
    157 H157       -0.3037  -16.3944  -46.3537 H         1 UNK         0.0600 
    158 H158       -0.8216  -17.1510  -47.8556 H         1 UNK         0.0600 
    159 H159        1.7014  -17.3079  -45.2919 H         1 UNK         0.3000 
    160 H160        4.0018  -19.6969  -43.9690 H         1 UNK         0.0600 
    161 H161        4.4018  -17.0276  -45.4283 H         1 UNK         0.0600 
    162 H162        5.1752  -18.5461  -45.8625 H         1 UNK         0.0600 
    163 H163        5.5416  -17.7905  -44.3193 H         1 UNK         0.0600 
    164 H164        3.3511  -17.0370  -43.1809 H         1 UNK         0.3000 
    165 H165        0.5882  -17.7803  -41.0743 H         1 UNK         0.0600 
    166 H166        3.4704  -17.0658  -40.3314 H         1 UNK         0.0600 
    167 H167        2.0406  -16.8335  -39.3244 H         1 UNK         0.0600 
    168 H168        2.5819  -18.4560  -39.7198 H         1 UNK         0.0600 
    169 H169        1.8231  -15.3459  -41.2545 H         1 UNK         0.3000 
    170 H170        0.3859  -13.6856  -42.2415 H         1 UNK         0.0600 
    171 H171        2.8032  -13.8337  -42.9568 H         1 UNK         0.0600 
    172 H172        2.2912  -14.0089  -44.6306 H         1 UNK         0.0600 
    173 H173        1.9669  -12.5144  -43.7483 H         1 UNK         0.0600 
    174 H174       -0.0495  -13.4273  -45.0478 H         1 UNK         0.3000 
    175 H175       -2.2546  -14.7061  -45.9683 H         1 UNK         0.0600 
    176 H176       -4.6464  -13.9395  -45.9374 H         1 UNK         0.0600 
    177 H177       -4.2813  -15.0754  -44.6486 H         1 UNK         0.0600 
    178 H178       -4.4322  -13.3628  -44.2863 H         1 UNK         0.0600 
    179 H179       -1.8539  -12.7785  -46.9215 H         1 UNK         0.3000 
    180 H180       -3.0712   -9.7883  -46.8592 H         1 UNK         0.0600 
    181 H181       -1.0242   -8.3722  -46.5335 H         1 UNK         0.0600 
    182 H182       -1.8352   -8.7266  -45.0180 H         1 UNK         0.0600 
    183 H183       -0.3628   -9.5872  -45.4408 H         1 UNK         0.0600 
    184 H184       -0.4304  -10.9524  -47.5668 H         1 UNK         0.3000 
    185 H185       -1.5818  -12.4267  -50.4933 H         1 UNK         0.0600 
    186 H186       -0.0389  -11.0061  -51.8260 H         1 UNK         0.0600 
    187 H187       -1.5186  -10.1288  -51.4749 H         1 UNK         0.0600 
    188 H188       -0.0539   -9.7670  -50.5697 H         1 UNK         0.0600 
    189 H189        1.0653  -11.7485  -49.6246 H         1 UNK         0.3000 
    190 H190       -1.6075  -21.9865  -46.8658 H         1 UNK         0.3000 
    191 H191       -3.6243  -22.8732  -48.6901 H         1 UNK         0.0600 
    192 H192       -5.0987  -21.3239  -47.3867 H         1 UNK         0.0600 
    193 H193       -3.5913  -20.5618  -47.8779 H         1 UNK         0.0600 
    194 H194       -3.8131  -21.0907  -46.2123 H         1 UNK         0.0600 
    195 H195       -3.2249  -23.3180  -45.1276 H         1 UNK         0.3000 
    196 H196       -5.4737  -24.9830  -44.7267 H         1 UNK         0.0600 
    197 H197       -4.3357  -25.5288  -42.5611 H         1 UNK         0.0600 
    198 H198       -4.3199  -23.8029  -42.8880 H         1 UNK         0.0600 
    199 H199       -2.8615  -24.7601  -43.1393 H         1 UNK         0.0600 
    200 H200       -2.1334  -25.7957  -45.6495 H         1 UNK         0.3000 
    201 H201       -2.4518  -28.6529  -45.6018 H         1 UNK         0.0600 
    202 H202       -0.2429  -27.4552  -45.4848 H         1 UNK         0.0600 
    203 H203       -0.4591  -26.9163  -47.1514 H         1 UNK         0.0600 
    204 H204       -0.2856  -28.6270  -46.7921 H         1 UNK         0.0600 
    205 H205       -3.8309  -26.3673  -47.6835 H         1 UNK         0.3000 
    206 H206       -4.9248  -26.3545  -49.5717 H         1 UNK         0.0600 
    207 H207       -6.0478  -28.4114  -48.6819 H         1 UNK         0.0600 
    208 H208       -6.0095  -28.3667  -50.4361 H         1 UNK         0.0600 
    209 H209       -4.8972  -29.4126  -49.5675 H         1 UNK         0.0600 
    210 H210       -1.9613  -26.3730  -49.5847 H         1 UNK         0.3000 
    211 H211       -1.2244  -27.4222  -52.2429 H         1 UNK         0.0600 
    212 H212        0.3587  -25.8508  -50.1409 H         1 UNK         0.0600 
    213 H213        1.0124  -26.4772  -51.6494 H         1 UNK         0.0600 
    214 H214        0.4272  -27.5868  -50.4187 H         1 UNK         0.0600 
    215 H215       -1.5558  -24.2754  -50.5466 H         1 UNK         0.3000 
    216 H216       -1.6295  -22.7896  -53.1313 H         1 UNK         0.0600 
    217 H217       -1.5494  -20.7908  -51.6516 H         1 UNK         0.0600 
    218 H218       -0.2240  -21.8865  -51.3080 H         1 UNK         0.0600 
    219 H219       -1.6176  -21.8135  -50.2268 H         1 UNK         0.0600 
    220 H220       -3.7132  -24.1305  -50.7647 H         1 UNK         0.3000 
    221 H221       -5.8603  -24.2942  -50.3770 H         1 UNK         0.0600 
    222 H222       -6.3643  -22.9569  -53.0842 H         1 UNK         0.0600 
    223 H223       -6.1138  -24.6827  -52.8198 H         1 UNK         0.0600 
    224 H224       -7.5266  -23.8826  -52.1480 H         1 UNK         0.0600 
    225 H225       -4.8749  -21.0173  -51.2613 H         1 UNK         0.3000 
    226 H226       -6.2152  -19.8757  -48.9581 H         1 UNK         0.0600 
    227 H227       -7.4653  -18.1754  -50.3353 H         1 UNK         0.0600 
    228 H228       -6.9854  -19.0042  -51.8130 H         1 UNK         0.0600 
    229 H229       -8.0671  -19.7890  -50.6653 H         1 UNK         0.0600 
    230 H230       -5.5516  -17.5527  -48.7752 H         1 UNK         0.3000 
    231 H231       -2.7792  -17.1310  -49.2622 H         1 UNK         0.0600 
    232 H232       -3.2823  -14.8657  -48.2933 H         1 UNK         0.0600 
    233 H233       -3.9662  -16.1625  -47.3264 H         1 UNK         0.0600 
    234 H234       -5.0030  -15.2074  -48.3891 H         1 UNK         0.0600 
    235 H235       -5.4687  -16.6259  -51.3237 H         1 UNK         0.3000 
    236 H236       -4.3648  -14.6175  -53.0843 H         1 UNK         0.0600 
    237 H237       -6.5427  -16.7373  -53.5120 H         1 UNK         0.0600 
    238 H238       -6.8069  -15.0849  -52.9519 H         1 UNK         0.0600 
    239 H239       -6.2165  -15.3775  -54.5795 H         1 UNK         0.0600 
    240 H240       -3.6677  -17.9764  -52.5649 H         1 UNK         0.3000 
    241 H241       -2.3426  -19.4565  -53.4426 H         1 UNK         0.0600 
    242 H242       -4.2989  -20.7320  -56.0893 H         1 UNK         0.3800 
    243 H243       -4.0124  -20.7503  -54.3646 H         1 UNK         0.3800 
    244 H244       -1.0711  -17.1841  -55.0486 H         1 UNK         0.0800 
    245 H245       -0.4362  -18.8020  -54.9407 H         1 UNK         0.0800 
    246 H246        1.4883  -19.1379  -53.7097 H         1 UNK         0.0800 
    247 H247        2.0079  -17.4720  -53.8257 H         1 UNK         0.0800 
@<TRIPOS>BOND
     1    1    2 1    
     2    1  127 1    
     3    1  128 1    
     4    1  129 1    
     5    2    3 2    
     6    2    4 am   BACKBONE|DICT|INTERRES
     7    4    5 1    
     8    4  130 1    
     9    5    6 1    
    10    5   65 1    
    11    5  131 1    
    12    6    7 1    
    13    6  132 1    
    14    6  133 1    
    15    7    8 1    
    16    8    9 1    
    17    8  134 1    
    18    8  135 1    
    19    9   10 ar   
    20    9   14 ar   
    21   10   11 ar   
    22   10  136 1    
    23   11   12 ar   
    24   11  126 1    
    25   12   13 ar   
    26   12  137 1    
    27   13   14 ar   
    28   13   15 1    
    29   14  138 1    
    30   15   16 1    
    31   15  139 1    
    32   15  140 1    
    33   16   17 1    
    34   17   18 1    
    35   17  141 1    
    36   17  142 1    
    37   18   19 1    
    38   18   67 1    
    39   18  143 1    
    40   19   20 am   BACKBONE|DICT|INTERRES
    41   19  144 1    
    42   20   21 2    
    43   20   22 1    
    44   22   23 1    
    45   22   24 1    
    46   22  145 1    
    47   23  146 1    
    48   23  147 1    
    49   23  148 1    
    50   24   25 am   BACKBONE|DICT|INTERRES
    51   24  149 1    
    52   25   26 2    
    53   25   27 1    
    54   27   28 1    
    55   27   29 1    
    56   27  150 1    
    57   28  151 1    
    58   28  152 1    
    59   28  153 1    
    60   29   30 am   BACKBONE|DICT|INTERRES
    61   29  154 1    
    62   30   31 2    
    63   30   32 1    
    64   32   33 1    
    65   32   34 1    
    66   32  155 1    
    67   33  156 1    
    68   33  157 1    
    69   33  158 1    
    70   34   35 am   BACKBONE|DICT|INTERRES
    71   34  159 1    
    72   35   36 2    
    73   35   37 1    
    74   37   38 1    
    75   37   39 1    
    76   37  160 1    
    77   38  161 1    
    78   38  162 1    
    79   38  163 1    
    80   39   40 am   BACKBONE|DICT|INTERRES
    81   39  164 1    
    82   40   41 2    
    83   40   42 1    
    84   42   43 1    
    85   42   44 1    
    86   42  165 1    
    87   43  166 1    
    88   43  167 1    
    89   43  168 1    
    90   44   45 am   BACKBONE|DICT|INTERRES
    91   44  169 1    
    92   45   46 2    
    93   45   47 1    
    94   47   48 1    
    95   47   49 1    
    96   47  170 1    
    97   48  171 1    
    98   48  172 1    
    99   48  173 1    
   100   49   50 am   BACKBONE|DICT|INTERRES
   101   49  174 1    
   102   50   51 2    
   103   50   52 1    
   104   52   53 1    
   105   52   54 1    
   106   52  175 1    
   107   53  176 1    
   108   53  177 1    
   109   53  178 1    
   110   54   55 am   BACKBONE|DICT|INTERRES
   111   54  179 1    
   112   55   56 2    
   113   55   57 1    
   114   57   58 1    
   115   57   59 1    
   116   57  180 1    
   117   58  181 1    
   118   58  182 1    
   119   58  183 1    
   120   59   60 am   BACKBONE|DICT|INTERRES
   121   59  184 1    
   122   60   61 2    
   123   60   62 1    
   124   62   63 1    
   125   62   64 1    
   126   62  185 1    
   127   63  186 1    
   128   63  187 1    
   129   63  188 1    
   130   64   65 am   BACKBONE|DICT|INTERRES
   131   64  189 1    
   132   65   66 2    
   133   67   68 2    
   134   67   69 am   BACKBONE|DICT|INTERRES
   135   69   70 1    
   136   69  190 1    
   137   70   71 1    
   138   70   72 1    
   139   70  191 1    
   140   71  192 1    
   141   71  193 1    
   142   71  194 1    
   143   72   73 2    
   144   72   74 am   BACKBONE|DICT|INTERRES
   145   74   75 1    
   146   74  195 1    
   147   75   76 1    
   148   75   77 1    
   149   75  196 1    
   150   76  197 1    
   151   76  198 1    
   152   76  199 1    
   153   77   78 2    
   154   77   79 am   BACKBONE|DICT|INTERRES
   155   79   80 1    
   156   79  200 1    
   157   80   81 1    
   158   80   82 1    
   159   80  201 1    
   160   81  202 1    
   161   81  203 1    
   162   81  204 1    
   163   82   83 2    
   164   82   84 am   BACKBONE|DICT|INTERRES
   165   84   85 1    
   166   84  205 1    
   167   85   86 1    
   168   85   87 1    
   169   85  206 1    
   170   86  207 1    
   171   86  208 1    
   172   86  209 1    
   173   87   88 2    
   174   87   89 am   BACKBONE|DICT|INTERRES
   175   89   90 1    
   176   89  210 1    
   177   90   91 1    
   178   90   92 1    
   179   90  211 1    
   180   91  212 1    
   181   91  213 1    
   182   91  214 1    
   183   92   93 2    
   184   92   94 am   BACKBONE|DICT|INTERRES
   185   94   95 1    
   186   94  215 1    
   187   95   96 1    
   188   95   97 1    
   189   95  216 1    
   190   96  217 1    
   191   96  218 1    
   192   96  219 1    
   193   97   98 2    
   194   97   99 am   BACKBONE|DICT|INTERRES
   195   99  100 1    
   196   99  220 1    
   197  100  101 1    
   198  100  102 1    
   199  100  221 1    
   200  101  222 1    
   201  101  223 1    
   202  101  224 1    
   203  102  103 2    
   204  102  104 am   BACKBONE|DICT|INTERRES
   205  104  105 1    
   206  104  225 1    
   207  105  106 1    
   208  105  107 1    
   209  105  226 1    
   210  106  227 1    
   211  106  228 1    
   212  106  229 1    
   213  107  108 2    
   214  107  109 am   BACKBONE|DICT|INTERRES
   215  109  110 1    
   216  109  230 1    
   217  110  111 1    
   218  110  112 1    
   219  110  231 1    
   220  111  232 1    
   221  111  233 1    
   222  111  234 1    
   223  112  113 2    
   224  112  114 am   BACKBONE|DICT|INTERRES
   225  114  115 1    
   226  114  235 1    
   227  115  116 1    
   228  115  117 1    
   229  115  236 1    
   230  116  237 1    
   231  116  238 1    
   232  116  239 1    
   233  117  118 2    
   234  117  119 am   BACKBONE|DICT|INTERRES
   235  119  120 1    
   236  119  240 1    
   237  120  121 1    
   238  120  124 1    
   239  120  241 1    
   240  121  122 am   BACKBONE|DICT|INTERRES
   241  121  123 2    
   242  122  242 1    
   243  122  243 1    
   244  124  125 1    
   245  124  244 1    
   246  124  245 1    
   247  125  126 1    
   248  126  246 1    
   249  126  247 1    
@<TRIPOS>SUBSTRUCTURE
     1 UNK         1 GROUP             0       ****    0 ROOT    
