@<TRIPOS>MOLECULE
3R540
247   249    1
SMALL
USER_CHARGES


@<TRIPOS>ATOM
      1 CA         -3.5237  -10.0970  -47.0776 C.3       0 UNK        -0.1800 
      2 C          -2.9694  -11.4986  -47.2883 C.2       0 UNK         0.5000 
      3 O          -2.1234  -11.6967  -48.1588 O.2       0 UNK        -0.5000 
      4 N          -3.4421  -12.4669  -46.4930 N.am      1 UNK        -0.5000 
      5 CA         -3.0361  -13.8786  -46.5534 C.3       1 UNK         0.1400 
      6 C6         -4.0466  -14.8092  -45.8367 C.3       23 UNK        -0.0398 
      7 S7         -5.7487  -14.6363  -46.4574 S.3       23 UNK        -0.2404 
      8 C8         -6.5760  -15.9989  -45.5769 C.3       23 UNK        -0.0205 
      9 C9         -6.4006  -17.3349  -46.2850 C.ar      23 UNK        -0.0193 
     10 C10        -6.9599  -17.5207  -47.5508 C.ar      23 UNK        -0.1150 
     11 C11        -6.8354  -18.7434  -48.2121 C.ar      23 UNK        -0.0193 
     12 C12        -6.1740  -19.7973  -47.5777 C.ar      23 UNK        -0.1150 
     13 C13        -5.6263  -19.6432  -46.2997 C.ar      23 UNK        -0.0193 
     14 C14        -5.7279  -18.3945  -45.6667 C.ar      23 UNK        -0.1150 
     15 C15        -4.9604  -20.8658  -45.6621 C.3       23 UNK        -0.0205 
     16 S16        -4.4357  -20.6861  -43.9197 S.3       23 UNK        -0.2404 
     17 C17        -4.0511  -22.3996  -43.4204 C.3       23 UNK        -0.0398 
     18 CA         -3.1620  -23.2138  -44.3961 C.3       11 UNK         0.1400 
     19 N          -1.7959  -22.6775  -44.5366 N.am      11 UNK        -0.5000 
     20 C          -0.8591  -23.1523  -45.3751 C.2       10 UNK         0.5000 
     21 O          -1.0769  -24.0907  -46.1437 O.2       10 UNK        -0.5000 
     22 CA          0.5486  -22.5207  -45.3714 C.3       10 UNK         0.1400 
     23 CB          1.0146  -22.1627  -46.7916 C.3       10 UNK        -0.1800 
     24 N           0.6774  -21.3356  -44.5291 N.am      10 UNK        -0.5000 
     25 C           0.9009  -21.3393  -43.2098 C.2       9 UNK         0.5000 
     26 O           0.9630  -22.3625  -42.5279 O.2       9 UNK        -0.5000 
     27 CA          1.0660  -19.9612  -42.5463 C.3       9 UNK         0.1400 
     28 CB          2.5190  -19.4745  -42.6594 C.3       9 UNK        -0.1800 
     29 N           0.1764  -18.9692  -43.1500 N.am      9 UNK        -0.5000 
     30 C          -1.1244  -18.8529  -42.8518 C.2       8 UNK         0.5000 
     31 O          -1.6839  -19.5125  -41.9757 O.2       8 UNK        -0.5000 
     32 CA         -1.9364  -17.8312  -43.6714 C.3       8 UNK         0.1400 
     33 CB         -1.8366  -16.4435  -43.0188 C.3       8 UNK        -0.1800 
     34 N          -1.5280  -17.7331  -45.0751 N.am      8 UNK        -0.5000 
     35 C          -1.5179  -18.7371  -45.9654 C.2       7 UNK         0.5000 
     36 O          -1.8535  -19.8897  -45.7182 O.2       7 UNK        -0.5000 
     37 CA         -0.9549  -18.4185  -47.3571 C.3       7 UNK         0.1400 
     38 CB         -2.0548  -17.8475  -48.2637 C.3       7 UNK        -0.1800 
     39 N           0.1839  -17.5012  -47.3011 N.am      7 UNK        -0.5000 
     40 C           1.3323  -17.7374  -46.6504 C.2       6 UNK         0.5000 
     41 O           1.5780  -18.8046  -46.0838 O.2       6 UNK        -0.5000 
     42 CA          2.3360  -16.5669  -46.5572 C.3       6 UNK         0.1400 
     43 CB          3.7904  -17.0440  -46.3700 C.3       6 UNK        -0.1800 
     44 N           2.2444  -15.6022  -47.6583 N.am      6 UNK        -0.5000 
     45 C           2.4435  -15.8387  -48.9632 C.2       5 UNK         0.5000 
     46 O           2.7126  -16.9406  -49.4407 O.2       5 UNK        -0.5000 
     47 CA          2.3451  -14.6165  -49.8891 C.3       5 UNK         0.1400 
     48 CB          0.8816  -14.1919  -50.0834 C.3       5 UNK        -0.1800 
     49 N           3.1293  -13.4881  -49.3852 N.am      5 UNK        -0.5000 
     50 C           4.4696  -13.4267  -49.4188 C.2       4 UNK         0.5000 
     51 O           5.1776  -14.3096  -49.9049 O.2       4 UNK        -0.5000 
     52 CA          5.1453  -12.1663  -48.8413 C.3       4 UNK         0.1400 
     53 CB          5.6336  -11.2524  -49.9766 C.3       4 UNK        -0.1800 
     54 N           4.2670  -11.3927  -47.9640 N.am      4 UNK        -0.5000 
     55 C           4.0141  -11.6888  -46.6832 C.2       3 UNK         0.5000 
     56 O           4.5508  -12.6214  -46.0813 O.2       3 UNK        -0.5000 
     57 CA          2.9855  -10.8008  -45.9449 C.3       3 UNK         0.1400 
     58 CB          2.2299   -9.8127  -46.8636 C.3       3 UNK        -0.1800 
     59 N           2.0200  -11.5842  -45.1664 N.am      3 UNK        -0.5000 
     60 C           1.2392  -12.5782  -45.6149 C.2       2 UNK         0.5000 
     61 O           1.2845  -13.0110  -46.7687 O.2       2 UNK        -0.5000 
     62 CA          0.2394  -13.1975  -44.6145 C.3       2 UNK         0.1400 
     63 CB          0.2079  -12.5101  -43.2348 C.3       2 UNK        -0.1800 
     64 N          -1.1078  -13.1704  -45.1796 N.am      2 UNK        -0.5000 
     65 C          -1.6219  -14.1130  -45.9795 C.2       1 UNK         0.5000 
     66 O          -1.0379  -15.1626  -46.2395 O.2       1 UNK        -0.5000 
     67 C          -3.1944  -24.7076  -44.0065 C.2       11 UNK         0.5000 
     68 O          -4.1190  -25.4112  -44.4140 O.2       11 UNK        -0.5000 
     69 N          -2.1579  -25.1859  -43.3024 N.am      12 UNK        -0.5000 
     70 CA         -1.9318  -26.6015  -42.9909 C.3       12 UNK         0.1400 
     71 CB         -0.7217  -26.7121  -42.0510 C.3       12 UNK        -0.1800 
     72 C          -1.7284  -27.4923  -44.2376 C.2       12 UNK         0.5000 
     73 O          -1.9520  -28.7006  -44.1586 O.2       12 UNK        -0.5000 
     74 N          -1.3305  -26.8799  -45.3602 N.am      13 UNK        -0.5000 
     75 CA         -1.1704  -27.4989  -46.6734 C.3       13 UNK         0.1400 
     76 CB          0.2883  -27.3032  -47.1254 C.3       13 UNK        -0.1800 
     77 C          -2.1653  -26.9044  -47.6925 C.2       13 UNK         0.5000 
     78 O          -1.9160  -26.9924  -48.8946 O.2       13 UNK        -0.5000 
     79 N          -3.2567  -26.2852  -47.2115 N.am      14 UNK        -0.5000 
     80 CA         -4.3147  -25.6264  -47.9890 C.3       14 UNK         0.1400 
     81 CB         -5.1350  -26.6681  -48.7783 C.3       14 UNK        -0.1800 
     82 C          -3.7778  -24.4852  -48.8792 C.2       14 UNK         0.5000 
     83 O          -4.0487  -24.4525  -50.0806 O.2       14 UNK        -0.5000 
     84 N          -2.9776  -23.5967  -48.2714 N.am      15 UNK        -0.5000 
     85 CA         -2.2432  -22.4942  -48.9054 C.3       15 UNK         0.1400 
     86 CB         -3.2007  -21.4325  -49.4859 C.3       15 UNK        -0.1800 
     87 C          -1.2005  -23.0117  -49.9171 C.2       15 UNK         0.5000 
     88 O          -1.0466  -22.4446  -50.9995 O.2       15 UNK        -0.5000 
     89 N          -0.5304  -24.1134  -49.5428 N.am      16 UNK        -0.5000 
     90 CA          0.4184  -24.8897  -50.3485 C.3       16 UNK         0.1400 
     91 CB          1.7116  -24.0824  -50.5878 C.3       16 UNK        -0.1800 
     92 C          -0.2302  -25.4065  -51.6498 C.2       16 UNK         0.5000 
     93 O           0.2943  -25.1768  -52.7386 O.2       16 UNK        -0.5000 
     94 N          -1.3990  -26.0478  -51.5048 N.am      17 UNK        -0.5000 
     95 CA         -2.3077  -26.4894  -52.5694 C.3       17 UNK         0.1400 
     96 CB         -1.6926  -27.6632  -53.3590 C.3       17 UNK        -0.1800 
     97 C          -2.7650  -25.3202  -53.4703 C.2       17 UNK         0.5000 
     98 O          -2.7647  -25.4380  -54.6971 O.2       17 UNK        -0.5000 
     99 N          -3.1208  -24.2012  -52.8234 N.am      18 UNK        -0.5000 
    100 CA        -3.5275  -22.9147  -53.3969 C.3       18 UNK         0.1400 
    101 CB        -4.8816  -23.0496  -54.1237 C.3       18 UNK        -0.1800 
    102 C         -2.4496  -22.2215  -54.2621 C.2       18 UNK         0.5000 
    103 O         -2.7930  -21.3826  -55.0976 O.2       18 UNK        -0.5000 
    104 N         -1.1685  -22.5589  -54.0533 N.am      19 UNK        -0.5000 
    105 CA        -0.0349  -21.9039  -54.7081 C.3       19 UNK         0.1400 
    106 CB         1.1981  -22.8170  -54.6623 C.3       19 UNK        -0.1800 
    107 C          0.2857  -20.5368  -54.0792 C.2       19 UNK         0.5000 
    108 O          0.7065  -19.6280  -54.7970 O.2       19 UNK        -0.5000 
    109 N          0.0768  -20.4057  -52.7621 N.am      20 UNK        -0.5000 
    110 CA         0.1797  -19.1400  -52.0416 C.3       20 UNK         0.1400 
    111 CB         0.4387  -19.4231  -50.5560 C.3       20 UNK        -0.1800 
    112 C         -1.1098  -18.3244  -52.2396 C.2       20 UNK         0.5000 
    113 O         -2.2031  -18.8945  -52.2202 O.2       20 UNK        -0.5000 
    114 N         -0.9604  -17.0102  -52.4404 N.am      21 UNK        -0.5000 
    115 CA        -2.0658  -16.0914  -52.7037 C.3       21 UNK         0.1400 
    116 CB        -1.5087  -14.7760  -53.2703 C.3       21 UNK        -0.1800 
    117 C         -2.9109  -15.8289  -51.4449 C.2       21 UNK         0.5000 
    118 O         -2.3741  -15.3882  -50.4271 O.2       21 UNK        -0.5000 
    119 N         -4.2227  -16.0532  -51.5602 N.am      22 UNK        -0.5000 
    120 CA        -5.2601  -15.8163  -50.5395 C.3       22 UNK         0.1400 
    121 C         -5.5257  -14.3043  -50.2421 C.2       22 UNK         0.5000 
    122 N         -4.4979  -13.4758  -50.1264 N.am      22 UNK        -0.7600 
    123 O         -6.6675  -13.8668  -50.1254 O.2       22 UNK        -0.5000 
    124 C124       -6.5577  -16.5880  -50.9057 C.3       23 UNK        -0.0398 
    125 S125       -6.3257  -18.4013  -50.9261 S.3       23 UNK        -0.2404 
    126 C126       -7.4443  -18.9421  -49.5928 C.3       23 UNK        -0.0205 
    127 H127       -3.9978   -9.7402  -47.9919 H         1 UNK         0.0600 
    128 H128       -2.7178   -9.4100  -46.8196 H         1 UNK         0.0600 
    129 H129       -4.2642  -10.0691  -46.2778 H         1 UNK         0.0600 
    130 H130       -4.1602  -12.2484  -45.8169 H         1 UNK         0.3000 
    131 H131       -3.0000  -14.1737  -47.6047 H         1 UNK         0.0600 
    132 H132       -4.0654  -14.6002  -44.7662 H         1 UNK         0.0800 
    133 H133       -3.7502  -15.8542  -45.9483 H         1 UNK         0.0800 
    134 H134       -6.2163  -16.0465  -44.5479 H         1 UNK         0.0800 
    135 H135       -7.6420  -15.7757  -45.5155 H         1 UNK         0.0800 
    136 H136       -7.4946  -16.7052  -48.0148 H         1 UNK         0.1150 
    137 H137       -6.0987  -20.7522  -48.0788 H         1 UNK         0.1150 
    138 H138       -5.3098  -18.2424  -44.6833 H         1 UNK         0.1150 
    139 H139       -5.6522  -21.7071  -45.7255 H         1 UNK         0.0800 
    140 H140       -4.0905  -21.1250  -46.2652 H         1 UNK         0.0800 
    141 H141       -5.0125  -22.8970  -43.2764 H         1 UNK         0.0800 
    142 H142       -3.5852  -22.3615  -42.4342 H         1 UNK         0.0800 
    143 H143       -3.6146  -23.1750  -45.3863 H         1 UNK         0.0600 
    144 H144       -1.5797  -21.8486  -44.0007 H         1 UNK         0.3000 
    145 H145        1.2255  -23.2888  -44.9921 H         1 UNK         0.0600 
    146 H146        0.3879  -21.3937  -47.2396 H         1 UNK         0.0600 
    147 H147        2.0383  -21.7877  -46.7844 H         1 UNK         0.0600 
    148 H148        0.9993  -23.0338  -47.4463 H         1 UNK         0.0600 
    149 H149        0.6494  -20.4446  -45.0106 H         1 UNK         0.3000 
    150 H150        0.8249  -20.0639  -41.4860 H         1 UNK         0.0600 
    151 H151        3.2036  -20.1817  -42.1895 H         1 UNK         0.0600 
    152 H152        2.6528  -18.5136  -42.1623 H         1 UNK         0.0600 
    153 H153        2.8291  -19.3604  -43.6987 H         1 UNK         0.0600 
    154 H154        0.5538  -18.4179  -43.9072 H         1 UNK         0.3000 
    155 H155       -2.9811  -18.1435  -43.6524 H         1 UNK         0.0600 
    156 H156       -2.1144  -16.4851  -41.9648 H         1 UNK         0.0600 
    157 H157       -2.5050  -15.7310  -43.4963 H         1 UNK         0.0600 
    158 H158       -0.8239  -16.0428  -43.0763 H         1 UNK         0.0600 
    159 H159       -1.2302  -16.8182  -45.4049 H         1 UNK         0.3000 
    160 H160       -0.6071  -19.3555  -47.7919 H         1 UNK         0.0600 
    161 H161       -1.7009  -17.7384  -49.2872 H         1 UNK         0.0600 
    162 H162       -2.3974  -16.8701  -47.9235 H         1 UNK         0.0600 
    163 H163       -2.9244  -18.5058  -48.2919 H         1 UNK         0.0600 
    164 H164        0.0189  -16.5605  -47.6344 H         1 UNK         0.3000 
    165 H165        2.0573  -16.0141  -45.6595 H         1 UNK         0.0600 
    166 H166        4.1227  -17.6630  -47.2038 H         1 UNK         0.0600 
    167 H167        4.4736  -16.1986  -46.2857 H         1 UNK         0.0600 
    168 H168        3.8959  -17.6368  -45.4607 H         1 UNK         0.0600 
    169 H169        1.9830  -14.6561  -47.3884 H         1 UNK         0.3000 
    170 H170        2.7415  -14.9033  -50.8656 H         1 UNK         0.0600 
    171 H171        0.4190  -13.8648  -49.1516 H         1 UNK         0.0600 
    172 H172        0.7983  -13.3761  -50.8014 H         1 UNK         0.0600 
    173 H173        0.2884  -15.0236  -50.4631 H         1 UNK         0.0600 
    174 H174        2.6188  -12.7516  -48.9187 H         1 UNK         0.3000 
    175 H175        6.0174  -12.4936  -48.2710 H         1 UNK         0.0600 
    176 H176        4.8053  -10.8902  -50.5869 H         1 UNK         0.0600 
    177 H177        6.1666  -10.3861  -49.5843 H         1 UNK         0.0600 
    178 H178        6.3208  -11.7824  -50.6375 H         1 UNK         0.0600 
    179 H179        3.7875  -10.6087  -48.3825 H         1 UNK         0.3000 
    180 H180        3.5575  -10.2131  -45.2256 H         1 UNK         0.0600 
    181 H181        1.6590  -10.3286  -47.6370 H         1 UNK         0.0600 
    182 H182        2.9135   -9.1184  -47.3535 H         1 UNK         0.0600 
    183 H183        1.5280   -9.2085  -46.2886 H         1 UNK         0.0600 
    184 H184        1.9412  -11.3275  -44.1929 H         1 UNK         0.3000 
    185 H185        0.5496  -14.2324  -44.4579 H         1 UNK         0.0600 
    186 H186       -0.5067  -13.0025  -42.5747 H         1 UNK         0.0600 
    187 H187        1.1792  -12.5621  -42.7413 H         1 UNK         0.0600 
    188 H188       -0.0811  -11.4607  -43.3069 H         1 UNK         0.0600 
    189 H189       -1.6412  -12.3253  -45.0401 H         1 UNK         0.3000 
    190 H190       -1.4363  -24.5403  -43.0142 H         1 UNK         0.3000 
    191 H191       -2.8129  -26.9736  -42.4641 H         1 UNK         0.0600 
    192 H192        0.1865  -26.3298  -42.5189 H         1 UNK         0.0600 
    193 H193       -0.8853  -26.1541  -41.1289 H         1 UNK         0.0600 
    194 H194       -0.5358  -27.7502  -41.7722 H         1 UNK         0.0600 
    195 H195       -1.1911  -25.8747  -45.3467 H         1 UNK         0.3000 
    196 H196       -1.3742  -28.5699  -46.6228 H         1 UNK         0.0600 
    197 H197        0.9827  -27.7342  -46.4041 H         1 UNK         0.0600 
    198 H198        0.5359  -26.2467  -47.2356 H         1 UNK         0.0600 
    199 H199        0.4761  -27.7909  -48.0827 H         1 UNK         0.0600 
    200 H200       -3.3809  -26.2553  -46.2061 H         1 UNK         0.3000 
    201 H201       -4.9849  -25.1600  -47.2654 H         1 UNK         0.0600 
    202 H202       -5.9871  -26.2001  -49.2725 H         1 UNK         0.0600 
    203 H203       -5.5279  -27.4415  -48.1184 H         1 UNK         0.0600 
    204 H204       -4.5392  -27.1568  -49.5498 H         1 UNK         0.0600 
    205 H205       -2.7094  -23.7868  -47.3133 H         1 UNK         0.3000 
    206 H206       -1.6777  -22.0057  -48.1130 H         1 UNK         0.0600 
    207 H207       -3.8222  -21.0037  -48.7028 H         1 UNK         0.0600 
    208 H208       -3.8608  -21.8413  -50.2490 H         1 UNK         0.0600 
    209 H209       -2.6533  -20.6071  -49.9411 H         1 UNK         0.0600 
    210 H210       -0.7589  -24.5077  -48.6408 H         1 UNK         0.3000 
    211 H211        0.6820  -25.7723  -49.7649 H         1 UNK         0.0600 
    212 H212        2.1664  -23.7807  -49.6445 H         1 UNK         0.0600 
    213 H213        2.4489  -24.6774  -51.1277 H         1 UNK         0.0600 
    214 H214        1.5282  -23.1806  -51.1722 H         1 UNK         0.0600 
    215 H215       -1.7203  -26.2311  -50.5557 H         1 UNK         0.3000 
    216 H216       -3.2043  -26.8596  -52.0701 H         1 UNK         0.0600 
    217 H217       -2.4095  -28.0716  -54.0721 H         1 UNK         0.0600 
    218 H218       -0.8105  -27.3562  -53.9217 H         1 UNK         0.0600 
    219 H219       -1.4000  -28.4746  -52.6927 H         1 UNK         0.0600 
    220 H220       -3.1379  -24.2366  -51.8078 H         1 UNK         0.3000 
    221 H221       -3.6819  -22.2505  -52.5467 H         1 UNK         0.0600 
    222 H222       -4.7959  -23.6483  -55.0308 H         1 UNK         0.0600 
    223 H223       -5.6280  -23.5167  -53.4811 H         1 UNK         0.0600 
    224 H224       -5.2717  -22.0728  -54.4118 H         1 UNK         0.0600 
    225 H225       -0.9536  -23.2452  -53.3404 H         1 UNK         0.3000 
    226 H226       -0.2869  -21.7394  -55.7578 H         1 UNK         0.0600 
    227 H227        0.9873  -23.7890  -55.1086 H         1 UNK         0.0600 
    228 H228        2.0285  -22.3771  -55.2158 H         1 UNK         0.0600 
    229 H229        1.5389  -22.9819  -53.6400 H         1 UNK         0.0600 
    230 H230       -0.3304  -21.1823  -52.2465 H         1 UNK         0.3000 
    231 H231        1.0288  -18.5740  -52.4310 H         1 UNK         0.0600 
    232 H232        0.5680  -18.4929  -50.0036 H         1 UNK         0.0600 
    233 H233        1.3447  -20.0128  -50.4159 H         1 UNK         0.0600 
    234 H234       -0.3876  -19.9657  -50.1001 H         1 UNK         0.0600 
    235 H235       -0.0362  -16.6065  -52.4181 H         1 UNK         0.3000 
    236 H236       -2.7017  -16.5398  -53.4705 H         1 UNK         0.0600 
    237 H237       -0.9536  -14.9466  -54.1929 H         1 UNK         0.0600 
    238 H238       -2.3160  -14.0798  -53.5016 H         1 UNK         0.0600 
    239 H239       -0.8428  -14.2794  -52.5646 H         1 UNK         0.0600 
    240 H240       -4.5666  -16.4181  -52.4359 H         1 UNK         0.3000 
    241 H241       -4.8955  -16.2290  -49.5966 H         1 UNK         0.0600 
    242 H242       -3.5551  -13.8471  -50.1814 H         1 UNK         0.3800 
    243 H243       -4.6532  -12.4991  -49.9395 H         1 UNK         0.3800 
    244 H244       -7.3662  -16.3431  -50.2179 H         1 UNK         0.0800 
    245 H245       -6.9132  -16.2776  -51.8894 H         1 UNK         0.0800 
    246 H246       -7.6739  -19.9978  -49.7445 H         1 UNK         0.0800 
    247 H247       -8.3981  -18.4176  -49.6669 H         1 UNK         0.0800 
@<TRIPOS>BOND
     1    1    2 1    
     2    1  127 1    
     3    1  128 1    
     4    1  129 1    
     5    2    3 2    
     6    2    4 am   BACKBONE|DICT|INTERRES
     7    4    5 1    
     8    4  130 1    
     9    5    6 1    
    10    5   65 1    
    11    5  131 1    
    12    6    7 1    
    13    6  132 1    
    14    6  133 1    
    15    7    8 1    
    16    8    9 1    
    17    8  134 1    
    18    8  135 1    
    19    9   10 ar   
    20    9   14 ar   
    21   10   11 ar   
    22   10  136 1    
    23   11   12 ar   
    24   11  126 1    
    25   12   13 ar   
    26   12  137 1    
    27   13   14 ar   
    28   13   15 1    
    29   14  138 1    
    30   15   16 1    
    31   15  139 1    
    32   15  140 1    
    33   16   17 1    
    34   17   18 1    
    35   17  141 1    
    36   17  142 1    
    37   18   19 1    
    38   18   67 1    
    39   18  143 1    
    40   19   20 am   BACKBONE|DICT|INTERRES
    41   19  144 1    
    42   20   21 2    
    43   20   22 1    
    44   22   23 1    
    45   22   24 1    
    46   22  145 1    
    47   23  146 1    
    48   23  147 1    
    49   23  148 1    
    50   24   25 am   BACKBONE|DICT|INTERRES
    51   24  149 1    
    52   25   26 2    
    53   25   27 1    
    54   27   28 1    
    55   27   29 1    
    56   27  150 1    
    57   28  151 1    
    58   28  152 1    
    59   28  153 1    
    60   29   30 am   BACKBONE|DICT|INTERRES
    61   29  154 1    
    62   30   31 2    
    63   30   32 1    
    64   32   33 1    
    65   32   34 1    
    66   32  155 1    
    67   33  156 1    
    68   33  157 1    
    69   33  158 1    
    70   34   35 am   BACKBONE|DICT|INTERRES
    71   34  159 1    
    72   35   36 2    
    73   35   37 1    
    74   37   38 1    
    75   37   39 1    
    76   37  160 1    
    77   38  161 1    
    78   38  162 1    
    79   38  163 1    
    80   39   40 am   BACKBONE|DICT|INTERRES
    81   39  164 1    
    82   40   41 2    
    83   40   42 1    
    84   42   43 1    
    85   42   44 1    
    86   42  165 1    
    87   43  166 1    
    88   43  167 1    
    89   43  168 1    
    90   44   45 am   BACKBONE|DICT|INTERRES
    91   44  169 1    
    92   45   46 2    
    93   45   47 1    
    94   47   48 1    
    95   47   49 1    
    96   47  170 1    
    97   48  171 1    
    98   48  172 1    
    99   48  173 1    
   100   49   50 am   BACKBONE|DICT|INTERRES
   101   49  174 1    
   102   50   51 2    
   103   50   52 1    
   104   52   53 1    
   105   52   54 1    
   106   52  175 1    
   107   53  176 1    
   108   53  177 1    
   109   53  178 1    
   110   54   55 am   BACKBONE|DICT|INTERRES
   111   54  179 1    
   112   55   56 2    
   113   55   57 1    
   114   57   58 1    
   115   57   59 1    
   116   57  180 1    
   117   58  181 1    
   118   58  182 1    
   119   58  183 1    
   120   59   60 am   BACKBONE|DICT|INTERRES
   121   59  184 1    
   122   60   61 2    
   123   60   62 1    
   124   62   63 1    
   125   62   64 1    
   126   62  185 1    
   127   63  186 1    
   128   63  187 1    
   129   63  188 1    
   130   64   65 am   BACKBONE|DICT|INTERRES
   131   64  189 1    
   132   65   66 2    
   133   67   68 2    
   134   67   69 am   BACKBONE|DICT|INTERRES
   135   69   70 1    
   136   69  190 1    
   137   70   71 1    
   138   70   72 1    
   139   70  191 1    
   140   71  192 1    
   141   71  193 1    
   142   71  194 1    
   143   72   73 2    
   144   72   74 am   BACKBONE|DICT|INTERRES
   145   74   75 1    
   146   74  195 1    
   147   75   76 1    
   148   75   77 1    
   149   75  196 1    
   150   76  197 1    
   151   76  198 1    
   152   76  199 1    
   153   77   78 2    
   154   77   79 am   BACKBONE|DICT|INTERRES
   155   79   80 1    
   156   79  200 1    
   157   80   81 1    
   158   80   82 1    
   159   80  201 1    
   160   81  202 1    
   161   81  203 1    
   162   81  204 1    
   163   82   83 2    
   164   82   84 am   BACKBONE|DICT|INTERRES
   165   84   85 1    
   166   84  205 1    
   167   85   86 1    
   168   85   87 1    
   169   85  206 1    
   170   86  207 1    
   171   86  208 1    
   172   86  209 1    
   173   87   88 2    
   174   87   89 am   BACKBONE|DICT|INTERRES
   175   89   90 1    
   176   89  210 1    
   177   90   91 1    
   178   90   92 1    
   179   90  211 1    
   180   91  212 1    
   181   91  213 1    
   182   91  214 1    
   183   92   93 2    
   184   92   94 am   BACKBONE|DICT|INTERRES
   185   94   95 1    
   186   94  215 1    
   187   95   96 1    
   188   95   97 1    
   189   95  216 1    
   190   96  217 1    
   191   96  218 1    
   192   96  219 1    
   193   97   98 2    
   194   97   99 am   BACKBONE|DICT|INTERRES
   195   99  100 1    
   196   99  220 1    
   197  100  101 1    
   198  100  102 1    
   199  100  221 1    
   200  101  222 1    
   201  101  223 1    
   202  101  224 1    
   203  102  103 2    
   204  102  104 am   BACKBONE|DICT|INTERRES
   205  104  105 1    
   206  104  225 1    
   207  105  106 1    
   208  105  107 1    
   209  105  226 1    
   210  106  227 1    
   211  106  228 1    
   212  106  229 1    
   213  107  108 2    
   214  107  109 am   BACKBONE|DICT|INTERRES
   215  109  110 1    
   216  109  230 1    
   217  110  111 1    
   218  110  112 1    
   219  110  231 1    
   220  111  232 1    
   221  111  233 1    
   222  111  234 1    
   223  112  113 2    
   224  112  114 am   BACKBONE|DICT|INTERRES
   225  114  115 1    
   226  114  235 1    
   227  115  116 1    
   228  115  117 1    
   229  115  236 1    
   230  116  237 1    
   231  116  238 1    
   232  116  239 1    
   233  117  118 2    
   234  117  119 am   BACKBONE|DICT|INTERRES
   235  119  120 1    
   236  119  240 1    
   237  120  121 1    
   238  120  124 1    
   239  120  241 1    
   240  121  122 am   BACKBONE|DICT|INTERRES
   241  121  123 2    
   242  122  242 1    
   243  122  243 1    
   244  124  125 1    
   245  124  244 1    
   246  124  245 1    
   247  125  126 1    
   248  126  246 1    
   249  126  247 1    
@<TRIPOS>SUBSTRUCTURE
     1 UNK         1 GROUP             0       ****    0 ROOT    
