@<TRIPOS>MOLECULE
3R540
247   249    1
SMALL
USER_CHARGES


@<TRIPOS>ATOM
      1 CA         -2.3362  -18.8270  -41.9908 C.3       0 UNK        -0.1800 
      2 C          -2.9227  -17.4476  -42.2443 C.2       0 UNK         0.5000 
      3 O          -3.5075  -16.8533  -41.3390 O.2       0 UNK        -0.5000 
      4 N          -2.7699  -16.9433  -43.4718 N.am      1 UNK        -0.5000 
      5 CA         -3.2078  -15.6114  -43.8901 C.3       1 UNK         0.1400 
      6 C6         -3.7539  -15.6738  -45.3353 C.3       23 UNK        -0.0398 
      7 S7         -4.2053  -14.0712  -46.0937 S.3       23 UNK        -0.2404 
      8 C8         -5.1986  -14.5929  -47.5336 C.3       23 UNK        -0.0205 
      9 C9         -4.5362  -15.7263  -48.3023 C.ar      23 UNK        -0.0193 
     10 C10        -3.4629  -15.4736  -49.1591 C.ar      23 UNK        -0.1150 
     11 C11        -2.7944  -16.5251  -49.7945 C.ar      23 UNK        -0.0193 
     12 C12        -3.2199  -17.8399  -49.5618 C.ar      23 UNK        -0.1150 
     13 C13        -4.3107  -18.1056  -48.7285 C.ar      23 UNK        -0.0193 
     14 C14        -4.9738  -17.0388  -48.1172 C.ar      23 UNK        -0.1150 
     15 C15        -4.7745  -19.5432  -48.5105 C.3       23 UNK        -0.0205 
     16 S16        -5.2014  -19.9248  -46.7736 S.3       23 UNK        -0.2404 
     17 C17        -3.5662  -19.8578  -45.9687 C.3       23 UNK        -0.0398 
     18 CA         -2.9673  -21.2734  -45.7574 C.3       11 UNK         0.1400 
     19 N          -1.5645  -21.3399  -46.1740 N.am      11 UNK        -0.5000 
     20 C          -0.9760  -22.4654  -46.5978 C.2       10 UNK         0.5000 
     21 O          -1.5339  -23.5615  -46.6187 O.2       10 UNK        -0.5000 
     22 CA          0.4875  -22.3602  -47.0418 C.3       10 UNK         0.1400 
     23 CB          0.5742  -21.7588  -48.4520 C.3       10 UNK        -0.1800 
     24 N           1.3221  -21.5907  -46.1199 N.am      10 UNK        -0.5000 
     25 C           1.5889  -21.9461  -44.8554 C.2       9 UNK         0.5000 
     26 O           1.0384  -22.8872  -44.2827 O.2       9 UNK        -0.5000 
     27 CA          2.6455  -21.1127  -44.1119 C.3       9 UNK         0.1400 
     28 CB          4.0325  -21.2681  -44.7567 C.3       9 UNK        -0.1800 
     29 N           2.2809  -19.7009  -44.0852 N.am      9 UNK        -0.5000 
     30 C           1.4630  -19.1468  -43.1815 C.2       8 UNK         0.5000 
     31 O           0.9885  -19.7549  -42.2241 O.2       8 UNK        -0.5000 
     32 CA          1.0975  -17.6659  -43.3865 C.3       8 UNK         0.1400 
     33 CB          2.0593  -16.7515  -42.6146 C.3       8 UNK        -0.1800 
     34 N           1.0838  -17.2756  -44.7938 N.am      8 UNK        -0.5000 
     35 C           0.2189  -17.7318  -45.7083 C.2       7 UNK         0.5000 
     36 O          -0.6963  -18.5186  -45.4577 O.2       7 UNK        -0.5000 
     37 CA          0.4434  -17.2527  -47.1521 C.3       7 UNK         0.1400 
     38 CB         -0.2327  -15.8934  -47.3832 C.3       7 UNK        -0.1800 
     39 N           1.8642  -17.1440  -47.4889 N.am      7 UNK        -0.5000 
     40 C           2.7093  -18.1788  -47.5960 C.2       6 UNK         0.5000 
     41 O           2.3861  -19.3500  -47.4130 O.2       6 UNK        -0.5000 
     42 CA          4.1770  -17.8414  -47.9093 C.3       6 UNK         0.1400 
     43 CB          4.3574  -17.5578  -49.4085 C.3       6 UNK        -0.1800 
     44 N           4.6546  -16.6966  -47.1349 N.am      6 UNK        -0.5000 
     45 C           4.7917  -16.6809  -45.8004 C.2       5 UNK         0.5000 
     46 O           4.6201  -17.6661  -45.0827 O.2       5 UNK        -0.5000 
     47 CA          5.1217  -15.3160  -45.1623 C.3       5 UNK         0.1400 
     48 CB          6.6412  -15.1074  -45.0840 C.3       5 UNK        -0.1800 
     49 N           4.5110  -14.1933  -45.8844 N.am      5 UNK        -0.5000 
     50 C           3.1896  -14.0095  -46.0017 C.2       4 UNK         0.5000 
     51 O           2.3519  -14.7291  -45.4541 O.2       4 UNK        -0.5000 
     52 CA          2.7300  -12.8949  -46.9488 C.3       4 UNK         0.1400 
     53 CB          2.9271  -13.3302  -48.4164 C.3       4 UNK        -0.1800 
     54 N           1.3211  -12.6118  -46.6942 N.am      4 UNK        -0.5000 
     55 C           0.6439  -11.5508  -47.1460 C.2       3 UNK         0.5000 
     56 O           1.1487  -10.6597  -47.8306 O.2       3 UNK        -0.5000 
     57 CA         -0.8517  -11.4601  -46.7822 C.3       3 UNK         0.1400 
     58 CB         -1.7010  -12.1084  -47.8866 C.3       3 UNK        -0.1800 
     59 N          -1.2148  -12.0538  -45.4916 N.am      3 UNK        -0.5000 
     60 C          -0.7492  -11.6668  -44.2948 C.2       2 UNK         0.5000 
     61 O           0.0970  -10.7831  -44.1524 O.2       2 UNK        -0.5000 
     62 CA         -1.3384  -12.3440  -43.0371 C.3       2 UNK         0.1400 
     63 CB         -1.9938  -11.3019  -42.1151 C.3       2 UNK        -0.1800 
     64 N          -2.3230  -13.3948  -43.3130 N.am      2 UNK        -0.5000 
     65 C          -2.0258  -14.6339  -43.7210 C.2       1 UNK         0.5000 
     66 O          -0.8799  -15.0033  -43.9732 O.2       1 UNK        -0.5000 
     67 C          -3.1869  -21.8222  -44.3290 C.2       11 UNK         0.5000 
     68 O          -4.3249  -22.1218  -43.9686 O.2       11 UNK        -0.5000 
     69 N          -2.1057  -21.9801  -43.5488 N.am      12 UNK        -0.5000 
     70 CA         -2.1216  -22.7123  -42.2817 C.3       12 UNK         0.1400 
     71 CB         -0.9540  -22.2650  -41.3906 C.3       12 UNK        -0.1800 
     72 C          -2.0678  -24.2304  -42.5213 C.2       12 UNK         0.5000 
     73 O          -2.7757  -24.9743  -41.8417 O.2       12 UNK        -0.5000 
     74 N          -1.2391  -24.6592  -43.4857 N.am      13 UNK        -0.5000 
     75 CA         -1.0961  -26.0538  -43.9016 C.3       13 UNK         0.1400 
     76 CB          0.1227  -26.1948  -44.8275 C.3       13 UNK        -0.1800 
     77 C          -2.3708  -26.6007  -44.5694 C.2       13 UNK         0.5000 
     78 O          -2.8595  -27.6564  -44.1637 O.2       13 UNK        -0.5000 
     79 N          -2.8973  -25.8624  -45.5540 N.am      14 UNK        -0.5000 
     80 CA         -4.1402  -26.1635  -46.2577 C.3       14 UNK         0.1400 
     81 CB         -3.9854  -27.4059  -47.1637 C.3       14 UNK        -0.1800 
     82 C          -4.5815  -24.9219  -47.0428 C.2       14 UNK         0.5000 
     83 O          -5.4669  -24.1942  -46.5946 O.2       14 UNK        -0.5000 
     84 N          -3.9428  -24.7033  -48.1946 N.am      15 UNK        -0.5000 
     85 CA         -4.1614  -23.6067  -49.1278 C.3       15 UNK         0.1400 
     86 CB         -5.4827  -23.8202  -49.8861 C.3       15 UNK        -0.1800 
     87 C          -2.9593  -23.5628  -50.0831 C.2       15 UNK         0.5000 
     88 O          -2.2280  -24.5520  -50.1907 O.2       15 UNK        -0.5000 
     89 N          -2.7716  -22.4326  -50.7714 N.am      16 UNK        -0.5000 
     90 CA         -1.6752  -22.2239  -51.7133 C.3       16 UNK         0.1400 
     91 CB         -1.2961  -20.7373  -51.7174 C.3       16 UNK        -0.1800 
     92 C          -2.1010  -22.7267  -53.0999 C.2       16 UNK         0.5000 
     93 O          -2.7658  -21.9968  -53.8378 O.2       16 UNK        -0.5000 
     94 N          -1.7677  -23.9936  -53.3859 N.am      17 UNK        -0.5000 
     95 CA         -2.1284  -24.7570  -54.5886 C.3       17 UNK         0.1400 
     96 CB         -1.4385  -24.1765  -55.8396 C.3       17 UNK        -0.1800 
     97 C          -3.6563  -24.8995  -54.7542 C.2       17 UNK         0.5000 
     98 O          -4.1831  -24.7317  -55.8550 O.2       17 UNK        -0.5000 
     99 N          -4.3333  -25.1813  -53.6298 N.am      18 UNK        -0.5000 
    100 CA        -5.7895  -25.2922  -53.4679 C.3       18 UNK         0.1400 
    101 CB        -6.3672  -26.4252  -54.3429 C.3       18 UNK        -0.1800 
    102 C         -6.5464  -23.9562  -53.6488 C.2       18 UNK         0.5000 
    103 O         -7.7661  -23.9711  -53.8238 O.2       18 UNK        -0.5000 
    104 N         -5.8297  -22.8271  -53.5845 N.am      19 UNK        -0.5000 
    105 CA        -6.3616  -21.4771  -53.7282 C.3       19 UNK         0.1400 
    106 CB        -6.5122  -21.1372  -55.2282 C.3       19 UNK        -0.1800 
    107 C         -5.4681  -20.4969  -52.9449 C.2       19 UNK         0.5000 
    108 O         -5.0162  -20.8271  -51.8448 O.2       19 UNK        -0.5000 
    109 N         -5.2211  -19.3175  -53.5239 N.am      20 UNK        -0.5000 
    110 CA        -4.3699  -18.2637  -52.9791 C.3       20 UNK         0.1400 
    111 CB        -5.2340  -17.0332  -52.6491 C.3       20 UNK        -0.1800 
    112 C         -3.2174  -17.9490  -53.9503 C.2       20 UNK         0.5000 
    113 O         -2.8569  -16.7844  -54.1283 O.2       20 UNK        -0.5000 
    114 N         -2.6447  -18.9891  -54.5715 N.am      21 UNK        -0.5000 
    115 CA        -1.5302  -18.8874  -55.5157 C.3       21 UNK         0.1400 
    116 CB        -1.6021  -20.0712  -56.4945 C.3       21 UNK        -0.1800 
    117 C         -0.1726  -18.8001  -54.7852 C.2       21 UNK         0.5000 
    118 O          0.7030  -19.6404  -54.9993 O.2       21 UNK        -0.5000 
    119 N         -0.0278  -17.7924  -53.9158 N.am      22 UNK        -0.5000 
    120 CA         1.1887  -17.5324  -53.1236 C.3       22 UNK         0.1400 
    121 C          2.3789  -16.9391  -53.9355 C.2       22 UNK         0.5000 
    122 N          2.1890  -16.4846  -55.1684 N.am      22 UNK        -0.7600 
    123 O          3.5001  -16.8955  -53.4371 O.2       22 UNK        -0.5000 
    124 C124        0.8982  -16.6588  -51.8763 C.3       23 UNK        -0.0398 
    125 S125       -0.2917  -17.4297  -50.7298 S.3       23 UNK        -0.2404 
    126 C126       -1.6410  -16.2032  -50.7428 C.3       23 UNK        -0.0205 
    127 H127       -1.8177  -19.2125  -42.8687 H         1 UNK         0.0600 
    128 H128       -3.1251  -19.5309  -41.7258 H         1 UNK         0.0600 
    129 H129       -1.6221  -18.7849  -41.1685 H         1 UNK         0.0600 
    130 H130       -2.2001  -17.4424  -44.1442 H         1 UNK         0.3000 
    131 H131       -4.0227  -15.2731  -43.2464 H         1 UNK         0.0600 
    132 H132       -4.6388  -16.3116  -45.3441 H         1 UNK         0.0800 
    133 H133       -3.0291  -16.1653  -45.9828 H         1 UNK         0.0800 
    134 H134       -5.3474  -13.7375  -48.1939 H         1 UNK         0.0800 
    135 H135       -6.1906  -14.8919  -47.1915 H         1 UNK         0.0800 
    136 H136       -3.1372  -14.4550  -49.3140 H         1 UNK         0.1150 
    137 H137       -2.7106  -18.6622  -50.0414 H         1 UNK         0.1150 
    138 H138       -5.8150  -17.2326  -47.4670 H         1 UNK         0.1150 
    139 H139       -5.6501  -19.7212  -49.1362 H         1 UNK         0.0800 
    140 H140       -4.0094  -20.2445  -48.8452 H         1 UNK         0.0800 
    141 H141       -3.6572  -19.3091  -45.0301 H         1 UNK         0.0800 
    142 H142       -2.9142  -19.2479  -46.5945 H         1 UNK         0.0800 
    143 H143       -3.5104  -21.9624  -46.4070 H         1 UNK         0.0600 
    144 H144       -1.0342  -20.4763  -46.1244 H         1 UNK         0.3000 
    145 H145        0.8919  -23.3738  -47.0828 H         1 UNK         0.0600 
    146 H146        1.6016  -21.7509  -48.8160 H         1 UNK         0.0600 
    147 H147       -0.0162  -22.3429  -49.1576 H         1 UNK         0.0600 
    148 H148        0.2024  -20.7336  -48.4784 H         1 UNK         0.0600 
    149 H149        1.7889  -20.7770  -46.5183 H         1 UNK         0.3000 
    150 H150        2.7109  -21.4899  -43.0890 H         1 UNK         0.0600 
    151 H151        4.3280  -22.3171  -44.8003 H         1 UNK         0.0600 
    152 H152        4.7921  -20.7392  -44.1808 H         1 UNK         0.0600 
    153 H153        4.0577  -20.8757  -45.7739 H         1 UNK         0.0600 
    154 H154        2.6418  -19.1189  -44.8293 H         1 UNK         0.3000 
    155 H155        0.0947  -17.5108  -42.9877 H         1 UNK         0.0600 
    156 H156        3.0864  -16.8631  -42.9615 H         1 UNK         0.0600 
    157 H157        2.0446  -16.9815  -41.5487 H         1 UNK         0.0600 
    158 H158        1.7785  -15.7038  -42.7268 H         1 UNK         0.0600 
    159 H159        1.7328  -16.5452  -45.0694 H         1 UNK         0.3000 
    160 H160       -0.0083  -17.9859  -47.8230 H         1 UNK         0.0600 
    161 H161        0.0269  -15.1693  -46.6124 H         1 UNK         0.0600 
    162 H162       -1.3143  -16.0006  -47.3732 H         1 UNK         0.0600 
    163 H163        0.0392  -15.4667  -48.3479 H         1 UNK         0.0600 
    164 H164        2.2285  -16.2110  -47.5958 H         1 UNK         0.3000 
    165 H165        4.7844  -18.7103  -47.6469 H         1 UNK         0.0600 
    166 H166        5.4081  -17.4083  -49.6573 H         1 UNK         0.0600 
    167 H167        3.9975  -18.3933  -50.0108 H         1 UNK         0.0600 
    168 H168        3.8093  -16.6686  -49.7221 H         1 UNK         0.0600 
    169 H169        4.8367  -15.8455  -47.6446 H         1 UNK         0.3000 
    170 H170        4.7237  -15.3204  -44.1454 H         1 UNK         0.0600 
    171 H171        7.1181  -15.9194  -44.5333 H         1 UNK         0.0600 
    172 H172        7.0958  -15.0712  -46.0748 H         1 UNK         0.0600 
    173 H173        6.8857  -14.1790  -44.5675 H         1 UNK         0.0600 
    174 H174        5.1424  -13.5634  -46.3584 H         1 UNK         0.3000 
    175 H175        3.3186  -11.9992  -46.7410 H         1 UNK         0.0600 
    176 H176        2.3185  -14.2007  -48.6634 H         1 UNK         0.0600 
    177 H177        2.6584  -12.5331  -49.1094 H         1 UNK         0.0600 
    178 H178        3.9673  -13.5862  -48.6200 H         1 UNK         0.0600 
    179 H179        0.8634  -13.2832  -46.0891 H         1 UNK         0.3000 
    180 H180       -1.1075  -10.3996  -46.7361 H         1 UNK         0.0600 
    181 H181       -1.5462  -13.1871  -47.9281 H         1 UNK         0.0600 
    182 H182       -1.4493  -11.7025  -48.8673 H         1 UNK         0.0600 
    183 H183       -2.7635  -11.9256  -47.7268 H         1 UNK         0.0600 
    184 H184       -1.9154  -12.7807  -45.5119 H         1 UNK         0.3000 
    185 H185       -0.5007  -12.7913  -42.4976 H         1 UNK         0.0600 
    186 H186       -1.2830  -10.5260  -41.8278 H         1 UNK         0.0600 
    187 H187       -2.8376  -10.8104  -42.6009 H         1 UNK         0.0600 
    188 H188       -2.3559  -11.7609  -41.1949 H         1 UNK         0.0600 
    189 H189       -3.2903  -13.1492  -43.1565 H         1 UNK         0.3000 
    190 H190       -1.1996  -21.7260  -43.9157 H         1 UNK         0.3000 
    191 H191       -3.0485  -22.4879  -41.7492 H         1 UNK         0.0600 
    192 H192        0.0112  -22.4173  -41.8733 H         1 UNK         0.0600 
    193 H193       -0.9424  -22.8239  -40.4542 H         1 UNK         0.0600 
    194 H194       -1.0357  -21.2106  -41.1324 H         1 UNK         0.0600 
    195 H195       -0.6420  -23.9864  -43.9542 H         1 UNK         0.3000 
    196 H196       -0.9069  -26.6508  -43.0070 H         1 UNK         0.0600 
    197 H197        0.2614  -27.2322  -45.1343 H         1 UNK         0.0600 
    198 H198        1.0368  -25.8789  -44.3243 H         1 UNK         0.0600 
    199 H199        0.0182  -25.5961  -45.7324 H         1 UNK         0.0600 
    200 H200       -2.4274  -25.0028  -45.8356 H         1 UNK         0.3000 
    201 H201       -4.9167  -26.3701  -45.5181 H         1 UNK         0.0600 
    202 H202       -3.8771  -28.3161  -46.5743 H         1 UNK         0.0600 
    203 H203       -3.1144  -27.3308  -47.8154 H         1 UNK         0.0600 
    204 H204       -4.8632  -27.5406  -47.7970 H         1 UNK         0.0600 
    205 H205       -3.1790  -25.3111  -48.4664 H         1 UNK         0.3000 
    206 H206       -4.1989  -22.6665  -48.5763 H         1 UNK         0.0600 
    207 H207       -5.5192  -24.8085  -50.3416 H         1 UNK         0.0600 
    208 H208       -6.3395  -23.7319  -49.2182 H         1 UNK         0.0600 
    209 H209       -5.6174  -23.0816  -50.6747 H         1 UNK         0.0600 
    210 H210       -3.4926  -21.7183  -50.7696 H         1 UNK         0.3000 
    211 H211       -0.7926  -22.7831  -51.3958 H         1 UNK         0.0600 
    212 H212       -2.1334  -20.1060  -52.0063 H         1 UNK         0.0600 
    213 H213       -0.4782  -20.5457  -52.4117 H         1 UNK         0.0600 
    214 H214       -0.9642  -20.4160  -50.7308 H         1 UNK         0.0600 
    215 H215       -1.2664  -24.5157  -52.6790 H         1 UNK         0.3000 
    216 H216       -1.7405  -25.7657  -54.4391 H         1 UNK         0.0600 
    217 H217       -1.5388  -24.8555  -56.6870 H         1 UNK         0.0600 
    218 H218       -0.3731  -24.0197  -55.6717 H         1 UNK         0.0600 
    219 H219       -1.8786  -23.2256  -56.1361 H         1 UNK         0.0600 
    220 H220       -3.7942  -25.2947  -52.7827 H         1 UNK         0.3000 
    221 H221       -5.9521  -25.5862  -52.4319 H         1 UNK         0.0600 
    222 H222       -6.3460  -26.1734  -55.4034 H         1 UNK         0.0600 
    223 H223       -5.8119  -27.3530  -54.2058 H         1 UNK         0.0600 
    224 H224       -7.4058  -26.6299  -54.0807 H         1 UNK         0.0600 
    225 H225       -4.8301  -22.8759  -53.4325 H         1 UNK         0.3000 
    226 H226       -7.3463  -21.4311  -53.2592 H         1 UNK         0.0600 
    227 H227       -7.1353  -21.8726  -55.7375 H         1 UNK         0.0600 
    228 H228       -6.9905  -20.1684  -55.3752 H         1 UNK         0.0600 
    229 H229       -5.5456  -21.1206  -55.7342 H         1 UNK         0.0600 
    230 H230       -5.6014  -19.1449  -54.4439 H         1 UNK         0.3000 
    231 H231       -3.9034  -18.5988  -52.0553 H         1 UNK         0.0600 
    232 H232       -6.0144  -17.2855  -51.9310 H         1 UNK         0.0600 
    233 H233       -5.7135  -16.6271  -53.5402 H         1 UNK         0.0600 
    234 H234       -4.6353  -16.2382  -52.2033 H         1 UNK         0.0600 
    235 H235       -2.9444  -19.9305  -54.3396 H         1 UNK         0.3000 
    236 H236       -1.6410  -17.9735  -56.1032 H         1 UNK         0.0600 
    237 H237       -1.4357  -21.0170  -55.9817 H         1 UNK         0.0600 
    238 H238       -2.5726  -20.1216  -56.9882 H         1 UNK         0.0600 
    239 H239       -0.8435  -19.9822  -57.2730 H         1 UNK         0.0600 
    240 H240       -0.8040  -17.1542  -53.7892 H         1 UNK         0.3000 
    241 H241        1.5431  -18.4983  -52.7578 H         1 UNK         0.0600 
    242 H242        1.2755  -16.5110  -55.5915 H         1 UNK         0.3800 
    243 H243        2.9693  -16.1076  -55.6834 H         1 UNK         0.3800 
    244 H244        1.8140  -16.4851  -51.3087 H         1 UNK         0.0800 
    245 H245        0.5415  -15.6733  -52.1799 H         1 UNK         0.0800 
    246 H246       -2.0359  -16.1110  -51.7527 H         1 UNK         0.0800 
    247 H247       -1.2172  -15.2307  -50.4880 H         1 UNK         0.0800 
@<TRIPOS>BOND
     1    1    2 1    
     2    1  127 1    
     3    1  128 1    
     4    1  129 1    
     5    2    3 2    
     6    2    4 am   BACKBONE|DICT|INTERRES
     7    4    5 1    
     8    4  130 1    
     9    5    6 1    
    10    5   65 1    
    11    5  131 1    
    12    6    7 1    
    13    6  132 1    
    14    6  133 1    
    15    7    8 1    
    16    8    9 1    
    17    8  134 1    
    18    8  135 1    
    19    9   10 ar   
    20    9   14 ar   
    21   10   11 ar   
    22   10  136 1    
    23   11   12 ar   
    24   11  126 1    
    25   12   13 ar   
    26   12  137 1    
    27   13   14 ar   
    28   13   15 1    
    29   14  138 1    
    30   15   16 1    
    31   15  139 1    
    32   15  140 1    
    33   16   17 1    
    34   17   18 1    
    35   17  141 1    
    36   17  142 1    
    37   18   19 1    
    38   18   67 1    
    39   18  143 1    
    40   19   20 am   BACKBONE|DICT|INTERRES
    41   19  144 1    
    42   20   21 2    
    43   20   22 1    
    44   22   23 1    
    45   22   24 1    
    46   22  145 1    
    47   23  146 1    
    48   23  147 1    
    49   23  148 1    
    50   24   25 am   BACKBONE|DICT|INTERRES
    51   24  149 1    
    52   25   26 2    
    53   25   27 1    
    54   27   28 1    
    55   27   29 1    
    56   27  150 1    
    57   28  151 1    
    58   28  152 1    
    59   28  153 1    
    60   29   30 am   BACKBONE|DICT|INTERRES
    61   29  154 1    
    62   30   31 2    
    63   30   32 1    
    64   32   33 1    
    65   32   34 1    
    66   32  155 1    
    67   33  156 1    
    68   33  157 1    
    69   33  158 1    
    70   34   35 am   BACKBONE|DICT|INTERRES
    71   34  159 1    
    72   35   36 2    
    73   35   37 1    
    74   37   38 1    
    75   37   39 1    
    76   37  160 1    
    77   38  161 1    
    78   38  162 1    
    79   38  163 1    
    80   39   40 am   BACKBONE|DICT|INTERRES
    81   39  164 1    
    82   40   41 2    
    83   40   42 1    
    84   42   43 1    
    85   42   44 1    
    86   42  165 1    
    87   43  166 1    
    88   43  167 1    
    89   43  168 1    
    90   44   45 am   BACKBONE|DICT|INTERRES
    91   44  169 1    
    92   45   46 2    
    93   45   47 1    
    94   47   48 1    
    95   47   49 1    
    96   47  170 1    
    97   48  171 1    
    98   48  172 1    
    99   48  173 1    
   100   49   50 am   BACKBONE|DICT|INTERRES
   101   49  174 1    
   102   50   51 2    
   103   50   52 1    
   104   52   53 1    
   105   52   54 1    
   106   52  175 1    
   107   53  176 1    
   108   53  177 1    
   109   53  178 1    
   110   54   55 am   BACKBONE|DICT|INTERRES
   111   54  179 1    
   112   55   56 2    
   113   55   57 1    
   114   57   58 1    
   115   57   59 1    
   116   57  180 1    
   117   58  181 1    
   118   58  182 1    
   119   58  183 1    
   120   59   60 am   BACKBONE|DICT|INTERRES
   121   59  184 1    
   122   60   61 2    
   123   60   62 1    
   124   62   63 1    
   125   62   64 1    
   126   62  185 1    
   127   63  186 1    
   128   63  187 1    
   129   63  188 1    
   130   64   65 am   BACKBONE|DICT|INTERRES
   131   64  189 1    
   132   65   66 2    
   133   67   68 2    
   134   67   69 am   BACKBONE|DICT|INTERRES
   135   69   70 1    
   136   69  190 1    
   137   70   71 1    
   138   70   72 1    
   139   70  191 1    
   140   71  192 1    
   141   71  193 1    
   142   71  194 1    
   143   72   73 2    
   144   72   74 am   BACKBONE|DICT|INTERRES
   145   74   75 1    
   146   74  195 1    
   147   75   76 1    
   148   75   77 1    
   149   75  196 1    
   150   76  197 1    
   151   76  198 1    
   152   76  199 1    
   153   77   78 2    
   154   77   79 am   BACKBONE|DICT|INTERRES
   155   79   80 1    
   156   79  200 1    
   157   80   81 1    
   158   80   82 1    
   159   80  201 1    
   160   81  202 1    
   161   81  203 1    
   162   81  204 1    
   163   82   83 2    
   164   82   84 am   BACKBONE|DICT|INTERRES
   165   84   85 1    
   166   84  205 1    
   167   85   86 1    
   168   85   87 1    
   169   85  206 1    
   170   86  207 1    
   171   86  208 1    
   172   86  209 1    
   173   87   88 2    
   174   87   89 am   BACKBONE|DICT|INTERRES
   175   89   90 1    
   176   89  210 1    
   177   90   91 1    
   178   90   92 1    
   179   90  211 1    
   180   91  212 1    
   181   91  213 1    
   182   91  214 1    
   183   92   93 2    
   184   92   94 am   BACKBONE|DICT|INTERRES
   185   94   95 1    
   186   94  215 1    
   187   95   96 1    
   188   95   97 1    
   189   95  216 1    
   190   96  217 1    
   191   96  218 1    
   192   96  219 1    
   193   97   98 2    
   194   97   99 am   BACKBONE|DICT|INTERRES
   195   99  100 1    
   196   99  220 1    
   197  100  101 1    
   198  100  102 1    
   199  100  221 1    
   200  101  222 1    
   201  101  223 1    
   202  101  224 1    
   203  102  103 2    
   204  102  104 am   BACKBONE|DICT|INTERRES
   205  104  105 1    
   206  104  225 1    
   207  105  106 1    
   208  105  107 1    
   209  105  226 1    
   210  106  227 1    
   211  106  228 1    
   212  106  229 1    
   213  107  108 2    
   214  107  109 am   BACKBONE|DICT|INTERRES
   215  109  110 1    
   216  109  230 1    
   217  110  111 1    
   218  110  112 1    
   219  110  231 1    
   220  111  232 1    
   221  111  233 1    
   222  111  234 1    
   223  112  113 2    
   224  112  114 am   BACKBONE|DICT|INTERRES
   225  114  115 1    
   226  114  235 1    
   227  115  116 1    
   228  115  117 1    
   229  115  236 1    
   230  116  237 1    
   231  116  238 1    
   232  116  239 1    
   233  117  118 2    
   234  117  119 am   BACKBONE|DICT|INTERRES
   235  119  120 1    
   236  119  240 1    
   237  120  121 1    
   238  120  124 1    
   239  120  241 1    
   240  121  122 am   BACKBONE|DICT|INTERRES
   241  121  123 2    
   242  122  242 1    
   243  122  243 1    
   244  124  125 1    
   245  124  244 1    
   246  124  245 1    
   247  125  126 1    
   248  126  246 1    
   249  126  247 1    
@<TRIPOS>SUBSTRUCTURE
     1 UNK         1 GROUP             0       ****    0 ROOT    
