@<TRIPOS>MOLECULE
3R540
247   249    1
SMALL
USER_CHARGES


@<TRIPOS>ATOM
      1 CA         -7.3037  -13.3027  -48.8352 C.3       0 UNK        -0.1800 
      2 C          -5.8549  -13.2093  -48.3768 C.2       0 UNK         0.5000 
      3 O          -4.9569  -13.6477  -49.0955 O.2       0 UNK        -0.5000 
      4 N          -5.6297  -12.6495  -47.1827 N.am      1 UNK        -0.5000 
      5 CA         -4.3044  -12.4361  -46.5929 C.3       1 UNK         0.1400 
      6 C6         -4.3864  -12.1259  -45.0762 C.3       23 UNK        -0.0398 
      7 S7         -5.2357  -13.4213  -44.1092 S.3       23 UNK        -0.2404 
      8 C8         -3.8344  -14.3516  -43.4114 C.3       23 UNK        -0.0205 
      9 C9         -3.1776  -15.2399  -44.4556 C.ar      23 UNK        -0.0193 
     10 C10        -2.0185  -14.8234  -45.1165 C.ar      23 UNK        -0.1150 
     11 C11        -1.4299  -15.6346  -46.0907 C.ar      23 UNK        -0.0193 
     12 C12        -1.9931  -16.8793  -46.3841 C.ar      23 UNK        -0.1150 
     13 C13        -3.1468  -17.3085  -45.7248 C.ar      23 UNK        -0.0193 
     14 C14        -3.7365  -16.4833  -44.7640 C.ar      23 UNK        -0.1150 
     15 C15        -3.7731  -18.6496  -46.0673 C.3       23 UNK        -0.0205 
     16 S16        -3.4183  -19.9059  -44.7998 S.3       23 UNK        -0.2404 
     17 C17        -4.4211  -21.2890  -45.4348 C.3       23 UNK        -0.0398 
     18 CA         -3.6781  -22.6382  -45.5958 C.3       11 UNK         0.1400 
     19 N          -2.3746  -22.5458  -46.2663 N.am      11 UNK        -0.5000 
     20 C          -1.8338  -23.5638  -46.9516 C.2       10 UNK         0.5000 
     21 O          -2.3948  -24.6472  -47.1012 O.2       10 UNK        -0.5000 
     22 CA         -0.4363  -23.3620  -47.5525 C.3       10 UNK         0.1400 
     23 CB         -0.5209  -22.5481  -48.8509 C.3       10 UNK        -0.1800 
     24 N           0.4867  -22.7323  -46.6102 N.am      10 UNK        -0.5000 
     25 C           0.9486  -23.3367  -45.5027 C.2       9 UNK         0.5000 
     26 O           0.6343  -24.4806  -45.1766 O.2       9 UNK        -0.5000 
     27 CA          1.8904  -22.5313  -44.5835 C.3       9 UNK         0.1400 
     28 CB          3.3566  -22.8010  -44.9506 C.3       9 UNK        -0.1800 
     29 N           1.6465  -21.0918  -44.6271 N.am      9 UNK        -0.5000 
     30 C           0.4893  -20.4996  -44.2983 C.2       8 UNK         0.5000 
     31 O          -0.4553  -21.1036  -43.7892 O.2       8 UNK        -0.5000 
     32 CA          0.3396  -19.0082  -44.6657 C.3       8 UNK         0.1400 
     33 CB          0.4353  -18.1205  -43.4181 C.3       8 UNK        -0.1800 
     34 N           1.3039  -18.5557  -45.6788 N.am      8 UNK        -0.5000 
     35 C           1.3327  -19.0102  -46.9432 C.2       7 UNK         0.5000 
     36 O           0.4990  -19.8009  -47.3830 O.2       7 UNK        -0.5000 
     37 CA          2.4958  -18.5795  -47.8591 C.3       7 UNK         0.1400 
     38 CB          1.9952  -17.7787  -49.0691 C.3       7 UNK        -0.1800 
     39 N           3.5457  -17.8293  -47.1710 N.am      7 UNK        -0.5000 
     40 C           4.4673  -18.3812  -46.3672 C.2       6 UNK         0.5000 
     41 O           4.5279  -19.5896  -46.1374 O.2       6 UNK        -0.5000 
     42 CA          5.4625  -17.4279  -45.6719 C.3       6 UNK         0.1400 
     43 CB          6.7570  -17.3148  -46.4907 C.3       6 UNK        -0.1800 
     44 N           4.9266  -16.0844  -45.4401 N.am      6 UNK        -0.5000 
     45 C           3.8525  -15.8064  -44.6886 C.2       5 UNK         0.5000 
     46 O           3.2364  -16.6579  -44.0495 O.2       5 UNK        -0.5000 
     47 CA          3.3465  -14.3510  -44.6835 C.3       5 UNK         0.1400 
     48 CB          3.8700  -13.6066  -43.4467 C.3       5 UNK        -0.1800 
     49 N           3.6652  -13.5629  -45.8795 N.am      5 UNK        -0.5000 
     50 C           3.3852  -13.8747  -47.1521 C.2       4 UNK         0.5000 
     51 O           2.9392  -14.9688  -47.4965 O.2       4 UNK        -0.5000 
     52 CA          3.6438  -12.7737  -48.2051 C.3       4 UNK         0.1400 
     53 CB          3.2624  -13.2226  -49.6278 C.3       4 UNK        -0.1800 
     54 N           2.9220  -11.5351  -47.9010 N.am      4 UNK        -0.5000 
     55 C           3.2325  -10.6505  -46.9433 C.2       3 UNK         0.5000 
     56 O           4.2203  -10.7643  -46.2154 O.2       3 UNK        -0.5000 
     57 CA          2.2887   -9.4453  -46.7464 C.3       3 UNK         0.1400 
     58 CB          2.9540   -8.1566  -47.2547 C.3       3 UNK        -0.1800 
     59 N           0.9766   -9.5808  -47.3882 N.am      3 UNK        -0.5000 
     60 C           0.0215  -10.4476  -47.0273 C.2       2 UNK         0.5000 
     61 O           0.1527  -11.2731  -46.1189 O.2       2 UNK        -0.5000 
     62 CA         -1.2948  -10.3730  -47.8187 C.3       2 UNK         0.1400 
     63 CB         -1.0758  -10.5917  -49.3280 C.3       2 UNK        -0.1800 
     64 N          -2.2155  -11.3771  -47.2974 N.am      2 UNK        -0.5000 
     65 C          -3.5483  -11.3009  -47.3158 C.2       1 UNK         0.5000 
     66 O          -4.1731  -10.3643  -47.8222 O.2       1 UNK        -0.5000 
     67 C          -3.6047  -23.4493  -44.2880 C.2       11 UNK         0.5000 
     68 O          -4.5900  -24.1025  -43.9446 O.2       11 UNK        -0.5000 
     69 N          -2.4368  -23.4754  -43.6274 N.am      12 UNK        -0.5000 
     70 CA         -2.1558  -24.3747  -42.5037 C.3       12 UNK         0.1400 
     71 CB         -0.8194  -23.9907  -41.8525 C.3       12 UNK        -0.1800 
     72 C          -2.1558  -25.8600  -42.9245 C.2       12 UNK         0.5000 
     73 O          -2.6686  -26.7019  -42.1870 O.2       12 UNK        -0.5000 
     74 N          -1.6196  -26.1459  -44.1196 N.am      13 UNK        -0.5000 
     75 CA         -1.6259  -27.4673  -44.7537 C.3       13 UNK         0.1400 
     76 CB         -0.4861  -27.5194  -45.7842 C.3       13 UNK        -0.1800 
     77 C          -2.9673  -27.8236  -45.4302 C.2       13 UNK         0.5000 
     78 O          -3.1447  -28.9737  -45.8332 O.2       13 UNK        -0.5000 
     79 N          -3.8659  -26.8365  -45.5688 N.am      14 UNK        -0.5000 
     80 CA         -5.1461  -26.8759  -46.2879 C.3       14 UNK         0.1400 
     81 CB         -6.1266  -27.8678  -45.6287 C.3       14 UNK        -0.1800 
     82 C          -4.9821  -27.1019  -47.8090 C.2       14 UNK         0.5000 
     83 O          -5.8624  -27.6761  -48.4517 O.2       14 UNK        -0.5000 
     84 N          -3.8577  -26.6272  -48.3577 N.am      15 UNK        -0.5000 
     85 CA         -3.4829  -26.7114  -49.7681 C.3       15 UNK         0.1400 
     86 CB         -1.9766  -27.0067  -49.8483 C.3       15 UNK        -0.1800 
     87 C          -3.8005  -25.4170  -50.5382 C.2       15 UNK         0.5000 
     88 O          -3.7372  -25.4244  -51.7683 O.2       15 UNK        -0.5000 
     89 N          -4.1284  -24.3301  -49.8208 N.am      16 UNK        -0.5000 
     90 CA         -4.3304  -22.9677  -50.3355 C.3       16 UNK         0.1400 
     91 CB         -4.6101  -22.0169  -49.1630 C.3       16 UNK        -0.1800 
     92 C          -5.4102  -22.8039  -51.4233 C.2       16 UNK         0.5000 
     93 O          -5.3967  -21.7978  -52.1317 O.2       16 UNK        -0.5000 
     94 N          -6.3052  -23.7915  -51.5599 N.am      17 UNK        -0.5000 
     95 CA         -7.2772  -23.8913  -52.6506 C.3       17 UNK         0.1400 
     96 CB         -8.2358  -25.0558  -52.3592 C.3       17 UNK        -0.1800 
     97 C          -6.6188  -24.0663  -54.0362 C.2       17 UNK         0.5000 
     98 O          -7.2017  -23.6443  -55.0358 O.2       17 UNK        -0.5000 
     99 N          -5.4213  -24.6670  -54.0657 N.am      18 UNK        -0.5000 
    100 CA        -4.5817  -24.8117  -55.2526 C.3       18 UNK         0.1400 
    101 CB        -4.2204  -26.2940  -55.4406 C.3       18 UNK        -0.1800 
    102 C         -3.3134  -23.9551  -55.1147 C.2       18 UNK         0.5000 
    103 O         -2.9810  -23.2013  -56.0302 O.2       18 UNK        -0.5000 
    104 N         -2.6364  -24.0607  -53.9640 N.am      19 UNK        -0.5000 
    105 CA        -1.3936  -23.3634  -53.6376 C.3       19 UNK         0.1400 
    106 CB        -0.5873  -24.2317  -52.6539 C.3       19 UNK        -0.1800 
    107 C         -1.6691  -21.9508  -53.0878 C.2       19 UNK         0.5000 
    108 O         -1.2442  -21.6209  -51.9796 O.2       19 UNK        -0.5000 
    109 N         -2.3801  -21.1285  -53.8680 N.am      20 UNK        -0.5000 
    110 CA        -2.7927  -19.7604  -53.5336 C.3       20 UNK         0.1400 
    111 CB        -3.9833  -19.3783  -54.4311 C.3       20 UNK        -0.1800 
    112 C         -1.6342  -18.7372  -53.6182 C.2       20 UNK         0.5000 
    113 O         -1.7890  -17.6646  -54.2059 O.2       20 UNK        -0.5000 
    114 N         -0.4827  -19.0869  -53.0317 N.am      21 UNK        -0.5000 
    115 CA         0.7841  -18.3546  -53.0989 C.3       21 UNK         0.1400 
    116 CB         1.8940  -19.2342  -52.5016 C.3       21 UNK        -0.1800 
    117 C          0.7602  -16.9617  -52.4389 C.2       21 UNK         0.5000 
    118 O          1.5780  -16.1148  -52.8005 O.2       21 UNK        -0.5000 
    119 N         -0.1786  -16.7402  -51.5086 N.am      22 UNK        -0.5000 
    120 CA        -0.4536  -15.4255  -50.9050 C.3       22 UNK         0.1400 
    121 C         -1.2556  -14.4626  -51.8367 C.2       22 UNK         0.5000 
    122 N         -1.7992  -14.9126  -52.9637 N.am      22 UNK        -0.7600 
    123 O         -1.3705  -13.2758  -51.5498 O.2       22 UNK        -0.5000 
    124 C124       -1.1076  -15.5687  -49.5013 C.3       23 UNK        -0.0398 
    125 S125       -0.5902  -14.2529  -48.3424 S.3       23 UNK        -0.2404 
    126 C126       -0.1839  -15.1666  -46.8210 C.3       23 UNK        -0.0205 
    127 H127       -7.4378  -12.7554  -49.7682 H         1 UNK         0.0600 
    128 H128       -7.9906  -12.8889  -48.0964 H         1 UNK         0.0600 
    129 H129       -7.5765  -14.3440  -49.0069 H         1 UNK         0.0600 
    130 H130       -6.4075  -12.2997  -46.6425 H         1 UNK         0.3000 
    131 H131       -3.7340  -13.3567  -46.7294 H         1 UNK         0.0600 
    132 H132       -3.3892  -11.9720  -44.6603 H         1 UNK         0.0800 
    133 H133       -4.9232  -11.1897  -44.9116 H         1 UNK         0.0800 
    134 H134       -4.1996  -14.9704  -42.5904 H         1 UNK         0.0800 
    135 H135       -3.1094  -13.6653  -42.9713 H         1 UNK         0.0800 
    136 H136       -1.5808  -13.8628  -44.8832 H         1 UNK         0.1150 
    137 H137       -1.5340  -17.5181  -47.1246 H         1 UNK         0.1150 
    138 H138       -4.6344  -16.8087  -44.2574 H         1 UNK         0.1150 
    139 H139       -4.8528  -18.5250  -46.1640 H         1 UNK         0.0800 
    140 H140       -3.4134  -19.0034  -47.0351 H         1 UNK         0.0800 
    141 H141       -4.8263  -21.0043  -46.4058 H         1 UNK         0.0800 
    142 H142       -5.2959  -21.4016  -44.7915 H         1 UNK         0.0800 
    143 H143       -4.3236  -23.2330  -46.2466 H         1 UNK         0.0600 
    144 H144       -1.8580  -21.6858  -46.1458 H         1 UNK         0.3000 
    145 H145       -0.0381  -24.3476  -47.8034 H         1 UNK         0.0600 
    146 H146       -0.9648  -21.5653  -48.6907 H         1 UNK         0.0600 
    147 H147        0.4633  -22.4029  -49.2962 H         1 UNK         0.0600 
    148 H148       -1.1370  -23.0634  -49.5881 H         1 UNK         0.0600 
    149 H149        0.7353  -21.7675  -46.7984 H         1 UNK         0.3000 
    150 H150        1.7263  -22.8665  -43.5582 H         1 UNK         0.0600 
    151 H151        3.5818  -23.8673  -44.9036 H         1 UNK         0.0600 
    152 H152        4.0353  -22.2950  -44.2636 H         1 UNK         0.0600 
    153 H153        3.5876  -22.4593  -45.9605 H         1 UNK         0.0600 
    154 H154        2.3764  -20.5230  -45.0339 H         1 UNK         0.3000 
    155 H155       -0.6583  -18.8889  -45.0852 H         1 UNK         0.0600 
    156 H156        0.3042  -17.0682  -43.6715 H         1 UNK         0.0600 
    157 H157       -0.3421  -18.3800  -42.6984 H         1 UNK         0.0600 
    158 H158        1.3972  -18.2329  -42.9173 H         1 UNK         0.0600 
    159 H159        2.0274  -17.9215  -45.3613 H         1 UNK         0.3000 
    160 H160        2.9341  -19.5021  -48.2455 H         1 UNK         0.0600 
    161 H161        1.6434  -16.7871  -48.7943 H         1 UNK         0.0600 
    162 H162        1.1674  -18.2919  -49.5578 H         1 UNK         0.0600 
    163 H163        2.7845  -17.6525  -49.8101 H         1 UNK         0.0600 
    164 H164        3.5188  -16.8186  -47.2795 H         1 UNK         0.3000 
    165 H165        5.7066  -17.8615  -44.7000 H         1 UNK         0.0600 
    166 H166        7.5018  -16.7117  -45.9712 H         1 UNK         0.0600 
    167 H167        7.1983  -18.2977  -46.6616 H         1 UNK         0.0600 
    168 H168        6.5769  -16.8614  -47.4663 H         1 UNK         0.0600 
    169 H169        5.3627  -15.3263  -45.9436 H         1 UNK         0.3000 
    170 H170        2.2584  -14.3962  -44.6134 H         1 UNK         0.0600 
    171 H171        3.6240  -14.1455  -42.5306 H         1 UNK         0.0600 
    172 H172        4.9539  -13.4889  -43.4789 H         1 UNK         0.0600 
    173 H173        3.4265  -12.6138  -43.3670 H         1 UNK         0.0600 
    174 H174        4.0247  -12.6273  -45.7149 H         1 UNK         0.3000 
    175 H175        4.7154  -12.5648  -48.1963 H         1 UNK         0.0600 
    176 H176        2.1958  -13.4357  -49.7082 H         1 UNK         0.0600 
    177 H177        3.5075  -12.4563  -50.3632 H         1 UNK         0.0600 
    178 H178        3.8000  -14.1280  -49.9127 H         1 UNK         0.0600 
    179 H179        2.0740  -11.3768  -48.4240 H         1 UNK         0.3000 
    180 H180        2.1251   -9.3421  -45.6717 H         1 UNK         0.0600 
    181 H181        3.1266   -8.1911  -48.3312 H         1 UNK         0.0600 
    182 H182        3.9195   -7.9966  -46.7727 H         1 UNK         0.0600 
    183 H183        2.3386   -7.2827  -47.0399 H         1 UNK         0.0600 
    184 H184        0.7883   -8.9396  -48.1454 H         1 UNK         0.3000 
    185 H185       -1.7178   -9.3797  -47.6553 H         1 UNK         0.0600 
    186 H186       -0.5515  -11.5263  -49.5271 H         1 UNK         0.0600 
    187 H187       -2.0229  -10.6241  -49.8668 H         1 UNK         0.0600 
    188 H188       -0.4870   -9.7860  -49.7665 H         1 UNK         0.0600 
    189 H189       -1.7523  -12.1460  -46.8290 H         1 UNK         0.3000 
    190 H190       -1.6878  -22.8604  -43.9250 H         1 UNK         0.3000 
    191 H191       -2.9445  -24.2378  -41.7610 H         1 UNK         0.0600 
    192 H192        0.0187  -24.1516  -42.5292 H         1 UNK         0.0600 
    193 H193       -0.6367  -24.5896  -40.9596 H         1 UNK         0.0600 
    194 H194       -0.8119  -22.9432  -41.5502 H         1 UNK         0.0600 
    195 H195       -1.1466  -25.4088  -44.6312 H         1 UNK         0.3000 
    196 H196       -1.4318  -28.2246  -43.9915 H         1 UNK         0.0600 
    197 H197       -0.6245  -26.7797  -46.5738 H         1 UNK         0.0600 
    198 H198       -0.4280  -28.4995  -46.2593 H         1 UNK         0.0600 
    199 H199        0.4791  -27.3298  -45.3142 H         1 UNK         0.0600 
    200 H200       -3.6050  -25.9316  -45.2032 H         1 UNK         0.3000 
    201 H201       -5.5749  -25.8785  -46.1818 H         1 UNK         0.0600 
    202 H202       -6.2180  -27.6783  -44.5591 H         1 UNK         0.0600 
    203 H203       -5.8099  -28.9025  -45.7612 H         1 UNK         0.0600 
    204 H204       -7.1241  -27.7754  -46.0596 H         1 UNK         0.0600 
    205 H205       -3.2141  -26.1120  -47.7594 H         1 UNK         0.3000 
    206 H206       -4.0220  -27.5278  -50.2526 H         1 UNK         0.0600 
    207 H207       -1.7309  -27.9373  -49.3363 H         1 UNK         0.0600 
    208 H208       -1.6505  -27.1095  -50.8842 H         1 UNK         0.0600 
    209 H209       -1.3853  -26.2100  -49.3947 H         1 UNK         0.0600 
    210 H210       -4.1435  -24.4334  -48.8168 H         1 UNK         0.3000 
    211 H211       -3.3899  -22.6611  -50.7926 H         1 UNK         0.0600 
    212 H212       -5.4438  -22.3636  -48.5518 H         1 UNK         0.0600 
    213 H213       -4.8544  -21.0131  -49.5138 H         1 UNK         0.0600 
    214 H214       -3.7332  -21.9173  -48.5278 H         1 UNK         0.0600 
    215 H215       -6.2467  -24.5771  -50.9292 H         1 UNK         0.3000 
    216 H216       -7.8559  -22.9655  -52.6735 H         1 UNK         0.0600 
    217 H217       -8.9909  -25.1450  -53.1413 H         1 UNK         0.0600 
    218 H218       -8.7623  -24.9074  -51.4162 H         1 UNK         0.0600 
    219 H219       -7.7066  -26.0080  -52.3032 H         1 UNK         0.0600 
    220 H220       -5.0077  -24.9613  -53.1869 H         1 UNK         0.3000 
    221 H221       -5.1115  -24.4770  -56.1467 H         1 UNK         0.0600 
    222 H222       -3.6986  -26.6983  -54.5721 H         1 UNK         0.0600 
    223 H223       -5.1143  -26.8966  -55.6019 H         1 UNK         0.0600 
    224 H224       -3.5739  -26.4319  -56.3081 H         1 UNK         0.0600 
    225 H225       -3.0038  -24.6640  -53.2319 H         1 UNK         0.3000 
    226 H226       -0.7959  -23.2481  -54.5441 H         1 UNK         0.0600 
    227 H227       -0.3812  -25.2161  -53.0743 H         1 UNK         0.0600 
    228 H228        0.3733  -23.7709  -52.4205 H         1 UNK         0.0600 
    229 H229       -1.1188  -24.3759  -51.7131 H         1 UNK         0.0600 
    230 H230       -2.6768  -21.4822  -54.7698 H         1 UNK         0.3000 
    231 H231       -3.1450  -19.7547  -52.5000 H         1 UNK         0.0600 
    232 H232       -4.3745  -18.3945  -54.1687 H         1 UNK         0.0600 
    233 H233       -4.8026  -20.0893  -54.3217 H         1 UNK         0.0600 
    234 H234       -3.7004  -19.3521  -55.4841 H         1 UNK         0.0600 
    235 H235       -0.4713  -19.9773  -52.5414 H         1 UNK         0.3000 
    236 H236        1.0136  -18.1958  -54.1546 H         1 UNK         0.0600 
    237 H237        2.8485  -18.7067  -52.4783 H         1 UNK         0.0600 
    238 H238        2.0380  -20.1372  -53.0951 H         1 UNK         0.0600 
    239 H239        1.6611  -19.5433  -51.4829 H         1 UNK         0.0600 
    240 H240       -0.8198  -17.4871  -51.2883 H         1 UNK         0.3000 
    241 H241        0.5181  -14.9488  -50.7619 H         1 UNK         0.0600 
    242 H242       -2.3033  -14.2683  -53.5515 H         1 UNK         0.3800 
    243 H243       -1.7026  -15.8786  -53.2563 H         1 UNK         0.3800 
    244 H244       -0.8243  -16.5252  -49.0641 H         1 UNK         0.0800 
    245 H245       -2.1973  -15.5836  -49.5632 H         1 UNK         0.0800 
    246 H246        0.3947  -14.5078  -46.1729 H         1 UNK         0.0800 
    247 H247        0.4643  -16.0123  -47.0427 H         1 UNK         0.0800 
@<TRIPOS>BOND
     1    1    2 1    
     2    1  127 1    
     3    1  128 1    
     4    1  129 1    
     5    2    3 2    
     6    2    4 am   BACKBONE|DICT|INTERRES
     7    4    5 1    
     8    4  130 1    
     9    5    6 1    
    10    5   65 1    
    11    5  131 1    
    12    6    7 1    
    13    6  132 1    
    14    6  133 1    
    15    7    8 1    
    16    8    9 1    
    17    8  134 1    
    18    8  135 1    
    19    9   10 ar   
    20    9   14 ar   
    21   10   11 ar   
    22   10  136 1    
    23   11   12 ar   
    24   11  126 1    
    25   12   13 ar   
    26   12  137 1    
    27   13   14 ar   
    28   13   15 1    
    29   14  138 1    
    30   15   16 1    
    31   15  139 1    
    32   15  140 1    
    33   16   17 1    
    34   17   18 1    
    35   17  141 1    
    36   17  142 1    
    37   18   19 1    
    38   18   67 1    
    39   18  143 1    
    40   19   20 am   BACKBONE|DICT|INTERRES
    41   19  144 1    
    42   20   21 2    
    43   20   22 1    
    44   22   23 1    
    45   22   24 1    
    46   22  145 1    
    47   23  146 1    
    48   23  147 1    
    49   23  148 1    
    50   24   25 am   BACKBONE|DICT|INTERRES
    51   24  149 1    
    52   25   26 2    
    53   25   27 1    
    54   27   28 1    
    55   27   29 1    
    56   27  150 1    
    57   28  151 1    
    58   28  152 1    
    59   28  153 1    
    60   29   30 am   BACKBONE|DICT|INTERRES
    61   29  154 1    
    62   30   31 2    
    63   30   32 1    
    64   32   33 1    
    65   32   34 1    
    66   32  155 1    
    67   33  156 1    
    68   33  157 1    
    69   33  158 1    
    70   34   35 am   BACKBONE|DICT|INTERRES
    71   34  159 1    
    72   35   36 2    
    73   35   37 1    
    74   37   38 1    
    75   37   39 1    
    76   37  160 1    
    77   38  161 1    
    78   38  162 1    
    79   38  163 1    
    80   39   40 am   BACKBONE|DICT|INTERRES
    81   39  164 1    
    82   40   41 2    
    83   40   42 1    
    84   42   43 1    
    85   42   44 1    
    86   42  165 1    
    87   43  166 1    
    88   43  167 1    
    89   43  168 1    
    90   44   45 am   BACKBONE|DICT|INTERRES
    91   44  169 1    
    92   45   46 2    
    93   45   47 1    
    94   47   48 1    
    95   47   49 1    
    96   47  170 1    
    97   48  171 1    
    98   48  172 1    
    99   48  173 1    
   100   49   50 am   BACKBONE|DICT|INTERRES
   101   49  174 1    
   102   50   51 2    
   103   50   52 1    
   104   52   53 1    
   105   52   54 1    
   106   52  175 1    
   107   53  176 1    
   108   53  177 1    
   109   53  178 1    
   110   54   55 am   BACKBONE|DICT|INTERRES
   111   54  179 1    
   112   55   56 2    
   113   55   57 1    
   114   57   58 1    
   115   57   59 1    
   116   57  180 1    
   117   58  181 1    
   118   58  182 1    
   119   58  183 1    
   120   59   60 am   BACKBONE|DICT|INTERRES
   121   59  184 1    
   122   60   61 2    
   123   60   62 1    
   124   62   63 1    
   125   62   64 1    
   126   62  185 1    
   127   63  186 1    
   128   63  187 1    
   129   63  188 1    
   130   64   65 am   BACKBONE|DICT|INTERRES
   131   64  189 1    
   132   65   66 2    
   133   67   68 2    
   134   67   69 am   BACKBONE|DICT|INTERRES
   135   69   70 1    
   136   69  190 1    
   137   70   71 1    
   138   70   72 1    
   139   70  191 1    
   140   71  192 1    
   141   71  193 1    
   142   71  194 1    
   143   72   73 2    
   144   72   74 am   BACKBONE|DICT|INTERRES
   145   74   75 1    
   146   74  195 1    
   147   75   76 1    
   148   75   77 1    
   149   75  196 1    
   150   76  197 1    
   151   76  198 1    
   152   76  199 1    
   153   77   78 2    
   154   77   79 am   BACKBONE|DICT|INTERRES
   155   79   80 1    
   156   79  200 1    
   157   80   81 1    
   158   80   82 1    
   159   80  201 1    
   160   81  202 1    
   161   81  203 1    
   162   81  204 1    
   163   82   83 2    
   164   82   84 am   BACKBONE|DICT|INTERRES
   165   84   85 1    
   166   84  205 1    
   167   85   86 1    
   168   85   87 1    
   169   85  206 1    
   170   86  207 1    
   171   86  208 1    
   172   86  209 1    
   173   87   88 2    
   174   87   89 am   BACKBONE|DICT|INTERRES
   175   89   90 1    
   176   89  210 1    
   177   90   91 1    
   178   90   92 1    
   179   90  211 1    
   180   91  212 1    
   181   91  213 1    
   182   91  214 1    
   183   92   93 2    
   184   92   94 am   BACKBONE|DICT|INTERRES
   185   94   95 1    
   186   94  215 1    
   187   95   96 1    
   188   95   97 1    
   189   95  216 1    
   190   96  217 1    
   191   96  218 1    
   192   96  219 1    
   193   97   98 2    
   194   97   99 am   BACKBONE|DICT|INTERRES
   195   99  100 1    
   196   99  220 1    
   197  100  101 1    
   198  100  102 1    
   199  100  221 1    
   200  101  222 1    
   201  101  223 1    
   202  101  224 1    
   203  102  103 2    
   204  102  104 am   BACKBONE|DICT|INTERRES
   205  104  105 1    
   206  104  225 1    
   207  105  106 1    
   208  105  107 1    
   209  105  226 1    
   210  106  227 1    
   211  106  228 1    
   212  106  229 1    
   213  107  108 2    
   214  107  109 am   BACKBONE|DICT|INTERRES
   215  109  110 1    
   216  109  230 1    
   217  110  111 1    
   218  110  112 1    
   219  110  231 1    
   220  111  232 1    
   221  111  233 1    
   222  111  234 1    
   223  112  113 2    
   224  112  114 am   BACKBONE|DICT|INTERRES
   225  114  115 1    
   226  114  235 1    
   227  115  116 1    
   228  115  117 1    
   229  115  236 1    
   230  116  237 1    
   231  116  238 1    
   232  116  239 1    
   233  117  118 2    
   234  117  119 am   BACKBONE|DICT|INTERRES
   235  119  120 1    
   236  119  240 1    
   237  120  121 1    
   238  120  124 1    
   239  120  241 1    
   240  121  122 am   BACKBONE|DICT|INTERRES
   241  121  123 2    
   242  122  242 1    
   243  122  243 1    
   244  124  125 1    
   245  124  244 1    
   246  124  245 1    
   247  125  126 1    
   248  126  246 1    
   249  126  247 1    
@<TRIPOS>SUBSTRUCTURE
     1 UNK         1 GROUP             0       ****    0 ROOT    
