@<TRIPOS>MOLECULE
3R540
247   249    1
SMALL
USER_CHARGES


@<TRIPOS>ATOM
      1 CA          4.5373  -11.2561  -51.8488 C.3       0 UNK        -0.1800 
      2 C           3.7207  -11.7418  -50.6595 C.2       0 UNK         0.5000 
      3 O           2.5042  -11.8918  -50.7765 O.2       0 UNK        -0.5000 
      4 N           4.3895  -11.9970  -49.5264 N.am      1 UNK        -0.5000 
      5 CA          3.8104  -12.4455  -48.2512 C.3       1 UNK         0.1400 
      6 C6          3.1807  -13.8707  -48.3187 C.3       23 UNK        -0.0398 
      7 S7          4.3420  -15.1541  -48.9010 S.3       23 UNK        -0.2404 
      8 C8          3.7181  -15.5038  -50.5766 C.3       23 UNK        -0.0205 
      9 C9          2.6010  -16.5376  -50.5802 C.ar      23 UNK        -0.0193 
     10 C10         1.2664  -16.1445  -50.4388 C.ar      23 UNK        -0.1150 
     11 C11         0.2390  -17.0907  -50.4812 C.ar      23 UNK        -0.0193 
     12 C12         0.5534  -18.4343  -50.6997 C.ar      23 UNK        -0.1150 
     13 C13         1.8824  -18.8435  -50.8403 C.ar      23 UNK        -0.0193 
     14 C14         2.9021  -17.8902  -50.7679 C.ar      23 UNK        -0.1150 
     15 C15         2.2156  -20.3059  -51.1076 C.3       23 UNK        -0.0205 
     16 S16         2.2372  -21.3086  -49.5864 S.3       23 UNK        -0.2404 
     17 C17         0.4570  -21.4006  -49.2090 C.3       23 UNK        -0.0398 
     18 CA          0.0915  -22.5516  -48.2462 C.3       11 UNK         0.1400 
     19 N           0.6115  -22.3476  -46.8907 N.am      11 UNK        -0.5000 
     20 C           0.5132  -23.2411  -45.8954 C.2       10 UNK         0.5000 
     21 O           0.0308  -24.3663  -46.0290 O.2       10 UNK        -0.5000 
     22 CA          0.9773  -22.7845  -44.5015 C.3       10 UNK         0.1400 
     23 CB          2.5056  -22.8678  -44.3751 C.3       10 UNK        -0.1800 
     24 N           0.5176  -21.4342  -44.1720 N.am      10 UNK        -0.5000 
     25 C          -0.7705  -21.0860  -44.0350 C.2       9 UNK         0.5000 
     26 O          -1.7047  -21.8812  -44.1292 O.2       9 UNK        -0.5000 
     27 CA         -1.0757  -19.5961  -43.7956 C.3       9 UNK         0.1400 
     28 CB         -0.8539  -19.2192  -42.3236 C.3       9 UNK        -0.1800 
     29 N          -0.2892  -18.7123  -44.6546 N.am      9 UNK        -0.5000 
     30 C          -0.3603  -18.6890  -45.9934 C.2       8 UNK         0.5000 
     31 O          -1.1351  -19.3816  -46.6526 O.2       8 UNK        -0.5000 
     32 CA          0.6416  -17.7771  -46.7211 C.3       8 UNK         0.1400 
     33 CB          0.1481  -16.3239  -46.7394 C.3       8 UNK        -0.1800 
     34 N           1.9785  -17.8361  -46.1309 N.am      8 UNK        -0.5000 
     35 C           2.7443  -18.9360  -46.1061 C.2       7 UNK         0.5000 
     36 O           2.4020  -20.0224  -46.5691 O.2       7 UNK        -0.5000 
     37 CA          4.0944  -18.8115  -45.3808 C.3       7 UNK         0.1400 
     38 CB          5.0938  -17.9978  -46.2177 C.3       7 UNK        -0.1800 
     39 N           3.9524  -18.2030  -44.0577 N.am      7 UNK        -0.5000 
     40 C           3.2687  -18.7465  -43.0399 C.2       6 UNK         0.5000 
     41 O           2.7225  -19.8474  -43.0902 O.2       6 UNK        -0.5000 
     42 CA          3.1343  -17.8953  -41.7644 C.3       6 UNK         0.1400 
     43 CB          4.3348  -18.1225  -40.8337 C.3       6 UNK        -0.1800 
     44 N           2.9948  -16.4629  -42.0390 N.am      6 UNK        -0.5000 
     45 C           1.9765  -15.9142  -42.7140 C.2       5 UNK         0.5000 
     46 O           1.0526  -16.5614  -43.2121 O.2       5 UNK        -0.5000 
     47 CA          2.0384  -14.3919  -42.9178 C.3       5 UNK         0.1400 
     48 CB          2.6758  -14.0747  -44.2784 C.3       5 UNK        -0.1800 
     49 N           0.7104  -13.7796  -42.8358 N.am      5 UNK        -0.5000 
     50 C           0.0173  -13.6569  -41.6922 C.2       4 UNK         0.5000 
     51 O           0.4561  -14.0263  -40.6012 O.2       4 UNK        -0.5000 
     52 CA         -1.3758  -12.9948  -41.7444 C.3       4 UNK         0.1400 
     53 CB         -1.4791  -11.8498  -40.7213 C.3       4 UNK        -0.1800 
     54 N          -1.6941  -12.4539  -43.0654 N.am      4 UNK        -0.5000 
     55 C          -2.5680  -12.9798  -43.9329 C.2       3 UNK         0.5000 
     56 O          -3.2329  -13.9921  -43.7111 O.2       3 UNK        -0.5000 
     57 CA         -2.7225  -12.2519  -45.2861 C.3       3 UNK         0.1400 
     58 CB         -3.9576  -11.3381  -45.2646 C.3       3 UNK        -0.1800 
     59 N          -1.5505  -11.4597  -45.6822 N.am      3 UNK        -0.5000 
     60 C          -0.3426  -11.9777  -45.9322 C.2       2 UNK         0.5000 
     61 O          -0.0823  -13.1784  -45.8177 O.2       2 UNK        -0.5000 
     62 CA          0.7719  -11.0004  -46.3275 C.3       2 UNK         0.1400 
     63 CB          1.2850  -10.2272  -45.0974 C.3       2 UNK        -0.1800 
     64 N           1.8383  -11.8003  -46.9156 N.am      2 UNK        -0.5000 
     65 C           2.8609  -11.3695  -47.6592 C.2       1 UNK         0.5000 
     66 O           3.0804  -10.1738  -47.8722 O.2       1 UNK        -0.5000 
     67 C          -1.4344  -22.7700  -48.2411 C.2       11 UNK         0.5000 
     68 O          -1.9051  -23.7217  -48.8617 O.2       11 UNK        -0.5000 
     69 N          -2.1758  -21.9136  -47.5228 N.am      12 UNK        -0.5000 
     70 CA         -3.6285  -22.0048  -47.3710 C.3       12 UNK         0.1400 
     71 CB         -4.1559  -20.7674  -46.6316 C.3       12 UNK        -0.1800 
     72 C          -4.0828  -23.2979  -46.6743 C.2       12 UNK         0.5000 
     73 O          -5.0589  -23.9046  -47.1148 O.2       12 UNK        -0.5000 
     74 N          -3.3534  -23.7174  -45.6315 N.am      13 UNK        -0.5000 
     75 CA         -3.5726  -24.9771  -44.9221 C.3       13 UNK         0.1400 
     76 CB         -2.6911  -25.0278  -43.6652 C.3       13 UNK        -0.1800 
     77 C          -3.3282  -26.2041  -45.8181 C.2       13 UNK         0.5000 
     78 O          -4.1673  -27.1047  -45.8494 O.2       13 UNK        -0.5000 
     79 N          -2.2126  -26.1981  -46.5625 N.am      14 UNK        -0.5000 
     80 CA         -1.8446  -27.2446  -47.5202 C.3       14 UNK         0.1400 
     81 CB         -0.4161  -26.9942  -48.0267 C.3       14 UNK        -0.1800 
     82 C          -2.8282  -27.3554  -48.7008 C.2       14 UNK         0.5000 
     83 O          -3.1387  -28.4653  -49.1345 O.2       14 UNK        -0.5000 
     84 N          -3.3211  -26.2052  -49.1767 N.am      15 UNK        -0.5000 
     85 CA         -4.3132  -26.0886  -50.2456 C.3       15 UNK         0.1400 
     86 CB         -4.2023  -24.6852  -50.8592 C.3       15 UNK        -0.1800 
     87 C          -5.7596  -26.3645  -49.7876 C.2       15 UNK         0.5000 
     88 O          -6.6520  -26.3884  -50.6344 O.2       15 UNK        -0.5000 
     89 N          -5.9758  -26.5420  -48.4755 N.am      16 UNK        -0.5000 
     90 CA         -7.2629  -26.7658  -47.8090 C.3       16 UNK         0.1400 
     91 CB         -7.8559  -28.1340  -48.2057 C.3       16 UNK        -0.1800 
     92 C          -8.2463  -25.5917  -48.0066 C.2       16 UNK         0.5000 
     93 O          -9.4215  -25.8054  -48.3104 O.2       16 UNK        -0.5000 
     94 N          -7.7281  -24.3681  -47.8277 N.am      17 UNK        -0.5000 
     95 CA         -8.4189  -23.0773  -47.9212 C.3       17 UNK         0.1400 
     96 CB         -9.5175  -22.9568  -46.8437 C.3       17 UNK        -0.1800 
     97 C          -8.9203  -22.7290  -49.3400 C.2       17 UNK         0.5000 
     98 O          -9.8862  -21.9757  -49.4813 O.2       17 UNK        -0.5000 
     99 N          -8.2407  -23.2569  -50.3671 N.am      18 UNK        -0.5000 
    100 CA        -8.4336  -22.8990  -51.7739 C.3       18 UNK         0.1400 
    101 CB        -8.0504  -24.1066  -52.6498 C.3       18 UNK        -0.1800 
    102 C         -7.6482  -21.6171  -52.1404 C.2       18 UNK         0.5000 
    103 O         -7.2929  -20.8324  -51.2577 O.2       18 UNK        -0.5000 
    104 N         -7.3872  -21.4190  -53.4417 N.am      19 UNK        -0.5000 
    105 CA        -6.6742  -20.2611  -53.9987 C.3       19 UNK         0.1400 
    106 CB        -6.7392  -20.3247  -55.5325 C.3       19 UNK        -0.1800 
    107 C         -5.2100  -20.1280  -53.5297 C.2       19 UNK         0.5000 
    108 O         -4.6815  -19.0169  -53.5149 O.2       19 UNK        -0.5000 
    109 N         -4.5914  -21.2609  -53.1627 N.am      20 UNK        -0.5000 
    110 CA        -3.2934  -21.4052  -52.4883 C.3       20 UNK         0.1400 
    111 CB        -3.3488  -20.7680  -51.0857 C.3       20 UNK        -0.1800 
    112 C         -2.0529  -20.9501  -53.2864 C.2       20 UNK         0.5000 
    113 O         -0.9533  -20.9752  -52.7350 O.2       20 UNK        -0.5000 
    114 N         -2.2343  -20.5921  -54.5667 N.am      21 UNK        -0.5000 
    115 CA        -1.2059  -20.1719  -55.5266 C.3       21 UNK         0.1400 
    116 CB        -0.2969  -21.3627  -55.8982 C.3       21 UNK        -0.1800 
    117 C         -0.4129  -18.9257  -55.0723 C.2       21 UNK         0.5000 
    118 O          0.8048  -18.8662  -55.2538 O.2       21 UNK        -0.5000 
    119 N         -1.1238  -17.9509  -54.4902 N.am      22 UNK        -0.5000 
    120 CA        -0.5544  -16.7049  -53.9435 C.3       22 UNK         0.1400 
    121 C          0.0110  -15.7100  -55.0011 C.2       22 UNK         0.5000 
    122 N         -0.2847  -15.8609  -56.2866 N.am      22 UNK        -0.7600 
    123 O          0.7323  -14.7815  -54.6478 O.2       22 UNK        -0.5000 
    124 C124       -1.5478  -15.9707  -53.0042 C.3       23 UNK        -0.0398 
    125 S125       -2.2616  -17.0421  -51.7112 S.3       23 UNK        -0.2404 
    126 C126       -1.2082  -16.6656  -50.2762 C.3       23 UNK        -0.0205 
    127 H127        5.5985  -11.1815  -51.6097 H         1 UNK         0.0600 
    128 H128        4.1899  -10.2727  -52.1657 H         1 UNK         0.0600 
    129 H129        4.4254  -11.9450  -52.6862 H         1 UNK         0.0600 
    130 H130        5.3855  -11.8310  -49.5037 H         1 UNK         0.3000 
    131 H131        4.6474  -12.4985  -47.5535 H         1 UNK         0.0600 
    132 H132        2.2865  -13.8636  -48.9400 H         1 UNK         0.0800 
    133 H133        2.8596  -14.1949  -47.3296 H         1 UNK         0.0800 
    134 H134        3.3780  -14.5857  -51.0550 H         1 UNK         0.0800 
    135 H135        4.5499  -15.8629  -51.1843 H         1 UNK         0.0800 
    136 H136        1.0241  -15.1011  -50.3020 H         1 UNK         0.1150 
    137 H137       -0.2445  -19.1596  -50.7687 H         1 UNK         0.1150 
    138 H138        3.9321  -18.1982  -50.8811 H         1 UNK         0.1150 
    139 H139        1.5060  -20.7263  -51.8208 H         1 UNK         0.0800 
    140 H140        3.1940  -20.3816  -51.5839 H         1 UNK         0.0800 
    141 H141       -0.0711  -21.5213  -50.1567 H         1 UNK         0.0800 
    142 H142        0.1389  -20.4448  -48.7917 H         1 UNK         0.0800 
    143 H143        0.5419  -23.4694  -48.6304 H         1 UNK         0.0600 
    144 H144        1.0755  -21.4608  -46.7121 H         1 UNK         0.3000 
    145 H145        0.5430  -23.4689  -43.7698 H         1 UNK         0.0600 
    146 H146        2.8631  -23.8703  -44.6132 H         1 UNK         0.0600 
    147 H147        3.0062  -22.1717  -45.0483 H         1 UNK         0.0600 
    148 H148        2.8287  -22.6403  -43.3593 H         1 UNK         0.0600 
    149 H149        1.2378  -20.7309  -44.0377 H         1 UNK         0.3000 
    150 H150       -2.1290  -19.4315  -44.0312 H         1 UNK         0.0600 
    151 H151       -1.1236  -18.1793  -42.1377 H         1 UNK         0.0600 
    152 H152        0.1860  -19.3530  -42.0264 H         1 UNK         0.0600 
    153 H153       -1.4658  -19.8380  -41.6663 H         1 UNK         0.0600 
    154 H154        0.3442  -18.0683  -44.1884 H         1 UNK         0.3000 
    155 H155        0.7192  -18.1254  -47.7527 H         1 UNK         0.0600 
    156 H156       -0.8457  -16.2529  -47.1819 H         1 UNK         0.0600 
    157 H157        0.8096  -15.6887  -47.3278 H         1 UNK         0.0600 
    158 H158        0.0852  -15.9074  -45.7337 H         1 UNK         0.0600 
    159 H159        2.3117  -17.0015  -45.6751 H         1 UNK         0.3000 
    160 H160        4.4973  -19.8182  -45.2501 H         1 UNK         0.0600 
    161 H161        5.2008  -18.4208  -47.2177 H         1 UNK         0.0600 
    162 H162        6.0824  -17.9956  -45.7585 H         1 UNK         0.0600 
    163 H163        4.7761  -16.9610  -46.3342 H         1 UNK         0.0600 
    164 H164        4.3714  -17.2952  -43.9236 H         1 UNK         0.3000 
    165 H165        2.2330  -18.2227  -41.2424 H         1 UNK         0.0600 
    166 H166        4.2081  -17.5922  -39.8896 H         1 UNK         0.0600 
    167 H167        4.4495  -19.1812  -40.5970 H         1 UNK         0.0600 
    168 H168        5.2674  -17.7846  -41.2872 H         1 UNK         0.0600 
    169 H169        3.7184  -15.8632  -41.6694 H         1 UNK         0.3000 
    170 H170        2.6642  -13.9545  -42.1368 H         1 UNK         0.0600 
    171 H171        2.7567  -13.0003  -44.4368 H         1 UNK         0.0600 
    172 H172        3.6837  -14.4861  -44.3456 H         1 UNK         0.0600 
    173 H173        2.0955  -14.4986  -45.0969 H         1 UNK         0.0600 
    174 H174        0.2670  -13.5373  -43.7132 H         1 UNK         0.3000 
    175 H175       -2.0995  -13.7626  -41.4639 H         1 UNK         0.0600 
    176 H176       -0.7461  -11.0666  -40.9187 H         1 UNK         0.0600 
    177 H177       -2.4695  -11.3944  -40.7395 H         1 UNK         0.0600 
    178 H178       -1.3105  -12.2101  -39.7057 H         1 UNK         0.0600 
    179 H179       -1.1960  -11.6199  -43.3396 H         1 UNK         0.3000 
    180 H180       -2.8783  -13.0184  -46.0482 H         1 UNK         0.0600 
    181 H181       -4.1331  -10.8878  -46.2418 H         1 UNK         0.0600 
    182 H182       -3.8493  -10.5330  -44.5367 H         1 UNK         0.0600 
    183 H183       -4.8553  -11.8995  -45.0019 H         1 UNK         0.0600 
    184 H184       -1.6925  -10.4648  -45.7835 H         1 UNK         0.3000 
    185 H185        0.3867  -10.3063  -47.0770 H         1 UNK         0.0600 
    186 H186        1.6432  -10.8988  -44.3168 H         1 UNK         0.0600 
    187 H187        2.1022   -9.5554  -45.3595 H         1 UNK         0.0600 
    188 H188        0.4949   -9.6137  -44.6632 H         1 UNK         0.0600 
    189 H189        1.6813  -12.7921  -46.7842 H         1 UNK         0.3000 
    190 H190       -1.7219  -21.1262  -47.0654 H         1 UNK         0.3000 
    191 H191       -4.0650  -22.0097  -48.3703 H         1 UNK         0.0600 
    192 H192       -3.7286  -20.6830  -45.6323 H         1 UNK         0.0600 
    193 H193       -5.2406  -20.8084  -46.5245 H         1 UNK         0.0600 
    194 H194       -3.9168  -19.8535  -47.1758 H         1 UNK         0.0600 
    195 H195       -2.5997  -23.1267  -45.2903 H         1 UNK         0.3000 
    196 H196       -4.6167  -25.0017  -44.6030 H         1 UNK         0.0600 
    197 H197       -2.8474  -25.9564  -43.1150 H         1 UNK         0.0600 
    198 H198       -2.9241  -24.2054  -42.9886 H         1 UNK         0.0600 
    199 H199       -1.6310  -24.9656  -43.9118 H         1 UNK         0.0600 
    200 H200       -1.5574  -25.4275  -46.4601 H         1 UNK         0.3000 
    201 H201       -1.8549  -28.1993  -46.9905 H         1 UNK         0.0600 
    202 H202        0.2995  -26.9987  -47.2043 H         1 UNK         0.0600 
    203 H203       -0.3326  -26.0335  -48.5359 H         1 UNK         0.0600 
    204 H204       -0.1084  -27.7684  -48.7305 H         1 UNK         0.0600 
    205 H205       -2.9526  -25.3309  -48.8106 H         1 UNK         0.3000 
    206 H206       -4.0741  -26.8177  -51.0224 H         1 UNK         0.0600 
    207 H207       -4.8531  -24.5796  -51.7263 H         1 UNK         0.0600 
    208 H208       -4.4724  -23.9086  -50.1423 H         1 UNK         0.0600 
    209 H209       -3.1838  -24.4932  -51.1956 H         1 UNK         0.0600 
    210 H210       -5.1769  -26.4746  -47.8581 H         1 UNK         0.3000 
    211 H211       -7.0462  -26.8016  -46.7404 H         1 UNK         0.0600 
    212 H212       -8.1455  -28.1634  -49.2565 H         1 UNK         0.0600 
    213 H213       -8.7451  -28.3592  -47.6159 H         1 UNK         0.0600 
    214 H214       -7.1401  -28.9376  -48.0323 H         1 UNK         0.0600 
    215 H215       -6.7381  -24.3043  -47.5896 H         1 UNK         0.3000 
    216 H216       -7.6610  -22.3271  -47.6907 H         1 UNK         0.0600 
    217 H217       -9.9132  -21.9415  -46.7998 H         1 UNK         0.0600 
    218 H218       -9.1265  -23.1928  -45.8540 H         1 UNK         0.0600 
    219 H219      -10.3561  -23.6244  -47.0424 H         1 UNK         0.0600 
    220 H220       -7.4736  -23.8798  -50.1613 H         1 UNK         0.3000 
    221 H221       -9.4912  -22.6880  -51.9441 H         1 UNK         0.0600 
    222 H222       -6.9786  -24.3000  -52.6275 H         1 UNK         0.0600 
    223 H223       -8.5559  -25.0115  -52.3110 H         1 UNK         0.0600 
    224 H224       -8.3399  -23.9563  -53.6901 H         1 UNK         0.0600 
    225 H225       -7.7142  -22.1034  -54.1082 H         1 UNK         0.3000 
    226 H226       -7.1996  -19.3613  -53.6720 H         1 UNK         0.0600 
    227 H227       -7.7710  -20.3203  -55.8845 H         1 UNK         0.0600 
    228 H228       -6.2419  -19.4638  -55.9815 H         1 UNK         0.0600 
    229 H229       -6.2554  -21.2224  -55.9196 H         1 UNK         0.0600 
    230 H230       -5.1161  -22.1167  -53.2690 H         1 UNK         0.3000 
    231 H231       -3.1563  -22.4765  -52.3510 H         1 UNK         0.0600 
    232 H232       -3.4393  -19.6839  -51.1379 H         1 UNK         0.0600 
    233 H233       -4.2026  -21.1433  -50.5229 H         1 UNK         0.0600 
    234 H234       -2.4521  -20.9933  -50.5094 H         1 UNK         0.0600 
    235 H235       -3.1841  -20.5858  -54.9089 H         1 UNK         0.3000 
    236 H236       -1.7382  -19.8743  -56.4310 H         1 UNK         0.0600 
    237 H237        0.3102  -21.6877  -55.0527 H         1 UNK         0.0600 
    238 H238       -0.8839  -22.2163  -56.2372 H         1 UNK         0.0600 
    239 H239        0.3846  -21.0978  -56.7073 H         1 UNK         0.0600 
    240 H240       -2.1128  -18.0926  -54.3374 H         1 UNK         0.3000 
    241 H241        0.3044  -17.0000  -53.3383 H         1 UNK         0.0600 
    242 H242        0.0894  -15.2124  -56.9617 H         1 UNK         0.3800 
    243 H243       -0.8747  -16.6179  -56.5919 H         1 UNK         0.3800 
    244 H244       -1.0642  -15.1165  -52.5266 H         1 UNK         0.0800 
    245 H245       -2.3771  -15.5619  -53.5838 H         1 UNK         0.0800 
    246 H246       -1.6057  -17.1933  -49.4081 H         1 UNK         0.0800 
    247 H247       -1.2777  -15.6012  -50.0468 H         1 UNK         0.0800 
@<TRIPOS>BOND
     1    1    2 1    
     2    1  127 1    
     3    1  128 1    
     4    1  129 1    
     5    2    3 2    
     6    2    4 am   BACKBONE|DICT|INTERRES
     7    4    5 1    
     8    4  130 1    
     9    5    6 1    
    10    5   65 1    
    11    5  131 1    
    12    6    7 1    
    13    6  132 1    
    14    6  133 1    
    15    7    8 1    
    16    8    9 1    
    17    8  134 1    
    18    8  135 1    
    19    9   10 ar   
    20    9   14 ar   
    21   10   11 ar   
    22   10  136 1    
    23   11   12 ar   
    24   11  126 1    
    25   12   13 ar   
    26   12  137 1    
    27   13   14 ar   
    28   13   15 1    
    29   14  138 1    
    30   15   16 1    
    31   15  139 1    
    32   15  140 1    
    33   16   17 1    
    34   17   18 1    
    35   17  141 1    
    36   17  142 1    
    37   18   19 1    
    38   18   67 1    
    39   18  143 1    
    40   19   20 am   BACKBONE|DICT|INTERRES
    41   19  144 1    
    42   20   21 2    
    43   20   22 1    
    44   22   23 1    
    45   22   24 1    
    46   22  145 1    
    47   23  146 1    
    48   23  147 1    
    49   23  148 1    
    50   24   25 am   BACKBONE|DICT|INTERRES
    51   24  149 1    
    52   25   26 2    
    53   25   27 1    
    54   27   28 1    
    55   27   29 1    
    56   27  150 1    
    57   28  151 1    
    58   28  152 1    
    59   28  153 1    
    60   29   30 am   BACKBONE|DICT|INTERRES
    61   29  154 1    
    62   30   31 2    
    63   30   32 1    
    64   32   33 1    
    65   32   34 1    
    66   32  155 1    
    67   33  156 1    
    68   33  157 1    
    69   33  158 1    
    70   34   35 am   BACKBONE|DICT|INTERRES
    71   34  159 1    
    72   35   36 2    
    73   35   37 1    
    74   37   38 1    
    75   37   39 1    
    76   37  160 1    
    77   38  161 1    
    78   38  162 1    
    79   38  163 1    
    80   39   40 am   BACKBONE|DICT|INTERRES
    81   39  164 1    
    82   40   41 2    
    83   40   42 1    
    84   42   43 1    
    85   42   44 1    
    86   42  165 1    
    87   43  166 1    
    88   43  167 1    
    89   43  168 1    
    90   44   45 am   BACKBONE|DICT|INTERRES
    91   44  169 1    
    92   45   46 2    
    93   45   47 1    
    94   47   48 1    
    95   47   49 1    
    96   47  170 1    
    97   48  171 1    
    98   48  172 1    
    99   48  173 1    
   100   49   50 am   BACKBONE|DICT|INTERRES
   101   49  174 1    
   102   50   51 2    
   103   50   52 1    
   104   52   53 1    
   105   52   54 1    
   106   52  175 1    
   107   53  176 1    
   108   53  177 1    
   109   53  178 1    
   110   54   55 am   BACKBONE|DICT|INTERRES
   111   54  179 1    
   112   55   56 2    
   113   55   57 1    
   114   57   58 1    
   115   57   59 1    
   116   57  180 1    
   117   58  181 1    
   118   58  182 1    
   119   58  183 1    
   120   59   60 am   BACKBONE|DICT|INTERRES
   121   59  184 1    
   122   60   61 2    
   123   60   62 1    
   124   62   63 1    
   125   62   64 1    
   126   62  185 1    
   127   63  186 1    
   128   63  187 1    
   129   63  188 1    
   130   64   65 am   BACKBONE|DICT|INTERRES
   131   64  189 1    
   132   65   66 2    
   133   67   68 2    
   134   67   69 am   BACKBONE|DICT|INTERRES
   135   69   70 1    
   136   69  190 1    
   137   70   71 1    
   138   70   72 1    
   139   70  191 1    
   140   71  192 1    
   141   71  193 1    
   142   71  194 1    
   143   72   73 2    
   144   72   74 am   BACKBONE|DICT|INTERRES
   145   74   75 1    
   146   74  195 1    
   147   75   76 1    
   148   75   77 1    
   149   75  196 1    
   150   76  197 1    
   151   76  198 1    
   152   76  199 1    
   153   77   78 2    
   154   77   79 am   BACKBONE|DICT|INTERRES
   155   79   80 1    
   156   79  200 1    
   157   80   81 1    
   158   80   82 1    
   159   80  201 1    
   160   81  202 1    
   161   81  203 1    
   162   81  204 1    
   163   82   83 2    
   164   82   84 am   BACKBONE|DICT|INTERRES
   165   84   85 1    
   166   84  205 1    
   167   85   86 1    
   168   85   87 1    
   169   85  206 1    
   170   86  207 1    
   171   86  208 1    
   172   86  209 1    
   173   87   88 2    
   174   87   89 am   BACKBONE|DICT|INTERRES
   175   89   90 1    
   176   89  210 1    
   177   90   91 1    
   178   90   92 1    
   179   90  211 1    
   180   91  212 1    
   181   91  213 1    
   182   91  214 1    
   183   92   93 2    
   184   92   94 am   BACKBONE|DICT|INTERRES
   185   94   95 1    
   186   94  215 1    
   187   95   96 1    
   188   95   97 1    
   189   95  216 1    
   190   96  217 1    
   191   96  218 1    
   192   96  219 1    
   193   97   98 2    
   194   97   99 am   BACKBONE|DICT|INTERRES
   195   99  100 1    
   196   99  220 1    
   197  100  101 1    
   198  100  102 1    
   199  100  221 1    
   200  101  222 1    
   201  101  223 1    
   202  101  224 1    
   203  102  103 2    
   204  102  104 am   BACKBONE|DICT|INTERRES
   205  104  105 1    
   206  104  225 1    
   207  105  106 1    
   208  105  107 1    
   209  105  226 1    
   210  106  227 1    
   211  106  228 1    
   212  106  229 1    
   213  107  108 2    
   214  107  109 am   BACKBONE|DICT|INTERRES
   215  109  110 1    
   216  109  230 1    
   217  110  111 1    
   218  110  112 1    
   219  110  231 1    
   220  111  232 1    
   221  111  233 1    
   222  111  234 1    
   223  112  113 2    
   224  112  114 am   BACKBONE|DICT|INTERRES
   225  114  115 1    
   226  114  235 1    
   227  115  116 1    
   228  115  117 1    
   229  115  236 1    
   230  116  237 1    
   231  116  238 1    
   232  116  239 1    
   233  117  118 2    
   234  117  119 am   BACKBONE|DICT|INTERRES
   235  119  120 1    
   236  119  240 1    
   237  120  121 1    
   238  120  124 1    
   239  120  241 1    
   240  121  122 am   BACKBONE|DICT|INTERRES
   241  121  123 2    
   242  122  242 1    
   243  122  243 1    
   244  124  125 1    
   245  124  244 1    
   246  124  245 1    
   247  125  126 1    
   248  126  246 1    
   249  126  247 1    
@<TRIPOS>SUBSTRUCTURE
     1 UNK         1 GROUP             0       ****    0 ROOT    
