@<TRIPOS>MOLECULE
3R540
247   249    1
SMALL
USER_CHARGES


@<TRIPOS>ATOM
      1 CA         -1.2361  -18.3794  -50.8724 C.3       0 UNK        -0.1800 
      2 C          -0.9986  -16.9476  -50.4126 C.2       0 UNK         0.5000 
      3 O          -1.2848  -16.0082  -51.1521 O.2       0 UNK        -0.5000 
      4 N          -0.4782  -16.7702  -49.1904 N.am      1 UNK        -0.5000 
      5 CA         -0.1119  -15.4631  -48.6275 C.3       1 UNK         0.1400 
      6 C6          0.9373  -15.5607  -47.4894 C.3       23 UNK        -0.0398 
      7 S7          2.3716  -16.6602  -47.7449 S.3       23 UNK        -0.2404 
      8 C8          2.9917  -16.2443  -49.4111 C.3       23 UNK        -0.0205 
      9 C9          2.6458  -17.2819  -50.4779 C.ar      23 UNK        -0.0193 
     10 C10         2.4160  -16.8708  -51.7940 C.ar      23 UNK        -0.1150 
     11 C11         2.1438  -17.8078  -52.7953 C.ar      23 UNK        -0.0193 
     12 C12         2.1057  -19.1680  -52.4762 C.ar      23 UNK        -0.1150 
     13 C13         2.3363  -19.5994  -51.1672 C.ar      23 UNK        -0.0193 
     14 C14         2.6034  -18.6490  -50.1771 C.ar      23 UNK        -0.1150 
     15 C15         2.2823  -21.0879  -50.8350 C.3       23 UNK        -0.0205 
     16 S16         3.7845  -21.6777  -49.9825 S.3       23 UNK        -0.2404 
     17 C17         3.3120  -21.4852  -48.2262 C.3       23 UNK        -0.0398 
     18 CA          3.3944  -22.7985  -47.4111 C.3       11 UNK         0.1400 
     19 N           3.1421  -22.5462  -45.9923 N.am      11 UNK        -0.5000 
     20 C           3.4310  -23.3891  -44.9914 C.2       10 UNK         0.5000 
     21 O           3.9970  -24.4716  -45.1446 O.2       10 UNK        -0.5000 
     22 CA          3.0011  -22.9501  -43.5807 C.3       10 UNK         0.1400 
     23 CB          4.0184  -21.9744  -42.9694 C.3       10 UNK        -0.1800 
     24 N           1.6702  -22.3421  -43.6017 N.am      10 UNK        -0.5000 
     25 C           0.5348  -23.0520  -43.6609 C.2       9 UNK         0.5000 
     26 O           0.5045  -24.2772  -43.5513 O.2       9 UNK        -0.5000 
     27 CA         -0.7878  -22.2839  -43.8571 C.3       9 UNK         0.1400 
     28 CB         -1.5432  -22.1806  -42.5235 C.3       9 UNK        -0.1800 
     29 N          -0.6206  -20.9420  -44.4194 N.am      9 UNK        -0.5000 
     30 C          -0.2554  -20.6781  -45.6818 C.2       8 UNK         0.5000 
     31 O          -0.0184  -21.5385  -46.5250 O.2       8 UNK        -0.5000 
     32 CA         -0.0602  -19.1986  -46.0529 C.3       8 UNK         0.1400 
     33 CB         -1.4127  -18.5002  -46.2603 C.3       8 UNK        -0.1800 
     34 N           0.7278  -18.4811  -45.0527 N.am      8 UNK        -0.5000 
     35 C           1.9907  -18.7885  -44.7209 C.2       7 UNK         0.5000 
     36 O           2.6301  -19.7057  -45.2386 O.2       7 UNK        -0.5000 
     37 CA          2.6205  -17.9701  -43.5830 C.3       7 UNK         0.1400 
     38 CB          3.1769  -16.6366  -44.1041 C.3       7 UNK        -0.1800 
     39 N           1.6521  -17.7197  -42.5159 N.am      7 UNK        -0.5000 
     40 C           1.2814  -18.6349  -41.6090 C.2       6 UNK         0.5000 
     41 O           1.7683  -19.7626  -41.5389 O.2       6 UNK        -0.5000 
     42 CA          0.1574  -18.2351  -40.6341 C.3       6 UNK         0.1400 
     43 CB          0.7353  -17.5053  -39.4125 C.3       6 UNK        -0.1800 
     44 N          -0.8696  -17.3978  -41.2561 N.am      6 UNK        -0.5000 
     45 C          -1.6925  -17.8091  -42.2304 C.2       5 UNK         0.5000 
     46 O          -1.6888  -18.9492  -42.6902 O.2       5 UNK        -0.5000 
     47 CA         -2.6436  -16.7585  -42.8299 C.3       5 UNK         0.1400 
     48 CB         -3.9659  -16.7174  -42.0516 C.3       5 UNK        -0.1800 
     49 N          -2.0788  -15.4092  -42.9005 N.am      5 UNK        -0.5000 
     50 C          -0.9617  -15.0660  -43.5550 C.2       4 UNK         0.5000 
     51 O          -0.2091  -15.8826  -44.0884 O.2       4 UNK        -0.5000 
     52 CA         -0.6738  -13.5555  -43.6537 C.3       4 UNK         0.1400 
     53 CB          0.6949  -13.2449  -44.2813 C.3       4 UNK        -0.1800 
     54 N          -1.7197  -12.9063  -44.4424 N.am      4 UNK        -0.5000 
     55 C          -2.9130  -12.5311  -43.9623 C.2       3 UNK         0.5000 
     56 O          -3.2112  -12.5829  -42.7680 O.2       3 UNK        -0.5000 
     57 CA         -3.9690  -12.0776  -44.9870 C.3       3 UNK         0.1400 
     58 CB         -3.9121  -10.5551  -45.1818 C.3       3 UNK        -0.1800 
     59 N          -3.8462  -12.7329  -46.2916 N.am      3 UNK        -0.5000 
     60 C          -3.9601  -14.0495  -46.5220 C.2       2 UNK         0.5000 
     61 O          -4.1693  -14.8851  -45.6421 O.2       2 UNK        -0.5000 
     62 CA         -3.8359  -14.5183  -47.9844 C.3       2 UNK         0.1400 
     63 CB         -4.1168  -13.4090  -49.0245 C.3       2 UNK        -0.1800 
     64 N          -2.5513  -15.1637  -48.2639 N.am      2 UNK        -0.5000 
     65 C          -1.3269  -14.6206  -48.1617 C.2       1 UNK         0.5000 
     66 O          -1.1252  -13.4891  -47.7157 O.2       1 UNK        -0.5000 
     67 C           2.4629  -23.9066  -47.9502 C.2       11 UNK         0.5000 
     68 O           2.9452  -24.9403  -48.4169 O.2       11 UNK        -0.5000 
     69 N           1.1479  -23.6833  -47.8514 N.am      12 UNK        -0.5000 
     70 CA          0.1071  -24.6400  -48.2015 C.3       12 UNK         0.1400 
     71 CB         -1.0865  -23.8825  -48.8095 C.3       12 UNK        -0.1800 
     72 C          -0.2694  -25.4011  -46.9234 C.2       12 UNK         0.5000 
     73 O          -1.1157  -24.9404  -46.1599 O.2       12 UNK        -0.5000 
     74 N           0.4052  -26.5344  -46.6923 N.am      13 UNK        -0.5000 
     75 CA          0.3505  -27.3234  -45.4558 C.3       13 UNK         0.1400 
     76 CB          1.3402  -28.4927  -45.5768 C.3       13 UNK        -0.1800 
     77 C          -1.0464  -27.8418  -45.0513 C.2       13 UNK         0.5000 
     78 O          -1.2571  -28.1403  -43.8747 O.2       13 UNK        -0.5000 
     79 N          -1.9667  -27.9554  -46.0191 N.am      14 UNK        -0.5000 
     80 CA         -3.3518  -28.3721  -45.8029 C.3       14 UNK         0.1400 
     81 CB         -4.0044  -28.6871  -47.1583 C.3       14 UNK        -0.1800 
     82 C          -4.1798  -27.3287  -45.0274 C.2       14 UNK         0.5000 
     83 O          -4.8934  -27.6996  -44.0946 O.2       14 UNK        -0.5000 
     84 N          -4.0639  -26.0552  -45.4240 N.am      15 UNK        -0.5000 
     85 CA         -4.7748  -24.8925  -44.8925 C.3       15 UNK         0.1400 
     86 CB         -6.3045  -25.0565  -45.0299 C.3       15 UNK        -0.1800 
     87 C          -4.3252  -23.6481  -45.6729 C.2       15 UNK         0.5000 
     88 O          -3.8644  -23.7765  -46.8096 O.2       15 UNK        -0.5000 
     89 N          -4.5081  -22.4665  -45.0667 N.am      16 UNK        -0.5000 
     90 CA         -4.2529  -21.1594  -45.6791 C.3       16 UNK         0.1400 
     91 CB         -4.5367  -20.0575  -44.6449 C.3       16 UNK        -0.1800 
     92 C          -5.0902  -20.9227  -46.9523 C.2       16 UNK         0.5000 
     93 O          -6.2328  -21.3824  -47.0300 O.2       16 UNK        -0.5000 
     94 N          -4.5109  -20.1945  -47.9111 N.am      17 UNK        -0.5000 
     95 CA         -5.1033  -19.8957  -49.2098 C.3       17 UNK         0.1400 
     96 CB         -4.4410  -20.7861  -50.2744 C.3       17 UNK        -0.1800 
     97 C          -4.9073  -18.4118  -49.5450 C.2       17 UNK         0.5000 
     98 O          -3.9753  -17.7787  -49.0392 O.2       17 UNK        -0.5000 
     99 N          -5.7888  -17.9007  -50.4104 N.am      18 UNK        -0.5000 
    100 CA        -5.7321  -16.5566  -50.9775 C.3       18 UNK         0.1400 
    101 CB        -7.1449  -16.1644  -51.4402 C.3       18 UNK        -0.1800 
    102 C         -4.7427  -16.4822  -52.1536 C.2       18 UNK         0.5000 
    103 O         -4.3680  -17.5137  -52.7160 O.2       18 UNK        -0.5000 
    104 N         -4.3993  -15.2500  -52.5525 N.am      19 UNK        -0.5000 
    105 CA        -3.4627  -14.9309  -53.6376 C.3       19 UNK         0.1400 
    106 CB        -3.2448  -13.4109  -53.6736 C.3       19 UNK        -0.1800 
    107 C         -3.8775  -15.4543  -55.0281 C.2       19 UNK         0.5000 
    108 O         -3.0275  -15.5632  -55.9106 O.2       19 UNK        -0.5000 
    109 N         -5.1574  -15.8169  -55.1951 N.am      20 UNK        -0.5000 
    110 CA        -5.6917  -16.5143  -56.3667 C.3       20 UNK         0.1400 
    111 CB        -7.2124  -16.6606  -56.2076 C.3       20 UNK        -0.1800 
    112 C         -5.0396  -17.8920  -56.6135 C.2       20 UNK         0.5000 
    113 O         -4.9720  -18.3287  -57.7632 O.2       20 UNK        -0.5000 
    114 N         -4.5336  -18.5343  -55.5484 N.am      21 UNK        -0.5000 
    115 CA        -3.7836  -19.7911  -55.6122 C.3       21 UNK         0.1400 
    116 CB        -3.6552  -20.3714  -54.1951 C.3       21 UNK        -0.1800 
    117 C         -2.3910  -19.6442  -56.2598 C.2       21 UNK         0.5000 
    118 O         -1.8257  -20.6466  -56.6987 O.2       21 UNK        -0.5000 
    119 N         -1.8643  -18.4138  -56.3139 N.am      22 UNK        -0.5000 
    120 CA        -0.5653  -18.0772  -56.9180 C.3       22 UNK         0.1400 
    121 C         -0.5980  -17.9629  -58.4712 C.2       22 UNK         0.5000 
    122 N         -1.7514  -18.0369  -59.1266 N.am      22 UNK        -0.7600 
    123 O          0.4478  -17.8144  -59.0975 O.2       22 UNK        -0.5000 
    124 C124        0.0590  -16.8069  -56.2816 C.3       23 UNK        -0.0398 
    125 S125        0.1507  -16.8991  -54.4603 S.3       23 UNK        -0.2404 
    126 C126        1.8923  -17.3556  -54.2236 C.3       23 UNK        -0.0205 
    127 H127       -0.9905  -19.1036  -50.0955 H         1 UNK         0.0600 
    128 H128       -0.6262  -18.5952  -51.7487 H         1 UNK         0.0600 
    129 H129       -2.2802  -18.5145  -51.1514 H         1 UNK         0.0600 
    130 H130       -0.2305  -17.5719  -48.6321 H         1 UNK         0.3000 
    131 H131        0.3462  -14.8867  -49.4333 H         1 UNK         0.0600 
    132 H132        0.4621  -15.8843  -46.5647 H         1 UNK         0.0800 
    133 H133        1.3411  -14.5684  -47.2853 H         1 UNK         0.0800 
    134 H134        2.6413  -15.2534  -49.7010 H         1 UNK         0.0800 
    135 H135        4.0787  -16.1751  -49.3573 H         1 UNK         0.0800 
    136 H136        2.4488  -15.8196  -52.0436 H         1 UNK         0.1150 
    137 H137        1.8908  -19.8906  -53.2509 H         1 UNK         0.1150 
    138 H138        2.7948  -18.9767  -49.1677 H         1 UNK         0.1150 
    139 H139        1.3923  -21.2993  -50.2409 H         1 UNK         0.0800 
    140 H140        2.1742  -21.6710  -51.7507 H         1 UNK         0.0800 
    141 H141        3.9854  -20.7460  -47.7896 H         1 UNK         0.0800 
    142 H142        2.3134  -21.0536  -48.1445 H         1 UNK         0.0800 
    143 H143        4.4185  -23.1692  -47.4955 H         1 UNK         0.0600 
    144 H144        2.7177  -21.6536  -45.7619 H         1 UNK         0.3000 
    145 H145        2.9759  -23.8384  -42.9458 H         1 UNK         0.0600 
    146 H146        3.7339  -21.6943  -41.9552 H         1 UNK         0.0600 
    147 H147        5.0076  -22.4304  -42.9144 H         1 UNK         0.0600 
    148 H148        4.1137  -21.0606  -43.5546 H         1 UNK         0.0600 
    149 H149        1.6233  -21.3346  -43.6601 H         1 UNK         0.3000 
    150 H150       -1.4021  -22.8621  -44.5495 H         1 UNK         0.0600 
    151 H151       -1.7033  -23.1667  -42.0860 H         1 UNK         0.0600 
    152 H152       -2.5232  -21.7248  -42.6578 H         1 UNK         0.0600 
    153 H153       -0.9914  -21.5823  -41.7972 H         1 UNK         0.0600 
    154 H154       -0.8309  -20.1663  -43.7945 H         1 UNK         0.3000 
    155 H155        0.4935  -19.1578  -46.9932 H         1 UNK         0.0600 
    156 H156       -1.2966  -17.4328  -46.4407 H         1 UNK         0.0600 
    157 H157       -2.0570  -18.6146  -45.3909 H         1 UNK         0.0600 
    158 H158       -1.9381  -18.9199  -47.1178 H         1 UNK         0.0600 
    159 H159        0.2905  -17.6837  -44.6003 H         1 UNK         0.3000 
    160 H160        3.4539  -18.5457  -43.1745 H         1 UNK         0.0600 
    161 H161        2.4001  -16.0182  -44.5538 H         1 UNK         0.0600 
    162 H162        3.9376  -16.8068  -44.8670 H         1 UNK         0.0600 
    163 H163        3.6417  -16.0621  -43.3030 H         1 UNK         0.0600 
    164 H164        1.1505  -16.8432  -42.5588 H         1 UNK         0.3000 
    165 H165       -0.3215  -19.1539  -40.2884 H         1 UNK         0.0600 
    166 H166        1.2064  -16.5619  -39.6916 H         1 UNK         0.0600 
    167 H167       -0.0411  -17.2894  -38.6782 H         1 UNK         0.0600 
    168 H168        1.4907  -18.1152  -38.9152 H         1 UNK         0.0600 
    169 H169       -0.9351  -16.4405  -40.9430 H         1 UNK         0.3000 
    170 H170       -2.8682  -17.0639  -43.8529 H         1 UNK         0.0600 
    171 H171       -4.4234  -17.7068  -42.0068 H         1 UNK         0.0600 
    172 H172       -3.8201  -16.3739  -41.0268 H         1 UNK         0.0600 
    173 H173       -4.6829  -16.0509  -42.5318 H         1 UNK         0.0600 
    174 H174       -2.6498  -14.6599  -42.5283 H         1 UNK         0.3000 
    175 H175       -0.6708  -13.1526  -42.6388 H         1 UNK         0.0600 
    176 H176        0.7457  -13.5780  -45.3161 H         1 UNK         0.0600 
    177 H177        0.8986  -12.1742  -44.2669 H         1 UNK         0.0600 
    178 H178        1.4999  -13.7364  -43.7337 H         1 UNK         0.0600 
    179 H179       -1.5799  -12.8842  -45.4449 H         1 UNK         0.3000 
    180 H180       -4.9492  -12.3345  -44.5804 H         1 UNK         0.0600 
    181 H181       -4.7133  -10.2101  -45.8357 H         1 UNK         0.0600 
    182 H182       -4.0251  -10.0347  -44.2297 H         1 UNK         0.0600 
    183 H183       -2.9628  -10.2405  -45.6174 H         1 UNK         0.0600 
    184 H184       -3.6440  -12.1322  -47.0774 H         1 UNK         0.3000 
    185 H185       -4.5977  -15.2877  -48.1100 H         1 UNK         0.0600 
    186 H186       -5.1058  -12.9734  -48.8768 H         1 UNK         0.0600 
    187 H187       -3.3866  -12.6005  -48.9807 H         1 UNK         0.0600 
    188 H188       -4.0876  -13.8093  -50.0367 H         1 UNK         0.0600 
    189 H189       -2.6235  -16.1154  -48.6061 H         1 UNK         0.3000 
    190 H190        0.8152  -22.8437  -47.3773 H         1 UNK         0.3000 
    191 H191        0.4688  -25.3498  -48.9484 H         1 UNK         0.0600 
    192 H192       -1.8982  -24.5678  -49.0558 H         1 UNK         0.0600 
    193 H193       -0.8002  -23.3693  -49.7275 H         1 UNK         0.0600 
    194 H194       -1.4887  -23.1359  -48.1238 H         1 UNK         0.0600 
    195 H195        1.1018  -26.8188  -47.3665 H         1 UNK         0.3000 
    196 H196        0.6937  -26.6771  -44.6467 H         1 UNK         0.0600 
    197 H197        1.3574  -29.0886  -44.6632 H         1 UNK         0.0600 
    198 H198        2.3559  -28.1343  -45.7465 H         1 UNK         0.0600 
    199 H199        1.0755  -29.1590  -46.3987 H         1 UNK         0.0600 
    200 H200       -1.7074  -27.6885  -46.9568 H         1 UNK         0.3000 
    201 H201       -3.3403  -29.2919  -45.2140 H         1 UNK         0.0600 
    202 H202       -3.4745  -29.4879  -47.6744 H         1 UNK         0.0600 
    203 H203       -4.0169  -27.8153  -47.8138 H         1 UNK         0.0600 
    204 H204       -5.0369  -29.0136  -47.0271 H         1 UNK         0.0600 
    205 H205       -3.4108  -25.8191  -46.1634 H         1 UNK         0.3000 
    206 H206       -4.5040  -24.7685  -43.8423 H         1 UNK         0.0600 
    207 H207       -6.6892  -25.8520  -44.3929 H         1 UNK         0.0600 
    208 H208       -6.8269  -24.1441  -44.7394 H         1 UNK         0.0600 
    209 H209       -6.5902  -25.2813  -46.0582 H         1 UNK         0.0600 
    210 H210       -4.9342  -22.4512  -44.1522 H         1 UNK         0.3000 
    211 H211       -3.1967  -21.1259  -45.9506 H         1 UNK         0.0600 
    212 H212       -5.5649  -20.1021  -44.2839 H         1 UNK         0.0600 
    213 H213       -4.3871  -19.0653  -45.0721 H         1 UNK         0.0600 
    214 H214       -3.8753  -20.1407  -43.7837 H         1 UNK         0.0600 
    215 H215       -3.6140  -19.7606  -47.7489 H         1 UNK         0.3000 
    216 H216       -6.1767  -20.0968  -49.1954 H         1 UNK         0.0600 
    217 H217       -4.8476  -20.5827  -51.2654 H         1 UNK         0.0600 
    218 H218       -4.6103  -21.8422  -50.0635 H         1 UNK         0.0600 
    219 H219       -3.3635  -20.6251  -50.3216 H         1 UNK         0.0600 
    220 H220       -6.4866  -18.5129  -50.8065 H         1 UNK         0.3000 
    221 H221       -5.4092  -15.8574  -50.2067 H         1 UNK         0.0600 
    222 H222       -7.5065  -16.8207  -52.2332 H         1 UNK         0.0600 
    223 H223       -7.8563  -16.2134  -50.6155 H         1 UNK         0.0600 
    224 H224       -7.1685  -15.1434  -51.8229 H         1 UNK         0.0600 
    225 H225       -4.7823  -14.4566  -52.0609 H         1 UNK         0.3000 
    226 H226       -2.5095  -15.4059  -53.3999 H         1 UNK         0.0600 
    227 H227       -4.1727  -12.8761  -53.8796 H         1 UNK         0.0600 
    228 H228       -2.8482  -13.0480  -52.7250 H         1 UNK         0.0600 
    229 H229       -2.5276  -13.1369  -54.4486 H         1 UNK         0.0600 
    230 H230       -5.7878  -15.6913  -54.4179 H         1 UNK         0.3000 
    231 H231       -5.4935  -15.8945  -57.2436 H         1 UNK         0.0600 
    232 H232       -7.6501  -17.1560  -57.0753 H         1 UNK         0.0600 
    233 H233       -7.6953  -15.6878  -56.1127 H         1 UNK         0.0600 
    234 H234       -7.4695  -17.2516  -55.3275 H         1 UNK         0.0600 
    235 H235       -4.6001  -18.1024  -54.6313 H         1 UNK         0.3000 
    236 H236       -4.3554  -20.4964  -56.2187 H         1 UNK         0.0600 
    237 H237       -4.6337  -20.5047  -53.7341 H         1 UNK         0.0600 
    238 H238       -3.1685  -21.3472  -54.2143 H         1 UNK         0.0600 
    239 H239       -3.0630  -19.7237  -53.5472 H         1 UNK         0.0600 
    240 H240       -2.3937  -17.6300  -55.9532 H         1 UNK         0.3000 
    241 H241        0.1166  -18.9021  -56.7030 H         1 UNK         0.0600 
    242 H242       -2.6203  -18.1630  -58.6284 H         1 UNK         0.3800 
    243 H243       -1.7561  -17.9666  -60.1321 H         1 UNK         0.3800 
    244 H244        1.0596  -16.6302  -56.6798 H         1 UNK         0.0800 
    245 H245       -0.5239  -15.9240  -56.5459 H         1 UNK         0.0800 
    246 H246        2.5289  -16.5037  -54.4669 H         1 UNK         0.0800 
    247 H247        2.1594  -18.1526  -54.9195 H         1 UNK         0.0800 
@<TRIPOS>BOND
     1    1    2 1    
     2    1  127 1    
     3    1  128 1    
     4    1  129 1    
     5    2    3 2    
     6    2    4 am   BACKBONE|DICT|INTERRES
     7    4    5 1    
     8    4  130 1    
     9    5    6 1    
    10    5   65 1    
    11    5  131 1    
    12    6    7 1    
    13    6  132 1    
    14    6  133 1    
    15    7    8 1    
    16    8    9 1    
    17    8  134 1    
    18    8  135 1    
    19    9   10 ar   
    20    9   14 ar   
    21   10   11 ar   
    22   10  136 1    
    23   11   12 ar   
    24   11  126 1    
    25   12   13 ar   
    26   12  137 1    
    27   13   14 ar   
    28   13   15 1    
    29   14  138 1    
    30   15   16 1    
    31   15  139 1    
    32   15  140 1    
    33   16   17 1    
    34   17   18 1    
    35   17  141 1    
    36   17  142 1    
    37   18   19 1    
    38   18   67 1    
    39   18  143 1    
    40   19   20 am   BACKBONE|DICT|INTERRES
    41   19  144 1    
    42   20   21 2    
    43   20   22 1    
    44   22   23 1    
    45   22   24 1    
    46   22  145 1    
    47   23  146 1    
    48   23  147 1    
    49   23  148 1    
    50   24   25 am   BACKBONE|DICT|INTERRES
    51   24  149 1    
    52   25   26 2    
    53   25   27 1    
    54   27   28 1    
    55   27   29 1    
    56   27  150 1    
    57   28  151 1    
    58   28  152 1    
    59   28  153 1    
    60   29   30 am   BACKBONE|DICT|INTERRES
    61   29  154 1    
    62   30   31 2    
    63   30   32 1    
    64   32   33 1    
    65   32   34 1    
    66   32  155 1    
    67   33  156 1    
    68   33  157 1    
    69   33  158 1    
    70   34   35 am   BACKBONE|DICT|INTERRES
    71   34  159 1    
    72   35   36 2    
    73   35   37 1    
    74   37   38 1    
    75   37   39 1    
    76   37  160 1    
    77   38  161 1    
    78   38  162 1    
    79   38  163 1    
    80   39   40 am   BACKBONE|DICT|INTERRES
    81   39  164 1    
    82   40   41 2    
    83   40   42 1    
    84   42   43 1    
    85   42   44 1    
    86   42  165 1    
    87   43  166 1    
    88   43  167 1    
    89   43  168 1    
    90   44   45 am   BACKBONE|DICT|INTERRES
    91   44  169 1    
    92   45   46 2    
    93   45   47 1    
    94   47   48 1    
    95   47   49 1    
    96   47  170 1    
    97   48  171 1    
    98   48  172 1    
    99   48  173 1    
   100   49   50 am   BACKBONE|DICT|INTERRES
   101   49  174 1    
   102   50   51 2    
   103   50   52 1    
   104   52   53 1    
   105   52   54 1    
   106   52  175 1    
   107   53  176 1    
   108   53  177 1    
   109   53  178 1    
   110   54   55 am   BACKBONE|DICT|INTERRES
   111   54  179 1    
   112   55   56 2    
   113   55   57 1    
   114   57   58 1    
   115   57   59 1    
   116   57  180 1    
   117   58  181 1    
   118   58  182 1    
   119   58  183 1    
   120   59   60 am   BACKBONE|DICT|INTERRES
   121   59  184 1    
   122   60   61 2    
   123   60   62 1    
   124   62   63 1    
   125   62   64 1    
   126   62  185 1    
   127   63  186 1    
   128   63  187 1    
   129   63  188 1    
   130   64   65 am   BACKBONE|DICT|INTERRES
   131   64  189 1    
   132   65   66 2    
   133   67   68 2    
   134   67   69 am   BACKBONE|DICT|INTERRES
   135   69   70 1    
   136   69  190 1    
   137   70   71 1    
   138   70   72 1    
   139   70  191 1    
   140   71  192 1    
   141   71  193 1    
   142   71  194 1    
   143   72   73 2    
   144   72   74 am   BACKBONE|DICT|INTERRES
   145   74   75 1    
   146   74  195 1    
   147   75   76 1    
   148   75   77 1    
   149   75  196 1    
   150   76  197 1    
   151   76  198 1    
   152   76  199 1    
   153   77   78 2    
   154   77   79 am   BACKBONE|DICT|INTERRES
   155   79   80 1    
   156   79  200 1    
   157   80   81 1    
   158   80   82 1    
   159   80  201 1    
   160   81  202 1    
   161   81  203 1    
   162   81  204 1    
   163   82   83 2    
   164   82   84 am   BACKBONE|DICT|INTERRES
   165   84   85 1    
   166   84  205 1    
   167   85   86 1    
   168   85   87 1    
   169   85  206 1    
   170   86  207 1    
   171   86  208 1    
   172   86  209 1    
   173   87   88 2    
   174   87   89 am   BACKBONE|DICT|INTERRES
   175   89   90 1    
   176   89  210 1    
   177   90   91 1    
   178   90   92 1    
   179   90  211 1    
   180   91  212 1    
   181   91  213 1    
   182   91  214 1    
   183   92   93 2    
   184   92   94 am   BACKBONE|DICT|INTERRES
   185   94   95 1    
   186   94  215 1    
   187   95   96 1    
   188   95   97 1    
   189   95  216 1    
   190   96  217 1    
   191   96  218 1    
   192   96  219 1    
   193   97   98 2    
   194   97   99 am   BACKBONE|DICT|INTERRES
   195   99  100 1    
   196   99  220 1    
   197  100  101 1    
   198  100  102 1    
   199  100  221 1    
   200  101  222 1    
   201  101  223 1    
   202  101  224 1    
   203  102  103 2    
   204  102  104 am   BACKBONE|DICT|INTERRES
   205  104  105 1    
   206  104  225 1    
   207  105  106 1    
   208  105  107 1    
   209  105  226 1    
   210  106  227 1    
   211  106  228 1    
   212  106  229 1    
   213  107  108 2    
   214  107  109 am   BACKBONE|DICT|INTERRES
   215  109  110 1    
   216  109  230 1    
   217  110  111 1    
   218  110  112 1    
   219  110  231 1    
   220  111  232 1    
   221  111  233 1    
   222  111  234 1    
   223  112  113 2    
   224  112  114 am   BACKBONE|DICT|INTERRES
   225  114  115 1    
   226  114  235 1    
   227  115  116 1    
   228  115  117 1    
   229  115  236 1    
   230  116  237 1    
   231  116  238 1    
   232  116  239 1    
   233  117  118 2    
   234  117  119 am   BACKBONE|DICT|INTERRES
   235  119  120 1    
   236  119  240 1    
   237  120  121 1    
   238  120  124 1    
   239  120  241 1    
   240  121  122 am   BACKBONE|DICT|INTERRES
   241  121  123 2    
   242  122  242 1    
   243  122  243 1    
   244  124  125 1    
   245  124  244 1    
   246  124  245 1    
   247  125  126 1    
   248  126  246 1    
   249  126  247 1    
@<TRIPOS>SUBSTRUCTURE
     1 UNK         1 GROUP             0       ****    0 ROOT    
