@<TRIPOS>MOLECULE
3R540
247   249    1
SMALL
USER_CHARGES


@<TRIPOS>ATOM
      1 CA          4.4309  -13.7022  -50.2320 C.3       0 UNK        -0.1800 
      2 C           3.6440  -13.3522  -48.9792 C.2       0 UNK         0.5000 
      3 O           4.1248  -13.5868  -47.8684 O.2       0 UNK        -0.5000 
      4 N           2.4392  -12.7886  -49.1434 N.am      1 UNK        -0.5000 
      5 CA          1.5323  -12.3982  -48.0539 C.3       1 UNK         0.1400 
      6 C6          0.1474  -11.9341  -48.5671 C.3       23 UNK        -0.0398 
      7 S7         -0.7350  -13.2599  -49.4586 S.3       23 UNK        -0.2404 
      8 C8         -1.7451  -13.9362  -48.1023 C.3       23 UNK        -0.0205 
      9 C9         -2.3223  -15.3110  -48.4114 C.ar      23 UNK        -0.0193 
     10 C10        -3.6888  -15.5543  -48.2531 C.ar      23 UNK        -0.1150 
     11 C11        -4.2163  -16.8270  -48.4931 C.ar      23 UNK        -0.0193 
     12 C12        -3.3646  -17.8674  -48.8818 C.ar      23 UNK        -0.1150 
     13 C13        -1.9954  -17.6361  -49.0428 C.ar      23 UNK        -0.0193 
     14 C14        -1.4851  -16.3575  -48.8066 C.ar      23 UNK        -0.1150 
     15 C15        -1.0578  -18.7493  -49.4857 C.3       23 UNK        -0.0205 
     16 S16        -0.3769  -19.6649  -48.0671 S.3       23 UNK        -0.2404 
     17 C17        -1.6189  -20.9804  -47.8385 C.3       23 UNK        -0.0398 
     18 CA         -0.9978  -22.2413  -47.1893 C.3       11 UNK         0.1400 
     19 N          -0.4823  -21.9902  -45.8386 N.am      11 UNK        -0.5000 
     20 C           0.3101  -22.8270  -45.1537 C.2       10 UNK         0.5000 
     21 O           0.7201  -23.8965  -45.6004 O.2       10 UNK        -0.5000 
     22 CA          0.6583  -22.4282  -43.7086 C.3       10 UNK         0.1400 
     23 CB          1.8262  -21.4311  -43.6882 C.3       10 UNK        -0.1800 
     24 N          -0.4911  -21.8590  -43.0044 N.am      10 UNK        -0.5000 
     25 C          -1.5902  -22.5552  -42.6719 C.2       9 UNK         0.5000 
     26 O          -1.7057  -23.7659  -42.8569 O.2       9 UNK        -0.5000 
     27 CA         -2.7845  -21.7676  -42.0928 C.3       9 UNK         0.1400 
     28 CB         -2.7093  -21.7275  -40.5598 C.3       9 UNK        -0.1800 
     29 N          -2.8710  -20.3999  -42.6054 N.am      9 UNK        -0.5000 
     30 C          -2.9880  -20.0690  -43.8987 C.2       8 UNK         0.5000 
     31 O          -3.2042  -20.8936  -44.7871 O.2       8 UNK        -0.5000 
     32 CA         -2.7576  -18.5914  -44.2767 C.3       8 UNK         0.1400 
     33 CB         -4.0693  -17.9287  -44.7219 C.3       8 UNK        -0.1800 
     34 N          -2.1341  -17.7690  -43.2314 N.am      8 UNK        -0.5000 
     35 C          -0.9204  -17.9541  -42.6915 C.2       7 UNK         0.5000 
     36 O          -0.2152  -18.9367  -42.9265 O.2       7 UNK        -0.5000 
     37 CA         -0.4114  -16.8334  -41.7585 C.3       7 UNK         0.1400 
     38 CB          0.8451  -17.2460  -40.9720 C.3       7 UNK        -0.1800 
     39 N          -0.1024  -15.6411  -42.5440 N.am      7 UNK        -0.5000 
     40 C          -1.0156  -14.8157  -43.0761 C.2       6 UNK         0.5000 
     41 O          -2.2060  -14.8253  -42.7578 O.2       6 UNK        -0.5000 
     42 CA         -0.5398  -13.8777  -44.2043 C.3       6 UNK         0.1400 
     43 CB         -0.2416  -12.4777  -43.6491 C.3       6 UNK        -0.1800 
     44 N           0.6337  -14.3819  -44.9302 N.am      6 UNK        -0.5000 
     45 C           0.7013  -15.5614  -45.5715 C.2       5 UNK         0.5000 
     46 O          -0.2756  -16.2857  -45.7491 O.2       5 UNK        -0.5000 
     47 CA          2.0841  -16.0479  -46.0531 C.3       5 UNK         0.1400 
     48 CB          2.1028  -16.3013  -47.5686 C.3       5 UNK        -0.1800 
     49 N           3.2148  -15.1892  -45.6752 N.am      5 UNK        -0.5000 
     50 C           3.6812  -15.0841  -44.4209 C.2       4 UNK         0.5000 
     51 O           3.0915  -15.5582  -43.4480 O.2       4 UNK        -0.5000 
     52 CA          5.0223  -14.3681  -44.1905 C.3       4 UNK         0.1400 
     53 CB          6.1394  -15.4202  -44.0282 C.3       4 UNK        -0.1800 
     54 N           5.3792  -13.4036  -45.2369 N.am      4 UNK        -0.5000 
     55 C           6.3416  -12.4798  -45.0971 C.2       3 UNK         0.5000 
     56 O           6.9820  -12.3073  -44.0587 O.2       3 UNK        -0.5000 
     57 CA          6.6427  -11.5917  -46.3144 C.3       3 UNK         0.1400 
     58 CB          7.3383  -12.3884  -47.4309 C.3       3 UNK        -0.1800 
     59 N           5.4312  -10.9619  -46.8314 N.am      3 UNK        -0.5000 
     60 C           4.8830   -9.8488  -46.3234 C.2       2 UNK         0.5000 
     61 O           5.3593   -9.2249  -45.3742 O.2       2 UNK        -0.5000 
     62 CA          3.5956   -9.3273  -46.9928 C.3       2 UNK         0.1400 
     63 CB          3.9224   -8.1838  -47.9659 C.3       2 UNK        -0.1800 
     64 N           2.8585  -10.3651  -47.7145 N.am      2 UNK        -0.5000 
     65 C           2.1574  -11.3415  -47.1235 C.2       1 UNK         0.5000 
     66 O           2.0388  -11.4592  -45.9046 O.2       1 UNK        -0.5000 
     67 C          -1.9964  -23.4146  -47.2035 C.2       11 UNK         0.5000 
     68 O          -1.9981  -24.1944  -48.1570 O.2       11 UNK        -0.5000 
     69 N          -2.8036  -23.5411  -46.1412 N.am      12 UNK        -0.5000 
     70 CA         -3.6971  -24.6765  -45.9196 C.3       12 UNK         0.1400 
     71 CB         -4.6675  -24.3624  -44.7717 C.3       12 UNK        -0.1800 
     72 C          -2.9220  -25.9818  -45.6628 C.2       12 UNK         0.5000 
     73 O          -3.2208  -26.9934  -46.2971 O.2       12 UNK        -0.5000 
     74 N          -1.9155  -25.9277  -44.7779 N.am      13 UNK        -0.5000 
     75 CA         -1.0418  -27.0529  -44.4308 C.3       13 UNK         0.1400 
     76 CB         -0.1421  -26.6586  -43.2500 C.3       13 UNK        -0.1800 
     77 C          -0.1932  -27.5566  -45.6138 C.2       13 UNK         0.5000 
     78 O          -0.0280  -28.7666  -45.7720 O.2       13 UNK        -0.5000 
     79 N           0.3005  -26.6246  -46.4399 N.am      14 UNK        -0.5000 
     80 CA          1.0449  -26.9025  -47.6707 C.3       14 UNK         0.1400 
     81 CB          1.7919  -25.6268  -48.0928 C.3       14 UNK        -0.1800 
     82 C           0.1599  -27.4020  -48.8312 C.2       14 UNK         0.5000 
     83 O           0.7008  -27.8517  -49.8419 O.2       14 UNK        -0.5000 
     84 N          -1.1689  -27.2824  -48.6842 N.am      15 UNK        -0.5000 
     85 CA         -2.2115  -27.5634  -49.6775 C.3       15 UNK         0.1400 
     86 CB         -2.2226  -29.0523  -50.0805 C.3       15 UNK        -0.1800 
     87 C          -2.1719  -26.6114  -50.8924 C.2       15 UNK         0.5000 
     88 O          -2.7256  -26.9315  -51.9448 O.2       15 UNK        -0.5000 
     89 N          -1.5621  -25.4311  -50.7144 N.am      16 UNK        -0.5000 
     90 CA         -1.5500  -24.3346  -51.6822 C.3       16 UNK         0.1400 
     91 CB         -0.4897  -23.3029  -51.2681 C.3       16 UNK        -0.1800 
     92 C          -2.9337  -23.6738  -51.8002 C.2       16 UNK         0.5000 
     93 O          -3.3081  -23.2338  -52.8857 O.2       16 UNK        -0.5000 
     94 N          -3.6934  -23.6825  -50.6941 N.am      17 UNK        -0.5000 
     95 CA         -5.0694  -23.1892  -50.5770 C.3       17 UNK         0.1400 
     96 CB         -5.4784  -23.2347  -49.0968 C.3       17 UNK        -0.1800 
     97 C          -6.1076  -23.9286  -51.4532 C.2       17 UNK         0.5000 
     98 O          -7.2511  -23.4796  -51.5309 O.2       17 UNK        -0.5000 
     99 N          -5.7093  -25.0367  -52.0963 N.am      18 UNK        -0.5000 
    100 CA        -6.4892  -25.7324  -53.1215 C.3       18 UNK         0.1400 
    101 CB        -5.8840  -27.1261  -53.3475 C.3       18 UNK        -0.1800 
    102 C         -6.5625  -24.9518  -54.4523 C.2       18 UNK         0.5000 
    103 O         -7.5038  -25.1604  -55.2195 O.2       18 UNK        -0.5000 
    104 N         -5.5830  -24.0703  -54.7020 N.am      19 UNK        -0.5000 
    105 CA        -5.5708  -23.1153  -55.8107 C.3       19 UNK         0.1400 
    106 CB        -4.1047  -22.8339  -56.1905 C.3       19 UNK        -0.1800 
    107 C         -6.3204  -21.8217  -55.4227 C.2       19 UNK         0.5000 
    108 O         -6.9869  -21.7779  -54.3862 O.2       19 UNK        -0.5000 
    109 N         -6.1923  -20.7734  -56.2511 N.am      20 UNK        -0.5000 
    110 CA        -6.7027  -19.4274  -55.9595 C.3       20 UNK         0.1400 
    111 CB        -6.4970  -18.5180  -57.1809 C.3       20 UNK        -0.1800 
    112 C         -6.0472  -18.8237  -54.7012 C.2       20 UNK         0.5000 
    113 O         -6.7565  -18.3162  -53.8323 O.2       20 UNK        -0.5000 
    114 N         -4.7148  -18.9706  -54.6197 N.am      21 UNK        -0.5000 
    115 CA        -3.8148  -18.7827  -53.4742 C.3       21 UNK         0.1400 
    116 CB        -4.1517  -19.7995  -52.3679 C.3       21 UNK        -0.1800 
    117 C         -3.7307  -17.3601  -52.8895 C.2       21 UNK         0.5000 
    118 O         -2.6313  -16.8208  -52.7640 O.2       21 UNK        -0.5000 
    119 N         -4.8804  -16.8042  -52.5066 N.am      22 UNK        -0.5000 
    120 CA        -5.0177  -15.6061  -51.6671 C.3       22 UNK         0.1400 
    121 C         -4.9499  -14.2566  -52.4387 C.2       22 UNK         0.5000 
    122 N         -4.8211  -14.2500  -53.7598 N.am      22 UNK        -0.7600 
    123 O         -5.0117  -13.1930  -51.8283 O.2       22 UNK        -0.5000 
    124 C124       -6.2839  -15.6806  -50.7662 C.3       23 UNK        -0.0398 
    125 S125       -6.5329  -17.3005  -49.9457 S.3       23 UNK        -0.2404 
    126 C126       -5.7092  -17.0714  -48.3387 C.3       23 UNK        -0.0205 
    127 H127        4.6376  -14.7721  -50.2549 H         1 UNK         0.0600 
    128 H128        5.3818  -13.1696  -50.2373 H         1 UNK         0.0600 
    129 H129        3.8864  -13.4399  -51.1393 H         1 UNK         0.0600 
    130 H130        2.0861  -12.6397  -50.0782 H         1 UNK         0.3000 
    131 H131        1.3725  -13.2829  -47.4386 H         1 UNK         0.0600 
    132 H132       -0.4782  -11.5885  -47.7415 H         1 UNK         0.0800 
    133 H133        0.2546  -11.0819  -49.2403 H         1 UNK         0.0800 
    134 H134       -1.1279  -14.0231  -47.2113 H         1 UNK         0.0800 
    135 H135       -2.5375  -13.2249  -47.8647 H         1 UNK         0.0800 
    136 H136       -4.3439  -14.7522  -47.9439 H         1 UNK         0.1150 
    137 H137       -3.7711  -18.8510  -49.0696 H         1 UNK         0.1150 
    138 H138       -0.4279  -16.1747  -48.9245 H         1 UNK         0.1150 
    139 H139       -1.5610  -19.4265  -50.1751 H         1 UNK         0.0800 
    140 H140       -0.2270  -18.3205  -50.0481 H         1 UNK         0.0800 
    141 H141       -2.0432  -21.2326  -48.8120 H         1 UNK         0.0800 
    142 H142       -2.4415  -20.5863  -47.2413 H         1 UNK         0.0800 
    143 H143       -0.1506  -22.5493  -47.8061 H         1 UNK         0.0600 
    144 H144       -0.7978  -21.1433  -45.3899 H         1 UNK         0.3000 
    145 H145        0.9708  -23.3288  -43.1761 H         1 UNK         0.0600 
    146 H146        2.7137  -21.8621  -44.1532 H         1 UNK         0.0600 
    147 H147        2.0931  -21.1562  -42.6677 H         1 UNK         0.0600 
    148 H148        1.5854  -20.5150  -44.2291 H         1 UNK         0.0600 
    149 H149       -0.4704  -20.8547  -42.8472 H         1 UNK         0.3000 
    150 H150       -3.6989  -22.2897  -42.3803 H         1 UNK         0.0600 
    151 H151       -1.8243  -21.1917  -40.2141 H         1 UNK         0.0600 
    152 H152       -2.6661  -22.7356  -40.1452 H         1 UNK         0.0600 
    153 H153       -3.5863  -21.2396  -40.1340 H         1 UNK         0.0600 
    154 H154       -2.6921  -19.6572  -41.9465 H         1 UNK         0.3000 
    155 H155       -2.0772  -18.5909  -45.1313 H         1 UNK         0.0600 
    156 H156       -4.7811  -17.8520  -43.8994 H         1 UNK         0.0600 
    157 H157       -4.5456  -18.5003  -45.5197 H         1 UNK         0.0600 
    158 H158       -3.8898  -16.9254  -45.1100 H         1 UNK         0.0600 
    159 H159       -2.6073  -16.9006  -43.0096 H         1 UNK         0.3000 
    160 H160       -1.2010  -16.6028  -41.0404 H         1 UNK         0.0600 
    161 H161        1.6832  -17.4644  -41.6355 H         1 UNK         0.0600 
    162 H162        0.6565  -18.1385  -40.3741 H         1 UNK         0.0600 
    163 H163        1.1583  -16.4564  -40.2889 H         1 UNK         0.0600 
    164 H164        0.8503  -15.5714  -42.8807 H         1 UNK         0.3000 
    165 H165       -1.3651  -13.7940  -44.9128 H         1 UNK         0.0600 
    166 H166       -0.1069  -11.7568  -44.4544 H         1 UNK         0.0600 
    167 H167       -1.0656  -12.1144  -43.0334 H         1 UNK         0.0600 
    168 H168        0.6581  -12.4709  -43.0328 H         1 UNK         0.0600 
    169 H169        1.4833  -13.8432  -44.8370 H         1 UNK         0.3000 
    170 H170        2.2459  -17.0148  -45.5713 H         1 UNK         0.0600 
    171 H171        3.0985  -16.5766  -47.9165 H         1 UNK         0.0600 
    172 H172        1.7742  -15.4324  -48.1350 H         1 UNK         0.0600 
    173 H173        1.4358  -17.1245  -47.8253 H         1 UNK         0.0600 
    174 H174        3.7074  -14.7447  -46.4433 H         1 UNK         0.3000 
    175 H175        4.9192  -13.8236  -43.2493 H         1 UNK         0.0600 
    176 H176        5.8677  -16.1727  -43.2865 H         1 UNK         0.0600 
    177 H177        6.3350  -15.9403  -44.9666 H         1 UNK         0.0600 
    178 H178        7.0742  -14.9713  -43.6938 H         1 UNK         0.0600 
    179 H179        4.8842  -13.4610  -46.1218 H         1 UNK         0.3000 
    180 H180        7.3357  -10.8102  -45.9946 H         1 UNK         0.0600 
    181 H181        6.7221  -13.2078  -47.8001 H         1 UNK         0.0600 
    182 H182        8.2722  -12.8221  -47.0714 H         1 UNK         0.0600 
    183 H183        7.5835  -11.7471  -48.2775 H         1 UNK         0.0600 
    184 H184        4.9469  -11.4491  -47.5712 H         1 UNK         0.3000 
    185 H185        2.9523   -8.9308  -46.2043 H         1 UNK         0.0600 
    186 H186        4.4474   -7.3748  -47.4561 H         1 UNK         0.0600 
    187 H187        4.5575   -8.5217  -48.7858 H         1 UNK         0.0600 
    188 H188        3.0148   -7.7596  -48.3956 H         1 UNK         0.0600 
    189 H189        2.9237  -10.3537  -48.7222 H         1 UNK         0.3000 
    190 H190       -2.7893  -22.8159  -45.4326 H         1 UNK         0.3000 
    191 H191       -4.2883  -24.8199  -46.8247 H         1 UNK         0.0600 
    192 H192       -5.2265  -23.4471  -44.9677 H         1 UNK         0.0600 
    193 H193       -5.3927  -25.1672  -44.6463 H         1 UNK         0.0600 
    194 H194       -4.1488  -24.2410  -43.8216 H         1 UNK         0.0600 
    195 H195       -1.7617  -25.0647  -44.2631 H         1 UNK         0.3000 
    196 H196       -1.6798  -27.8785  -44.1090 H         1 UNK         0.0600 
    197 H197        0.5064  -27.4856  -42.9582 H         1 UNK         0.0600 
    198 H198       -0.7348  -26.3866  -42.3765 H         1 UNK         0.0600 
    199 H199        0.4971  -25.8107  -43.4977 H         1 UNK         0.0600 
    200 H200        0.1904  -25.6446  -46.1920 H         1 UNK         0.3000 
    201 H201        1.7830  -27.6796  -47.4625 H         1 UNK         0.0600 
    202 H202        2.3889  -25.7971  -48.9896 H         1 UNK         0.0600 
    203 H203        2.4729  -25.2916  -47.3103 H         1 UNK         0.0600 
    204 H204        1.1009  -24.8106  -48.3081 H         1 UNK         0.0600 
    205 H205       -1.5083  -26.9061  -47.8080 H         1 UNK         0.3000 
    206 H206       -3.1573  -27.3572  -49.1746 H         1 UNK         0.0600 
    207 H207       -2.2474  -29.6976  -49.2023 H         1 UNK         0.0600 
    208 H208       -3.1031  -29.2875  -50.6795 H         1 UNK         0.0600 
    209 H209       -1.3472  -29.3212  -50.6718 H         1 UNK         0.0600 
    210 H210       -1.2249  -25.2141  -49.7840 H         1 UNK         0.3000 
    211 H211       -1.2810  -24.7363  -52.6613 H         1 UNK         0.0600 
    212 H212       -0.7101  -22.8634  -50.2954 H         1 UNK         0.0600 
    213 H213       -0.4362  -22.4879  -51.9911 H         1 UNK         0.0600 
    214 H214        0.5004  -23.7558  -51.2139 H         1 UNK         0.0600 
    215 H215       -3.2807  -24.0641  -49.8509 H         1 UNK         0.3000 
    216 H216       -5.0725  -22.1461  -50.8961 H         1 UNK         0.0600 
    217 H217       -6.4658  -22.7956  -48.9492 H         1 UNK         0.0600 
    218 H218       -4.7814  -22.6752  -48.4727 H         1 UNK         0.0600 
    219 H219       -5.5188  -24.2600  -48.7292 H         1 UNK         0.0600 
    220 H220       -4.7574  -25.3500  -51.9691 H         1 UNK         0.3000 
    221 H221       -7.5094  -25.8582  -52.7531 H         1 UNK         0.0600 
    222 H222       -4.8662  -27.0637  -53.7345 H         1 UNK         0.0600 
    223 H223       -5.8558  -27.7008  -52.4215 H         1 UNK         0.0600 
    224 H224       -6.4739  -27.6958  -54.0665 H         1 UNK         0.0600 
    225 H225       -4.8716  -23.9224  -53.9940 H         1 UNK         0.3000 
    226 H226       -6.0752  -23.5514  -56.6751 H         1 UNK         0.0600 
    227 H227       -4.0340  -22.2555  -57.1119 H         1 UNK         0.0600 
    228 H228       -3.5862  -22.2760  -55.4096 H         1 UNK         0.0600 
    229 H229       -3.5560  -23.7615  -56.3556 H         1 UNK         0.0600 
    230 H230       -5.6519  -20.8798  -57.0971 H         1 UNK         0.3000 
    231 H231       -7.7755  -19.5072  -55.7713 H         1 UNK         0.0600 
    232 H232       -5.4433  -18.4253  -57.4463 H         1 UNK         0.0600 
    233 H233       -6.8764  -17.5139  -56.9866 H         1 UNK         0.0600 
    234 H234       -7.0294  -18.9020  -58.0513 H         1 UNK         0.0600 
    235 H235       -4.2651  -19.3708  -55.4303 H         1 UNK         0.3000 
    236 H236       -2.8179  -19.0272  -53.8443 H         1 UNK         0.0600 
    237 H237       -4.1712  -20.8113  -52.7680 H         1 UNK         0.0600 
    238 H238       -3.4108  -19.7753  -51.5700 H         1 UNK         0.0600 
    239 H239       -5.1253  -19.6053  -51.9165 H         1 UNK         0.0600 
    240 H240       -5.7374  -17.3109  -52.7168 H         1 UNK         0.3000 
    241 H241       -4.1528  -15.5855  -51.0038 H         1 UNK         0.0600 
    242 H242       -4.7748  -13.3726  -54.2537 H         1 UNK         0.3800 
    243 H243       -4.7607  -15.1189  -54.2661 H         1 UNK         0.3800 
    244 H244       -7.1752  -15.4874  -51.3654 H         1 UNK         0.0800 
    245 H245       -6.2575  -14.8977  -50.0066 H         1 UNK         0.0800 
    246 H246       -5.8641  -17.9652  -47.7331 H         1 UNK         0.0800 
    247 H247       -6.1871  -16.2514  -47.8005 H         1 UNK         0.0800 
@<TRIPOS>BOND
     1    1    2 1    
     2    1  127 1    
     3    1  128 1    
     4    1  129 1    
     5    2    3 2    
     6    2    4 am   BACKBONE|DICT|INTERRES
     7    4    5 1    
     8    4  130 1    
     9    5    6 1    
    10    5   65 1    
    11    5  131 1    
    12    6    7 1    
    13    6  132 1    
    14    6  133 1    
    15    7    8 1    
    16    8    9 1    
    17    8  134 1    
    18    8  135 1    
    19    9   10 ar   
    20    9   14 ar   
    21   10   11 ar   
    22   10  136 1    
    23   11   12 ar   
    24   11  126 1    
    25   12   13 ar   
    26   12  137 1    
    27   13   14 ar   
    28   13   15 1    
    29   14  138 1    
    30   15   16 1    
    31   15  139 1    
    32   15  140 1    
    33   16   17 1    
    34   17   18 1    
    35   17  141 1    
    36   17  142 1    
    37   18   19 1    
    38   18   67 1    
    39   18  143 1    
    40   19   20 am   BACKBONE|DICT|INTERRES
    41   19  144 1    
    42   20   21 2    
    43   20   22 1    
    44   22   23 1    
    45   22   24 1    
    46   22  145 1    
    47   23  146 1    
    48   23  147 1    
    49   23  148 1    
    50   24   25 am   BACKBONE|DICT|INTERRES
    51   24  149 1    
    52   25   26 2    
    53   25   27 1    
    54   27   28 1    
    55   27   29 1    
    56   27  150 1    
    57   28  151 1    
    58   28  152 1    
    59   28  153 1    
    60   29   30 am   BACKBONE|DICT|INTERRES
    61   29  154 1    
    62   30   31 2    
    63   30   32 1    
    64   32   33 1    
    65   32   34 1    
    66   32  155 1    
    67   33  156 1    
    68   33  157 1    
    69   33  158 1    
    70   34   35 am   BACKBONE|DICT|INTERRES
    71   34  159 1    
    72   35   36 2    
    73   35   37 1    
    74   37   38 1    
    75   37   39 1    
    76   37  160 1    
    77   38  161 1    
    78   38  162 1    
    79   38  163 1    
    80   39   40 am   BACKBONE|DICT|INTERRES
    81   39  164 1    
    82   40   41 2    
    83   40   42 1    
    84   42   43 1    
    85   42   44 1    
    86   42  165 1    
    87   43  166 1    
    88   43  167 1    
    89   43  168 1    
    90   44   45 am   BACKBONE|DICT|INTERRES
    91   44  169 1    
    92   45   46 2    
    93   45   47 1    
    94   47   48 1    
    95   47   49 1    
    96   47  170 1    
    97   48  171 1    
    98   48  172 1    
    99   48  173 1    
   100   49   50 am   BACKBONE|DICT|INTERRES
   101   49  174 1    
   102   50   51 2    
   103   50   52 1    
   104   52   53 1    
   105   52   54 1    
   106   52  175 1    
   107   53  176 1    
   108   53  177 1    
   109   53  178 1    
   110   54   55 am   BACKBONE|DICT|INTERRES
   111   54  179 1    
   112   55   56 2    
   113   55   57 1    
   114   57   58 1    
   115   57   59 1    
   116   57  180 1    
   117   58  181 1    
   118   58  182 1    
   119   58  183 1    
   120   59   60 am   BACKBONE|DICT|INTERRES
   121   59  184 1    
   122   60   61 2    
   123   60   62 1    
   124   62   63 1    
   125   62   64 1    
   126   62  185 1    
   127   63  186 1    
   128   63  187 1    
   129   63  188 1    
   130   64   65 am   BACKBONE|DICT|INTERRES
   131   64  189 1    
   132   65   66 2    
   133   67   68 2    
   134   67   69 am   BACKBONE|DICT|INTERRES
   135   69   70 1    
   136   69  190 1    
   137   70   71 1    
   138   70   72 1    
   139   70  191 1    
   140   71  192 1    
   141   71  193 1    
   142   71  194 1    
   143   72   73 2    
   144   72   74 am   BACKBONE|DICT|INTERRES
   145   74   75 1    
   146   74  195 1    
   147   75   76 1    
   148   75   77 1    
   149   75  196 1    
   150   76  197 1    
   151   76  198 1    
   152   76  199 1    
   153   77   78 2    
   154   77   79 am   BACKBONE|DICT|INTERRES
   155   79   80 1    
   156   79  200 1    
   157   80   81 1    
   158   80   82 1    
   159   80  201 1    
   160   81  202 1    
   161   81  203 1    
   162   81  204 1    
   163   82   83 2    
   164   82   84 am   BACKBONE|DICT|INTERRES
   165   84   85 1    
   166   84  205 1    
   167   85   86 1    
   168   85   87 1    
   169   85  206 1    
   170   86  207 1    
   171   86  208 1    
   172   86  209 1    
   173   87   88 2    
   174   87   89 am   BACKBONE|DICT|INTERRES
   175   89   90 1    
   176   89  210 1    
   177   90   91 1    
   178   90   92 1    
   179   90  211 1    
   180   91  212 1    
   181   91  213 1    
   182   91  214 1    
   183   92   93 2    
   184   92   94 am   BACKBONE|DICT|INTERRES
   185   94   95 1    
   186   94  215 1    
   187   95   96 1    
   188   95   97 1    
   189   95  216 1    
   190   96  217 1    
   191   96  218 1    
   192   96  219 1    
   193   97   98 2    
   194   97   99 am   BACKBONE|DICT|INTERRES
   195   99  100 1    
   196   99  220 1    
   197  100  101 1    
   198  100  102 1    
   199  100  221 1    
   200  101  222 1    
   201  101  223 1    
   202  101  224 1    
   203  102  103 2    
   204  102  104 am   BACKBONE|DICT|INTERRES
   205  104  105 1    
   206  104  225 1    
   207  105  106 1    
   208  105  107 1    
   209  105  226 1    
   210  106  227 1    
   211  106  228 1    
   212  106  229 1    
   213  107  108 2    
   214  107  109 am   BACKBONE|DICT|INTERRES
   215  109  110 1    
   216  109  230 1    
   217  110  111 1    
   218  110  112 1    
   219  110  231 1    
   220  111  232 1    
   221  111  233 1    
   222  111  234 1    
   223  112  113 2    
   224  112  114 am   BACKBONE|DICT|INTERRES
   225  114  115 1    
   226  114  235 1    
   227  115  116 1    
   228  115  117 1    
   229  115  236 1    
   230  116  237 1    
   231  116  238 1    
   232  116  239 1    
   233  117  118 2    
   234  117  119 am   BACKBONE|DICT|INTERRES
   235  119  120 1    
   236  119  240 1    
   237  120  121 1    
   238  120  124 1    
   239  120  241 1    
   240  121  122 am   BACKBONE|DICT|INTERRES
   241  121  123 2    
   242  122  242 1    
   243  122  243 1    
   244  124  125 1    
   245  124  244 1    
   246  124  245 1    
   247  125  126 1    
   248  126  246 1    
   249  126  247 1    
@<TRIPOS>SUBSTRUCTURE
     1 UNK         1 GROUP             0       ****    0 ROOT    
