@<TRIPOS>MOLECULE
3R540
247   249    1
SMALL
USER_CHARGES


@<TRIPOS>ATOM
      1 CA         -1.8712  -18.7779  -48.0965 C.3       0 UNK        -0.1800 
      2 C          -1.7609  -17.5713  -47.1760 C.2       0 UNK         0.5000 
      3 O          -2.7351  -17.2043  -46.5179 O.2       0 UNK        -0.5000 
      4 N          -0.5800  -16.9451  -47.1343 N.am      1 UNK        -0.5000 
      5 CA         -0.2869  -15.7226  -46.3792 C.3       1 UNK         0.1400 
      6 C6          0.9197  -14.9586  -46.9762 C.3       23 UNK        -0.0398 
      7 S7          0.6135  -14.3649  -48.6717 S.3       23 UNK        -0.2404 
      8 C8          1.8467  -15.3009  -49.6295 C.3       23 UNK        -0.0205 
      9 C9          1.3742  -16.7046  -49.9808 C.ar      23 UNK        -0.0193 
     10 C10         0.3242  -16.8730  -50.8890 C.ar      23 UNK        -0.1150 
     11 C11        -0.0683  -18.1510  -51.2915 C.ar      23 UNK        -0.0193 
     12 C12         0.6031  -19.2634  -50.7817 C.ar      23 UNK        -0.1150 
     13 C13         1.6484  -19.1173  -49.8647 C.ar      23 UNK        -0.0193 
     14 C14         2.0225  -17.8307  -49.4591 C.ar      23 UNK        -0.1150 
     15 C15         2.4361  -20.3353  -49.3891 C.3       23 UNK        -0.0205 
     16 S16         1.3988  -21.7944  -49.0239 S.3       23 UNK        -0.2404 
     17 C17         1.0681  -21.5549  -47.2537 C.3       23 UNK        -0.0398 
     18 CA          0.2557  -22.7212  -46.6376 C.3       11 UNK         0.1400 
     19 N           0.6539  -22.9758  -45.2531 N.am      11 UNK        -0.5000 
     20 C           0.4172  -24.1099  -44.5805 C.2       10 UNK         0.5000 
     21 O          -0.1229  -25.0972  -45.0777 O.2       10 UNK        -0.5000 
     22 CA          0.8254  -24.1297  -43.0934 C.3       10 UNK         0.1400 
     23 CB          2.2434  -24.6970  -42.9335 C.3       10 UNK        -0.1800 
     24 N           0.7645  -22.8051  -42.4695 N.am      10 UNK        -0.5000 
     25 C          -0.3673  -22.1177  -42.2615 C.2       9 UNK         0.5000 
     26 O          -1.4862  -22.5602  -42.5154 O.2       9 UNK        -0.5000 
     27 CA         -0.2219  -20.6713  -41.7544 C.3       9 UNK         0.1400 
     28 CB         -0.2284  -20.6240  -40.2205 C.3       9 UNK        -0.1800 
     29 N           0.9793  -19.9981  -42.2544 N.am      9 UNK        -0.5000 
     30 C           1.2424  -19.7351  -43.5410 C.2       8 UNK         0.5000 
     31 O           0.4938  -20.0675  -44.4621 O.2       8 UNK        -0.5000 
     32 CA          2.5568  -18.9811  -43.8289 C.3       8 UNK         0.1400 
     33 CB          2.7364  -18.6329  -45.3186 C.3       8 UNK        -0.1800 
     34 N           2.6489  -17.7503  -43.0451 N.am      8 UNK        -0.5000 
     35 C           3.0525  -17.6552  -41.7719 C.2       7 UNK         0.5000 
     36 O           3.3450  -18.6373  -41.0865 O.2       7 UNK        -0.5000 
     37 CA          3.1142  -16.2357  -41.1679 C.3       7 UNK         0.1400 
     38 CB          4.0050  -16.1506  -39.9118 C.3       7 UNK        -0.1800 
     39 N           3.4902  -15.2042  -42.1401 N.am      7 UNK        -0.5000 
     40 C           4.6273  -15.1208  -42.8484 C.2       6 UNK         0.5000 
     41 O           5.5523  -15.9291  -42.7615 O.2       6 UNK        -0.5000 
     42 CA          4.7685  -13.9296  -43.8106 C.3       6 UNK         0.1400 
     43 CB          4.1485  -14.2573  -45.1765 C.3       6 UNK        -0.1800 
     44 N           4.1509  -12.7153  -43.2731 N.am      6 UNK        -0.5000 
     45 C           4.7338  -11.5084  -43.2474 C.2       5 UNK         0.5000 
     46 O           5.8433  -11.2738  -43.7286 O.2       5 UNK        -0.5000 
     47 CA          3.9587  -10.3594  -42.5657 C.3       5 UNK         0.1400 
     48 CB          3.2085   -9.5242  -43.6146 C.3       5 UNK        -0.1800 
     49 N           3.0026  -10.8140  -41.5551 N.am      5 UNK        -0.5000 
     50 C           3.3212  -11.4409  -40.4149 C.2       4 UNK         0.5000 
     51 O           4.4796  -11.5973  -40.0273 O.2       4 UNK        -0.5000 
     52 CA          2.1626  -12.0147  -39.5710 C.3       4 UNK         0.1400 
     53 CB          1.9680  -11.1805  -38.2950 C.3       4 UNK        -0.1800 
     54 N           0.8631  -12.1459  -40.2463 N.am      4 UNK        -0.5000 
     55 C           0.6086  -12.8377  -41.3649 C.2       3 UNK         0.5000 
     56 O           1.4815  -13.3193  -42.0909 O.2       3 UNK        -0.5000 
     57 CA         -0.8733  -12.9836  -41.7564 C.3       3 UNK         0.1400 
     58 CB         -1.2824  -11.8516  -42.7106 C.3       3 UNK        -0.1800 
     59 N          -1.1466  -14.2672  -42.4035 N.am      3 UNK        -0.5000 
     60 C          -0.9645  -15.4752  -41.8504 C.2       2 UNK         0.5000 
     61 O          -0.6336  -15.6469  -40.6765 O.2       2 UNK        -0.5000 
     62 CA         -1.1923  -16.7064  -42.7514 C.3       2 UNK         0.1400 
     63 CB         -2.5246  -17.3816  -42.3973 C.3       2 UNK        -0.1800 
     64 N          -1.1652  -16.4201  -44.1905 N.am      2 UNK        -0.5000 
     65 C          -0.0884  -16.0143  -44.8751 C.2       1 UNK         0.5000 
     66 O           1.0201  -15.8682  -44.3586 O.2       1 UNK        -0.5000 
     67 C          -1.2653  -22.4879  -46.7290 C.2       11 UNK         0.5000 
     68 O          -1.9122  -23.0246  -47.6263 O.2       11 UNK        -0.5000 
     69 N          -1.8184  -21.7474  -45.7566 N.am      12 UNK        -0.5000 
     70 CA         -3.2584  -21.5347  -45.5980 C.3       12 UNK         0.1400 
     71 CB         -3.5016  -20.4095  -44.5864 C.3       12 UNK        -0.1800 
     72 C          -4.0148  -22.8142  -45.1977 C.2       12 UNK         0.5000 
     73 O          -5.1270  -23.0298  -45.6773 O.2       12 UNK        -0.5000 
     74 N          -3.3902  -23.6717  -44.3776 N.am      13 UNK        -0.5000 
     75 CA         -3.8999  -25.0000  -44.0185 C.3       13 UNK         0.1400 
     76 CB         -3.0324  -25.5983  -42.9016 C.3       13 UNK        -0.1800 
     77 C          -3.9785  -25.9622  -45.2226 C.2       13 UNK         0.5000 
     78 O          -4.8565  -26.8243  -45.2564 O.2       13 UNK        -0.5000 
     79 N          -3.0920  -25.7645  -46.2073 N.am      14 UNK        -0.5000 
     80 CA         -3.0881  -26.4428  -47.5052 C.3       14 UNK         0.1400 
     81 CB         -1.6322  -26.5593  -47.9881 C.3       14 UNK        -0.1800 
     82 C          -3.9690  -25.7281  -48.5562 C.2       14 UNK         0.5000 
     83 O          -3.9323  -26.1044  -49.7293 O.2       14 UNK        -0.5000 
     84 N          -4.7261  -24.7041  -48.1341 N.am      15 UNK        -0.5000 
     85 CA         -5.5795  -23.7930  -48.9015 C.3       15 UNK         0.1400 
     86 CB         -6.6814  -24.5392  -49.6794 C.3       15 UNK        -0.1800 
     87 C          -4.7871  -22.8371  -49.8081 C.2       15 UNK         0.5000 
     88 O          -4.9266  -21.6215  -49.6669 O.2       15 UNK        -0.5000 
     89 N          -3.9971  -23.4025  -50.7315 N.am      16 UNK        -0.5000 
     90 CA         -3.1527  -22.7737  -51.7571 C.3       16 UNK         0.1400 
     91 CB         -2.0418  -21.9203  -51.1239 C.3       16 UNK        -0.1800 
     92 C          -3.9306  -21.9814  -52.8272 C.2       16 UNK         0.5000 
     93 O          -3.7179  -22.1993  -54.0197 O.2       16 UNK        -0.5000 
     94 N          -4.8623  -21.1212  -52.3978 N.am      17 UNK        -0.5000 
     95 CA         -5.7946  -20.3615  -53.2364 C.3       17 UNK         0.1400 
     96 CB         -6.5820  -19.3881  -52.3484 C.3       17 UNK        -0.1800 
     97 C          -6.7536  -21.2512  -54.0524 C.2       17 UNK         0.5000 
     98 O          -7.2528  -20.8134  -55.0885 O.2       17 UNK        -0.5000 
     99 N          -6.9460  -22.5022  -53.6085 N.am      18 UNK        -0.5000 
    100 CA        -7.6859  -23.5589  -54.3029 C.3       18 UNK         0.1400 
    101 CB        -7.7607  -24.7906  -53.3874 C.3       18 UNK        -0.1800 
    102 C         -7.0936  -23.9419  -55.6769 C.2       18 UNK         0.5000 
    103 O         -7.8210  -24.4718  -56.5171 O.2       18 UNK        -0.5000 
    104 N         -5.8040  -23.6431  -55.8992 N.am      19 UNK        -0.5000 
    105 CA        -5.1226  -23.7933  -57.1872 C.3       19 UNK         0.1400 
    106 CB        -3.6062  -23.8523  -56.9407 C.3       19 UNK        -0.1800 
    107 C         -5.4586  -22.6688  -58.1910 C.2       19 UNK         0.5000 
    108 O         -5.0125  -22.7416  -59.3366 O.2       19 UNK        -0.5000 
    109 N         -6.1931  -21.6350  -57.7481 N.am      20 UNK        -0.5000 
    110 CA        -6.6323  -20.4256  -58.4580 C.3       20 UNK         0.1400 
    111 CB        -7.4631  -20.7635  -59.7103 C.3       20 UNK        -0.1800 
    112 C         -5.4948  -19.4405  -58.7852 C.2       20 UNK         0.5000 
    113 O         -5.6570  -18.2385  -58.5708 O.2       20 UNK        -0.5000 
    114 N         -4.3516  -19.9584  -59.2516 N.am      21 UNK        -0.5000 
    115 CA        -3.1444  -19.2082  -59.6100 C.3       21 UNK         0.1400 
    116 CB        -2.1162  -20.1815  -60.2061 C.3       21 UNK        -0.1800 
    117 C         -2.5236  -18.4181  -58.4401 C.2       21 UNK         0.5000 
    118 O         -1.8835  -17.3928  -58.6764 O.2       21 UNK        -0.5000 
    119 N         -2.7414  -18.8959  -57.2078 N.am      22 UNK        -0.5000 
    120 CA        -2.3576  -18.2152  -55.9610 C.3       22 UNK         0.1400 
    121 C         -3.3463  -17.0937  -55.5153 C.2       22 UNK         0.5000 
    122 N         -4.4712  -16.8768  -56.1885 N.am      22 UNK        -0.7600 
    123 O         -3.0862  -16.3946  -54.5412 O.2       22 UNK        -0.5000 
    124 C124       -2.0807  -19.2396  -54.8237 C.3       23 UNK        -0.0398 
    125 S125       -0.5466  -18.8792  -53.9063 S.3       23 UNK        -0.2404 
    126 C126       -1.1957  -18.3397  -52.2942 C.3       23 UNK        -0.0205 
    127 H127       -2.3433  -18.4914  -49.0361 H         1 UNK         0.0600 
    128 H128       -0.8940  -19.2023  -48.3207 H         1 UNK         0.0600 
    129 H129       -2.4776  -19.5548  -47.6365 H         1 UNK         0.0600 
    130 H130        0.1738  -17.2861  -47.7134 H         1 UNK         0.3000 
    131 H131       -1.1533  -15.0616  -46.4531 H         1 UNK         0.0600 
    132 H132        1.1378  -14.0740  -46.3756 H         1 UNK         0.0800 
    133 H133        1.8188  -15.5766  -46.9497 H         1 UNK         0.0800 
    134 H134        2.7970  -15.3243  -49.0938 H         1 UNK         0.0800 
    135 H135        2.0419  -14.7608  -50.5571 H         1 UNK         0.0800 
    136 H136       -0.1730  -16.0041  -51.2974 H         1 UNK         0.1150 
    137 H137        0.3267  -20.2486  -51.1243 H         1 UNK         0.1150 
    138 H138        2.8495  -17.7040  -48.7742 H         1 UNK         0.1150 
    139 H139        3.0435  -20.0888  -48.5170 H         1 UNK         0.0800 
    140 H140        3.1369  -20.6070  -50.1793 H         1 UNK         0.0800 
    141 H141        0.5968  -20.5849  -47.0884 H         1 UNK         0.0800 
    142 H142        2.0443  -21.5005  -46.7716 H         1 UNK         0.0800 
    143 H143        0.4778  -23.6317  -47.1994 H         1 UNK         0.0600 
    144 H144        1.0367  -22.1870  -44.7512 H         1 UNK         0.3000 
    145 H145        0.1321  -24.7873  -42.5655 H         1 UNK         0.0600 
    146 H146        2.3154  -25.6950  -43.3680 H         1 UNK         0.0600 
    147 H147        2.5182  -24.7815  -41.8819 H         1 UNK         0.0600 
    148 H148        2.9872  -24.0697  -43.4266 H         1 UNK         0.0600 
    149 H149        1.6433  -22.3715  -42.2272 H         1 UNK         0.3000 
    150 H150       -1.0874  -20.1129  -42.1150 H         1 UNK         0.0600 
    151 H151        0.6369  -21.1363  -39.7979 H         1 UNK         0.0600 
    152 H152       -1.1231  -21.1015  -39.8185 H         1 UNK         0.0600 
    153 H153       -0.2197  -19.5954  -39.8589 H         1 UNK         0.0600 
    154 H154        1.6606  -19.6952  -41.5662 H         1 UNK         0.3000 
    155 H155        3.3791  -19.6402  -43.5435 H         1 UNK         0.0600 
    156 H156        1.8810  -18.0898  -45.7189 H         1 UNK         0.0600 
    157 H157        2.8603  -19.5342  -45.9160 H         1 UNK         0.0600 
    158 H158        3.6241  -18.0203  -45.4774 H         1 UNK         0.0600 
    159 H159        2.3168  -16.9080  -43.5101 H         1 UNK         0.3000 
    160 H160        2.0956  -15.9979  -40.8606 H         1 UNK         0.0600 
    161 H161        5.0345  -16.4395  -40.1253 H         1 UNK         0.0600 
    162 H162        3.6366  -16.8099  -39.1252 H         1 UNK         0.0600 
    163 H163        4.0180  -15.1389  -39.5062 H         1 UNK         0.0600 
    164 H164        2.7620  -14.5111  -42.3027 H         1 UNK         0.3000 
    165 H165        5.8399  -13.7743  -43.9536 H         1 UNK         0.0600 
    166 H166        4.5591  -15.1807  -45.5869 H         1 UNK         0.0600 
    167 H167        3.0709  -14.3829  -45.0932 H         1 UNK         0.0600 
    168 H168        4.3391  -13.4630  -45.8981 H         1 UNK         0.0600 
    169 H169        3.2358  -12.8184  -42.8467 H         1 UNK         0.3000 
    170 H170        4.6901   -9.7163  -42.0721 H         1 UNK         0.0600 
    171 H171        2.7191   -8.6636  -43.1583 H         1 UNK         0.0600 
    172 H172        2.4463  -10.1131  -44.1267 H         1 UNK         0.0600 
    173 H173        3.8933   -9.1426  -44.3731 H         1 UNK         0.0600 
    174 H174        2.0247  -10.7390  -41.7923 H         1 UNK         0.3000 
    175 H175        2.4666  -13.0203  -39.2740 H         1 UNK         0.0600 
    176 H176        2.9014  -11.0888  -37.7378 H         1 UNK         0.0600 
    177 H177        1.6227  -10.1717  -38.5250 H         1 UNK         0.0600 
    178 H178        1.2400  -11.6419  -37.6274 H         1 UNK         0.0600 
    179 H179        0.0787  -11.7536  -39.7455 H         1 UNK         0.3000 
    180 H180       -1.4849  -12.9262  -40.8539 H         1 UNK         0.0600 
    181 H181       -0.7061  -11.8784  -43.6366 H         1 UNK         0.0600 
    182 H182       -1.1220  -10.8747  -42.2525 H         1 UNK         0.0600 
    183 H183       -2.3392  -11.9165  -42.9707 H         1 UNK         0.0600 
    184 H184       -1.4043  -14.2325  -43.3775 H         1 UNK         0.3000 
    185 H185       -0.3869  -17.4096  -42.5349 H         1 UNK         0.0600 
    186 H186       -2.5783  -17.6136  -41.3327 H         1 UNK         0.0600 
    187 H187       -3.3761  -16.7450  -42.6403 H         1 UNK         0.0600 
    188 H188       -2.6416  -18.3198  -42.9339 H         1 UNK         0.0600 
    189 H189       -2.0209  -16.5801  -44.7127 H         1 UNK         0.3000 
    190 H190       -1.2109  -21.3204  -45.0679 H         1 UNK         0.3000 
    191 H191       -3.6614  -21.2161  -46.5615 H         1 UNK         0.0600 
    192 H192       -3.0201  -19.4877  -44.9114 H         1 UNK         0.0600 
    193 H193       -4.5670  -20.2007  -44.4821 H         1 UNK         0.0600 
    194 H194       -3.1179  -20.6642  -43.5987 H         1 UNK         0.0600 
    195 H195       -2.5231  -23.3793  -43.9369 H         1 UNK         0.3000 
    196 H196       -4.9127  -24.8735  -43.6304 H         1 UNK         0.0600 
    197 H197       -3.4354  -26.5547  -42.5664 H         1 UNK         0.0600 
    198 H198       -2.9936  -24.9395  -42.0338 H         1 UNK         0.0600 
    199 H199       -2.0109  -25.7744  -43.2367 H         1 UNK         0.0600 
    200 H200       -2.3940  -25.0427  -46.0848 H         1 UNK         0.3000 
    201 H201       -3.4851  -27.4526  -47.3852 H         1 UNK         0.0600 
    202 H202       -1.5684  -27.1324  -48.9138 H         1 UNK         0.0600 
    203 H203       -1.0116  -27.0675  -47.2497 H         1 UNK         0.0600 
    204 H204       -1.1908  -25.5804  -48.1771 H         1 UNK         0.0600 
    205 H205       -4.6509  -24.4541  -47.1557 H         1 UNK         0.3000 
    206 H206       -6.0831  -23.1705  -48.1609 H         1 UNK         0.0600 
    207 H207       -7.2718  -25.1699  -49.0148 H         1 UNK         0.0600 
    208 H208       -7.3668  -23.8328  -50.1489 H         1 UNK         0.0600 
    209 H209       -6.2781  -25.1726  -50.4694 H         1 UNK         0.0600 
    210 H210       -3.9564  -24.4179  -50.7062 H         1 UNK         0.3000 
    211 H211       -2.6663  -23.5995  -52.2786 H         1 UNK         0.0600 
    212 H212       -1.3769  -21.5333  -51.8960 H         1 UNK         0.0600 
    213 H213       -1.4352  -22.5106  -50.4369 H         1 UNK         0.0600 
    214 H214       -2.4385  -21.0701  -50.5687 H         1 UNK         0.0600 
    215 H215       -4.9767  -21.0372  -51.3894 H         1 UNK         0.3000 
    216 H216       -5.2117  -19.7784  -53.9509 H         1 UNK         0.0600 
    217 H217       -5.9138  -18.6974  -51.8336 H         1 UNK         0.0600 
    218 H218       -7.1656  -19.9162  -51.5931 H         1 UNK         0.0600 
    219 H219       -7.2741  -18.7886  -52.9413 H         1 UNK         0.0600 
    220 H220       -6.4895  -22.7666  -52.7490 H         1 UNK         0.3000 
    221 H221       -8.7007  -23.1954  -54.4765 H         1 UNK         0.0600 
    222 H222       -6.7682  -25.1721  -53.1441 H         1 UNK         0.0600 
    223 H223       -8.2711  -24.5573  -52.4530 H         1 UNK         0.0600 
    224 H224       -8.3158  -25.5998  -53.8639 H         1 UNK         0.0600 
    225 H225       -5.2643  -23.2085  -55.1595 H         1 UNK         0.3000 
    226 H226       -5.4305  -24.7385  -57.6390 H         1 UNK         0.0600 
    227 H227       -3.3507  -24.6336  -56.2247 H         1 UNK         0.0600 
    228 H228       -3.0678  -24.0706  -57.8639 H         1 UNK         0.0600 
    229 H229       -3.2232  -22.9063  -56.5566 H         1 UNK         0.0600 
    230 H230       -6.4826  -21.6563  -56.7762 H         1 UNK         0.3000 
    231 H231       -7.2958  -19.9093  -57.7624 H         1 UNK         0.0600 
    232 H232       -6.8653  -21.2476  -60.4827 H         1 UNK         0.0600 
    233 H233       -7.8860  -19.8589  -60.1489 H         1 UNK         0.0600 
    234 H234       -8.2941  -21.4247  -59.4645 H         1 UNK         0.0600 
    235 H235       -4.3318  -20.9630  -59.4044 H         1 UNK         0.3000 
    236 H236       -3.4218  -18.4860  -60.3803 H         1 UNK         0.0600 
    237 H237       -1.2092  -19.6567  -60.5094 H         1 UNK         0.0600 
    238 H238       -1.8277  -20.9499  -59.4876 H         1 UNK         0.0600 
    239 H239       -2.5125  -20.6812  -61.0903 H         1 UNK         0.0600 
    240 H240       -3.2898  -19.7372  -57.1136 H         1 UNK         0.3000 
    241 H241       -1.4228  -17.6927  -56.1733 H         1 UNK         0.0600 
    242 H242       -4.7144  -17.4119  -57.0148 H         1 UNK         0.3800 
    243 H243       -5.0865  -16.1401  -55.8823 H         1 UNK         0.3800 
    244 H244       -2.9207  -19.3190  -54.1334 H         1 UNK         0.0800 
    245 H245       -1.9552  -20.2433  -55.2329 H         1 UNK         0.0800 
    246 H246       -1.7564  -17.4128  -52.4212 H         1 UNK         0.0800 
    247 H247       -1.9007  -19.0773  -51.9108 H         1 UNK         0.0800 
@<TRIPOS>BOND
     1    1    2 1    
     2    1  127 1    
     3    1  128 1    
     4    1  129 1    
     5    2    3 2    
     6    2    4 am   BACKBONE|DICT|INTERRES
     7    4    5 1    
     8    4  130 1    
     9    5    6 1    
    10    5   65 1    
    11    5  131 1    
    12    6    7 1    
    13    6  132 1    
    14    6  133 1    
    15    7    8 1    
    16    8    9 1    
    17    8  134 1    
    18    8  135 1    
    19    9   10 ar   
    20    9   14 ar   
    21   10   11 ar   
    22   10  136 1    
    23   11   12 ar   
    24   11  126 1    
    25   12   13 ar   
    26   12  137 1    
    27   13   14 ar   
    28   13   15 1    
    29   14  138 1    
    30   15   16 1    
    31   15  139 1    
    32   15  140 1    
    33   16   17 1    
    34   17   18 1    
    35   17  141 1    
    36   17  142 1    
    37   18   19 1    
    38   18   67 1    
    39   18  143 1    
    40   19   20 am   BACKBONE|DICT|INTERRES
    41   19  144 1    
    42   20   21 2    
    43   20   22 1    
    44   22   23 1    
    45   22   24 1    
    46   22  145 1    
    47   23  146 1    
    48   23  147 1    
    49   23  148 1    
    50   24   25 am   BACKBONE|DICT|INTERRES
    51   24  149 1    
    52   25   26 2    
    53   25   27 1    
    54   27   28 1    
    55   27   29 1    
    56   27  150 1    
    57   28  151 1    
    58   28  152 1    
    59   28  153 1    
    60   29   30 am   BACKBONE|DICT|INTERRES
    61   29  154 1    
    62   30   31 2    
    63   30   32 1    
    64   32   33 1    
    65   32   34 1    
    66   32  155 1    
    67   33  156 1    
    68   33  157 1    
    69   33  158 1    
    70   34   35 am   BACKBONE|DICT|INTERRES
    71   34  159 1    
    72   35   36 2    
    73   35   37 1    
    74   37   38 1    
    75   37   39 1    
    76   37  160 1    
    77   38  161 1    
    78   38  162 1    
    79   38  163 1    
    80   39   40 am   BACKBONE|DICT|INTERRES
    81   39  164 1    
    82   40   41 2    
    83   40   42 1    
    84   42   43 1    
    85   42   44 1    
    86   42  165 1    
    87   43  166 1    
    88   43  167 1    
    89   43  168 1    
    90   44   45 am   BACKBONE|DICT|INTERRES
    91   44  169 1    
    92   45   46 2    
    93   45   47 1    
    94   47   48 1    
    95   47   49 1    
    96   47  170 1    
    97   48  171 1    
    98   48  172 1    
    99   48  173 1    
   100   49   50 am   BACKBONE|DICT|INTERRES
   101   49  174 1    
   102   50   51 2    
   103   50   52 1    
   104   52   53 1    
   105   52   54 1    
   106   52  175 1    
   107   53  176 1    
   108   53  177 1    
   109   53  178 1    
   110   54   55 am   BACKBONE|DICT|INTERRES
   111   54  179 1    
   112   55   56 2    
   113   55   57 1    
   114   57   58 1    
   115   57   59 1    
   116   57  180 1    
   117   58  181 1    
   118   58  182 1    
   119   58  183 1    
   120   59   60 am   BACKBONE|DICT|INTERRES
   121   59  184 1    
   122   60   61 2    
   123   60   62 1    
   124   62   63 1    
   125   62   64 1    
   126   62  185 1    
   127   63  186 1    
   128   63  187 1    
   129   63  188 1    
   130   64   65 am   BACKBONE|DICT|INTERRES
   131   64  189 1    
   132   65   66 2    
   133   67   68 2    
   134   67   69 am   BACKBONE|DICT|INTERRES
   135   69   70 1    
   136   69  190 1    
   137   70   71 1    
   138   70   72 1    
   139   70  191 1    
   140   71  192 1    
   141   71  193 1    
   142   71  194 1    
   143   72   73 2    
   144   72   74 am   BACKBONE|DICT|INTERRES
   145   74   75 1    
   146   74  195 1    
   147   75   76 1    
   148   75   77 1    
   149   75  196 1    
   150   76  197 1    
   151   76  198 1    
   152   76  199 1    
   153   77   78 2    
   154   77   79 am   BACKBONE|DICT|INTERRES
   155   79   80 1    
   156   79  200 1    
   157   80   81 1    
   158   80   82 1    
   159   80  201 1    
   160   81  202 1    
   161   81  203 1    
   162   81  204 1    
   163   82   83 2    
   164   82   84 am   BACKBONE|DICT|INTERRES
   165   84   85 1    
   166   84  205 1    
   167   85   86 1    
   168   85   87 1    
   169   85  206 1    
   170   86  207 1    
   171   86  208 1    
   172   86  209 1    
   173   87   88 2    
   174   87   89 am   BACKBONE|DICT|INTERRES
   175   89   90 1    
   176   89  210 1    
   177   90   91 1    
   178   90   92 1    
   179   90  211 1    
   180   91  212 1    
   181   91  213 1    
   182   91  214 1    
   183   92   93 2    
   184   92   94 am   BACKBONE|DICT|INTERRES
   185   94   95 1    
   186   94  215 1    
   187   95   96 1    
   188   95   97 1    
   189   95  216 1    
   190   96  217 1    
   191   96  218 1    
   192   96  219 1    
   193   97   98 2    
   194   97   99 am   BACKBONE|DICT|INTERRES
   195   99  100 1    
   196   99  220 1    
   197  100  101 1    
   198  100  102 1    
   199  100  221 1    
   200  101  222 1    
   201  101  223 1    
   202  101  224 1    
   203  102  103 2    
   204  102  104 am   BACKBONE|DICT|INTERRES
   205  104  105 1    
   206  104  225 1    
   207  105  106 1    
   208  105  107 1    
   209  105  226 1    
   210  106  227 1    
   211  106  228 1    
   212  106  229 1    
   213  107  108 2    
   214  107  109 am   BACKBONE|DICT|INTERRES
   215  109  110 1    
   216  109  230 1    
   217  110  111 1    
   218  110  112 1    
   219  110  231 1    
   220  111  232 1    
   221  111  233 1    
   222  111  234 1    
   223  112  113 2    
   224  112  114 am   BACKBONE|DICT|INTERRES
   225  114  115 1    
   226  114  235 1    
   227  115  116 1    
   228  115  117 1    
   229  115  236 1    
   230  116  237 1    
   231  116  238 1    
   232  116  239 1    
   233  117  118 2    
   234  117  119 am   BACKBONE|DICT|INTERRES
   235  119  120 1    
   236  119  240 1    
   237  120  121 1    
   238  120  124 1    
   239  120  241 1    
   240  121  122 am   BACKBONE|DICT|INTERRES
   241  121  123 2    
   242  122  242 1    
   243  122  243 1    
   244  124  125 1    
   245  124  244 1    
   246  124  245 1    
   247  125  126 1    
   248  126  246 1    
   249  126  247 1    
@<TRIPOS>SUBSTRUCTURE
     1 UNK         1 GROUP             0       ****    0 ROOT    
