@<TRIPOS>MOLECULE
3R540
247   249    1
SMALL
USER_CHARGES


@<TRIPOS>ATOM
      1 CA         -6.9576  -14.7388  -49.3931 C.3       0 UNK        -0.1800 
      2 C          -5.5912  -14.2622  -49.8659 C.2       0 UNK         0.5000 
      3 O          -5.4866  -13.1854  -50.4527 O.2       0 UNK        -0.5000 
      4 N          -4.5480  -15.0615  -49.6128 N.am      1 UNK        -0.5000 
      5 CA         -3.1524  -14.7762  -49.9688 C.3       1 UNK         0.1400 
      6 C6         -2.2682  -16.0402  -49.8714 C.3       23 UNK        -0.0398 
      7 S7         -2.3902  -16.9262  -48.2736 S.3       23 UNK        -0.2404 
      8 C8         -0.6464  -17.0412  -47.7791 C.3       23 UNK        -0.0205 
      9 C9          0.1818  -17.8374  -48.7779 C.ar      23 UNK        -0.0193 
     10 C10         1.0901  -17.1909  -49.6225 C.ar      23 UNK        -0.1150 
     11 C11         1.8733  -17.9219  -50.5190 C.ar      23 UNK        -0.0193 
     12 C12         1.7458  -19.3131  -50.5647 C.ar      23 UNK        -0.1150 
     13 C13         0.8334  -19.9702  -49.7358 C.ar      23 UNK        -0.0193 
     14 C14         0.0533  -19.2265  -48.8452 C.ar      23 UNK        -0.1150 
     15 C15         0.6745  -21.4799  -49.8246 C.3       23 UNK        -0.0205 
     16 S16         1.9409  -22.3865  -48.8734 S.3       23 UNK        -0.2404 
     17 C17         1.6049  -21.8957  -47.1461 C.3       23 UNK        -0.0398 
     18 CA          0.6313  -22.8454  -46.4068 C.3       11 UNK         0.1400 
     19 N           0.7973  -22.7689  -44.9499 N.am      11 UNK        -0.5000 
     20 C           0.1883  -23.5833  -44.0746 C.2       10 UNK         0.5000 
     21 O          -0.5718  -24.4874  -44.4235 O.2       10 UNK        -0.5000 
     22 CA          0.3884  -23.3093  -42.5727 C.3       10 UNK         0.1400 
     23 CB          0.3821  -24.5985  -41.7247 C.3       10 UNK        -0.1800 
     24 N           1.5477  -22.4675  -42.2687 N.am      10 UNK        -0.5000 
     25 C           2.8497  -22.7790  -42.3632 C.2       9 UNK         0.5000 
     26 O           3.2632  -23.8661  -42.7674 O.2       9 UNK        -0.5000 
     27 CA          3.8719  -21.6984  -41.9418 C.3       9 UNK         0.1400 
     28 CB          4.8304  -21.3694  -43.0981 C.3       9 UNK        -0.1800 
     29 N           3.2513  -20.4572  -41.4696 N.am      9 UNK        -0.5000 
     30 C           2.6780  -20.2853  -40.2702 C.2       8 UNK         0.5000 
     31 O           2.6914  -21.1353  -39.3797 O.2       8 UNK        -0.5000 
     32 CA          1.9157  -18.9646  -40.0472 C.3       8 UNK         0.1400 
     33 CB          2.8443  -17.9049  -39.4360 C.3       8 UNK        -0.1800 
     34 N           1.3020  -18.4354  -41.2703 N.am      8 UNK        -0.5000 
     35 C           0.3166  -19.0321  -41.9583 C.2       7 UNK         0.5000 
     36 O          -0.2087  -20.0901  -41.6135 O.2       7 UNK        -0.5000 
     37 CA         -0.1039  -18.3827  -43.2914 C.3       7 UNK         0.1400 
     38 CB         -1.0366  -17.1848  -43.0657 C.3       7 UNK        -0.1800 
     39 N           1.0482  -17.9698  -44.0912 N.am      7 UNK        -0.5000 
     40 C           1.9492  -18.8177  -44.6069 C.2       6 UNK         0.5000 
     41 O           1.8471  -20.0438  -44.5393 O.2       6 UNK        -0.5000 
     42 CA          3.1930  -18.1931  -45.2618 C.3       6 UNK         0.1400 
     43 CB          2.9391  -17.8674  -46.7370 C.3       6 UNK        -0.1800 
     44 N           3.6252  -16.9809  -44.5673 N.am      6 UNK        -0.5000 
     45 C           4.2560  -16.9777  -43.3856 C.2       5 UNK         0.5000 
     46 O           4.5546  -17.9996  -42.7689 O.2       5 UNK        -0.5000 
     47 CA          4.5731  -15.5997  -42.7765 C.3       5 UNK         0.1400 
     48 CB          5.8581  -15.0194  -43.3858 C.3       5 UNK        -0.1800 
     49 N           3.4794  -14.6404  -42.9433 N.am      5 UNK        -0.5000 
     50 C           2.2775  -14.7612  -42.3632 C.2       4 UNK         0.5000 
     51 O           1.9700  -15.6904  -41.6196 O.2       4 UNK        -0.5000 
     52 CA          1.2264  -13.6879  -42.6945 C.3       4 UNK         0.1400 
     53 CB          1.3489  -12.5002  -41.7286 C.3       4 UNK        -0.1800 
     54 N           1.2785  -13.1970  -44.0729 N.am      4 UNK        -0.5000 
     55 C           1.1457  -13.9499  -45.1722 C.2       3 UNK         0.5000 
     56 O           1.0494  -15.1799  -45.1605 O.2       3 UNK        -0.5000 
     57 CA          1.0752  -13.1874  -46.5057 C.3       3 UNK         0.1400 
     58 CB          1.9475  -13.8447  -47.5874 C.3       3 UNK        -0.1800 
     59 N          -0.3140  -13.1116  -46.9580 N.am      3 UNK        -0.5000 
     60 C          -1.2316  -12.2792  -46.4466 C.2       2 UNK         0.5000 
     61 O          -0.9656  -11.4502  -45.5744 O.2       2 UNK        -0.5000 
     62 CA         -2.6904  -12.3788  -46.9487 C.3       2 UNK         0.1400 
     63 CB         -3.1909  -11.0260  -47.4948 C.3       2 UNK        -0.1800 
     64 N          -2.9832  -13.4588  -47.9018 N.am      2 UNK        -0.5000 
     65 C          -2.5491  -13.6043  -49.1633 C.2       1 UNK         0.5000 
     66 O          -1.7185  -12.8676  -49.6949 O.2       1 UNK        -0.5000 
     67 C          -0.8343  -22.5837  -46.8123 C.2       11 UNK         0.5000 
     68 O          -1.3754  -23.2955  -47.6561 O.2       11 UNK        -0.5000 
     69 N          -1.4661  -21.6100  -46.1418 N.am      12 UNK        -0.5000 
     70 CA         -2.8707  -21.2371  -46.3193 C.3       12 UNK         0.1400 
     71 CB         -3.0994  -19.8721  -45.6511 C.3       12 UNK        -0.1800 
     72 C          -3.8783  -22.2830  -45.7937 C.2       12 UNK         0.5000 
     73 O          -5.0688  -22.1601  -46.0834 O.2       12 UNK        -0.5000 
     74 N          -3.4018  -23.2741  -45.0275 N.am      13 UNK        -0.5000 
     75 CA         -4.1820  -24.4302  -44.5900 C.3       13 UNK         0.1400 
     76 CB         -3.8353  -24.7593  -43.1291 C.3       13 UNK        -0.1800 
     77 C          -3.9156  -25.6400  -45.5023 C.2       13 UNK         0.5000 
     78 O          -4.8569  -26.3533  -45.8509 O.2       13 UNK        -0.5000 
     79 N          -2.6431  -25.8512  -45.8703 N.am      14 UNK        -0.5000 
     80 CA         -2.1828  -26.9458  -46.7251 C.3       14 UNK         0.1400 
     81 CB         -0.6475  -26.9956  -46.6931 C.3       14 UNK        -0.1800 
     82 C          -2.6879  -26.8489  -48.1765 C.2       14 UNK         0.5000 
     83 O          -3.0285  -27.8761  -48.7654 O.2       14 UNK        -0.5000 
     84 N          -2.7309  -25.6282  -48.7202 N.am      15 UNK        -0.5000 
     85 CA         -3.2373  -25.3115  -50.0510 C.3       15 UNK         0.1400 
     86 CB         -2.0948  -24.7058  -50.8832 C.3       15 UNK        -0.1800 
     87 C          -4.3901  -24.3069  -49.9308 C.2       15 UNK         0.5000 
     88 O          -4.4319  -23.5219  -48.9807 O.2       15 UNK        -0.5000 
     89 N          -5.2809  -24.3014  -50.9304 N.am      16 UNK        -0.5000 
     90 CA         -6.3921  -23.3558  -51.0710 C.3       16 UNK         0.1400 
     91 CB         -7.4564  -23.9755  -51.9943 C.3       16 UNK        -0.1800 
     92 C          -5.8968  -21.9866  -51.5814 C.2       16 UNK         0.5000 
     93 O          -6.3078  -21.5292  -52.6496 O.2       16 UNK        -0.5000 
     94 N          -4.9872  -21.3670  -50.8201 N.am      17 UNK        -0.5000 
     95 CA         -4.1968  -20.1858  -51.1800 C.3       17 UNK         0.1400 
     96 CB         -3.1447  -19.9520  -50.0896 C.3       17 UNK        -0.1800 
     97 C          -4.9999  -18.8985  -51.4590 C.2       17 UNK         0.5000 
     98 O          -4.4259  -17.9286  -51.9503 O.2       17 UNK        -0.5000 
     99 N          -6.3111  -18.9059  -51.1922 N.am      18 UNK        -0.5000 
    100 CA        -7.2443  -17.8769  -51.6497 C.3       18 UNK         0.1400 
    101 CB        -8.5882  -18.0671  -50.9309 C.3       18 UNK        -0.1800 
    102 C         -7.4395  -17.8703  -53.1828 C.2       18 UNK         0.5000 
    103 O         -7.8417  -16.8397  -53.7244 O.2       18 UNK        -0.5000 
    104 N         -7.1575  -19.0001  -53.8497 N.am      19 UNK        -0.5000 
    105 CA        -7.2630  -19.1628  -55.3006 C.3       19 UNK         0.1400 
    106 CB        -8.5393  -19.9560  -55.6247 C.3       19 UNK        -0.1800 
    107 C         -6.0309  -19.8490  -55.9185 C.2       19 UNK         0.5000 
    108 O         -5.7000  -19.5540  -57.0679 O.2       19 UNK        -0.5000 
    109 N         -5.3857  -20.7638  -55.1813 N.am      20 UNK        -0.5000 
    110 CA        -4.2512  -21.5606  -55.6457 C.3       20 UNK         0.1400 
    111 CB        -4.0765  -22.7784  -54.7206 C.3       20 UNK        -0.1800 
    112 C         -2.9571  -20.7301  -55.7289 C.2       20 UNK         0.5000 
    113 O         -2.2942  -20.5345  -54.7075 O.2       20 UNK        -0.5000 
    114 N         -2.6216  -20.2786  -56.9465 N.am      21 UNK        -0.5000 
    115 CA        -1.3962  -19.5715  -57.3369 C.3       21 UNK         0.1400 
    116 CB        -0.1999  -20.5502  -57.3361 C.3       21 UNK        -0.1800 
    117 C         -1.1552  -18.2949  -56.5037 C.2       21 UNK         0.5000 
    118 O         -1.8184  -17.2848  -56.7435 O.2       21 UNK        -0.5000 
    119 N         -0.2239  -18.3696  -55.5444 N.am      22 UNK        -0.5000 
    120 CA         0.0518  -17.3377  -54.5322 C.3       22 UNK         0.1400 
    121 C         -1.1394  -17.0743  -53.5602 C.2       22 UNK         0.5000 
    122 N         -2.0322  -18.0325  -53.3513 N.am      22 UNK        -0.7600 
    123 O         -1.2783  -15.9765  -53.0287 O.2       22 UNK        -0.5000 
    124 C124        1.3597  -17.6859  -53.7754 C.3       23 UNK        -0.0398 
    125 S125        2.0566  -16.3137  -52.7912 S.3       23 UNK        -0.2404 
    126 C126        2.8675  -17.2090  -51.4254 C.3       23 UNK        -0.0205 
    127 H127       -7.3510  -14.0582  -48.6381 H         1 UNK         0.0600 
    128 H128       -6.9115  -15.7384  -48.9599 H         1 UNK         0.0600 
    129 H129       -7.6576  -14.7630  -50.2284 H         1 UNK         0.0600 
    130 H130       -4.6935  -15.9387  -49.1333 H         1 UNK         0.3000 
    131 H131       -3.1469  -14.4647  -51.0159 H         1 UNK         0.0600 
    132 H132       -1.2322  -15.7868  -50.0972 H         1 UNK         0.0800 
    133 H133       -2.5575  -16.7410  -50.6519 H         1 UNK         0.0800 
    134 H134       -0.2495  -16.0358  -47.6519 H         1 UNK         0.0800 
    135 H135       -0.5834  -17.5151  -46.7984 H         1 UNK         0.0800 
    136 H136        1.1905  -16.1162  -49.5907 H         1 UNK         0.1150 
    137 H137        2.3507  -19.8875  -51.2522 H         1 UNK         0.1150 
    138 H138       -0.6593  -19.7253  -48.2042 H         1 UNK         0.1150 
    139 H139       -0.3228  -21.7760  -49.5041 H         1 UNK         0.0800 
    140 H140        0.7455  -21.7855  -50.8695 H         1 UNK         0.0800 
    141 H141        1.2758  -20.8593  -47.0910 H         1 UNK         0.0800 
    142 H142        2.5719  -21.9109  -46.6412 H         1 UNK         0.0800 
    143 H143        0.8731  -23.8710  -46.6933 H         1 UNK         0.0600 
    144 H144        1.3573  -21.9982  -44.5979 H         1 UNK         0.3000 
    145 H145       -0.4818  -22.7266  -42.2688 H         1 UNK         0.0600 
    146 H146        0.5282  -24.3762  -40.6677 H         1 UNK         0.0600 
    147 H147       -0.5701  -25.1219  -41.8151 H         1 UNK         0.0600 
    148 H148        1.1624  -25.2939  -42.0343 H         1 UNK         0.0600 
    149 H149        1.3119  -21.5346  -41.9517 H         1 UNK         0.3000 
    150 H150        4.4632  -22.1184  -41.1258 H         1 UNK         0.0600 
    151 H151        5.3813  -22.2555  -43.4152 H         1 UNK         0.0600 
    152 H152        5.5661  -20.6216  -42.8017 H         1 UNK         0.0600 
    153 H153        4.2963  -20.9896  -43.9682 H         1 UNK         0.0600 
    154 H154        3.2470  -19.6815  -42.1202 H         1 UNK         0.3000 
    155 H155        1.1140  -19.1655  -39.3336 H         1 UNK         0.0600 
    156 H156        3.3082  -18.2714  -38.5194 H         1 UNK         0.0600 
    157 H157        2.2939  -16.9992  -39.1809 H         1 UNK         0.0600 
    158 H158        3.6450  -17.6282  -40.1226 H         1 UNK         0.0600 
    159 H159        1.6437  -17.5308  -41.5865 H         1 UNK         0.3000 
    160 H160       -0.6529  -19.1311  -43.8656 H         1 UNK         0.0600 
    161 H161       -0.5566  -16.4059  -42.4745 H         1 UNK         0.0600 
    162 H162       -1.9393  -17.4899  -42.5354 H         1 UNK         0.0600 
    163 H163       -1.3475  -16.7434  -44.0131 H         1 UNK         0.0600 
    164 H164        1.1743  -16.9737  -44.2400 H         1 UNK         0.3000 
    165 H165        3.9991  -18.9278  -45.2155 H         1 UNK         0.0600 
    166 H166        3.8398  -17.4892  -47.2203 H         1 UNK         0.0600 
    167 H167        2.6258  -18.7553  -47.2870 H         1 UNK         0.0600 
    168 H168        2.1604  -17.1141  -46.8472 H         1 UNK         0.0600 
    169 H169        3.3565  -16.0993  -44.9797 H         1 UNK         0.3000 
    170 H170        4.7378  -15.7412  -41.7061 H         1 UNK         0.0600 
    171 H171        6.6943  -15.7089  -43.2614 H         1 UNK         0.0600 
    172 H172        5.7480  -14.8260  -44.4536 H         1 UNK         0.0600 
    173 H173        6.1360  -14.0831  -42.9015 H         1 UNK         0.0600 
    174 H174        3.6483  -13.8473  -43.5441 H         1 UNK         0.3000 
    175 H175        0.2432  -14.1391  -42.5501 H         1 UNK         0.0600 
    176 H176        1.2899  -12.8323  -40.6911 H         1 UNK         0.0600 
    177 H177        2.2974  -11.9761  -41.8525 H         1 UNK         0.0600 
    178 H178        0.5444  -11.7809  -41.8837 H         1 UNK         0.0600 
    179 H179        1.3075  -12.1933  -44.1842 H         1 UNK         0.3000 
    180 H180        1.4514  -12.1727  -46.3581 H         1 UNK         0.0600 
    181 H181        1.6994  -14.8929  -47.7358 H         1 UNK         0.0600 
    182 H182        3.0012  -13.8023  -47.3097 H         1 UNK         0.0600 
    183 H183        1.8431  -13.3351  -48.5455 H         1 UNK         0.0600 
    184 H184       -0.6023  -13.7583  -47.6756 H         1 UNK         0.3000 
    185 H185       -3.2853  -12.6084  -46.0636 H         1 UNK         0.0600 
    186 H186       -3.1196  -10.2455  -46.7363 H         1 UNK         0.0600 
    187 H187       -4.2359  -11.0857  -47.7992 H         1 UNK         0.0600 
    188 H188       -2.6091  -10.6955  -48.3556 H         1 UNK         0.0600 
    189 H189       -3.6387  -14.1521  -47.5690 H         1 UNK         0.3000 
    190 H190       -0.9486  -21.1003  -45.4412 H         1 UNK         0.3000 
    191 H191       -3.0550  -21.1322  -47.3893 H         1 UNK         0.0600 
    192 H192       -2.9587  -19.9244  -44.5709 H         1 UNK         0.0600 
    193 H193       -4.1131  -19.5132  -45.8331 H         1 UNK         0.0600 
    194 H194       -2.4168  -19.1190  -46.0442 H         1 UNK         0.0600 
    195 H195       -2.4072  -23.3142  -44.8557 H         1 UNK         0.3000 
    196 H196       -5.2499  -24.2059  -44.6348 H         1 UNK         0.0600 
    197 H197       -4.4308  -25.5991  -42.7690 H         1 UNK         0.0600 
    198 H198       -4.0405  -23.9113  -42.4756 H         1 UNK         0.0600 
    199 H199       -2.7862  -25.0283  -43.0085 H         1 UNK         0.0600 
    200 H200       -1.9158  -25.2567  -45.4837 H         1 UNK         0.3000 
    201 H201       -2.5616  -27.8791  -46.3036 H         1 UNK         0.0600 
    202 H202       -0.2778  -27.1348  -45.6769 H         1 UNK         0.0600 
    203 H203       -0.2090  -26.0775  -47.0856 H         1 UNK         0.0600 
    204 H204       -0.2700  -27.8239  -47.2939 H         1 UNK         0.0600 
    205 H205       -2.4466  -24.8230  -48.1666 H         1 UNK         0.3000 
    206 H206       -3.6083  -26.2076  -50.5525 H         1 UNK         0.0600 
    207 H207       -1.2633  -25.4044  -50.9764 H         1 UNK         0.0600 
    208 H208       -2.4289  -24.4597  -51.8919 H         1 UNK         0.0600 
    209 H209       -1.7111  -23.7896  -50.4318 H         1 UNK         0.0600 
    210 H210       -5.1581  -24.9522  -51.6927 H         1 UNK         0.3000 
    211 H211       -6.8496  -23.1949  -50.0925 H         1 UNK         0.0600 
    212 H212       -8.3158  -23.3123  -52.1009 H         1 UNK         0.0600 
    213 H213       -7.8249  -24.9197  -51.5930 H         1 UNK         0.0600 
    214 H214       -7.0627  -24.1659  -52.9936 H         1 UNK         0.0600 
    215 H215       -4.7136  -21.8453  -49.9665 H         1 UNK         0.3000 
    216 H216       -3.6695  -20.4281  -52.1050 H         1 UNK         0.0600 
    217 H217       -2.4366  -19.1807  -50.3937 H         1 UNK         0.0600 
    218 H218       -2.5686  -20.8561  -49.8927 H         1 UNK         0.0600 
    219 H219       -3.6039  -19.6311  -49.1544 H         1 UNK         0.0600 
    220 H220       -6.7102  -19.7410  -50.7905 H         1 UNK         0.3000 
    221 H221       -6.8398  -16.9026  -51.3704 H         1 UNK         0.0600 
    222 H222       -9.0355  -19.0341  -51.1642 H         1 UNK         0.0600 
    223 H223       -8.4697  -18.0021  -49.8491 H         1 UNK         0.0600 
    224 H224       -9.3009  -17.2954  -51.2251 H         1 UNK         0.0600 
    225 H225       -6.8470  -19.8112  -53.3241 H         1 UNK         0.3000 
    226 H226       -7.3398  -18.1852  -55.7810 H         1 UNK         0.0600 
    227 H227       -9.4281  -19.4303  -55.2755 H         1 UNK         0.0600 
    228 H228       -8.6489  -20.1014  -56.7002 H         1 UNK         0.0600 
    229 H229       -8.5274  -20.9416  -55.1573 H         1 UNK         0.0600 
    230 H230       -5.7265  -20.9873  -54.2501 H         1 UNK         0.3000 
    231 H231       -4.4847  -21.9420  -56.6422 H         1 UNK         0.0600 
    232 H232       -4.9844  -23.3807  -54.6838 H         1 UNK         0.0600 
    233 H233       -3.8297  -22.4830  -53.7006 H         1 UNK         0.0600 
    234 H234       -3.2716  -23.4231  -55.0755 H         1 UNK         0.0600 
    235 H235       -3.2888  -20.4196  -57.6929 H         1 UNK         0.3000 
    236 H236       -1.5443  -19.2389  -58.3654 H         1 UNK         0.0600 
    237 H237        0.7210  -20.0470  -57.6340 H         1 UNK         0.0600 
    238 H238       -0.0329  -21.0023  -56.3578 H         1 UNK         0.0600 
    239 H239       -0.3639  -21.3612  -58.0458 H         1 UNK         0.0600 
    240 H240        0.2370  -19.2569  -55.4093 H         1 UNK         0.3000 
    241 H241        0.2201  -16.4061  -55.0757 H         1 UNK         0.0600 
    242 H242       -2.8464  -17.8430  -52.7723 H         1 UNK         0.3800 
    243 H243       -1.9631  -18.9263  -53.8306 H         1 UNK         0.3800 
    244 H244        1.1940  -18.5582  -53.1440 H         1 UNK         0.0800 
    245 H245        2.1314  -17.9787  -54.4887 H         1 UNK         0.0800 
    246 H246        3.5906  -17.9146  -51.8375 H         1 UNK         0.0800 
    247 H247        3.4428  -16.4972  -50.8318 H         1 UNK         0.0800 
@<TRIPOS>BOND
     1    1    2 1    
     2    1  127 1    
     3    1  128 1    
     4    1  129 1    
     5    2    3 2    
     6    2    4 am   BACKBONE|DICT|INTERRES
     7    4    5 1    
     8    4  130 1    
     9    5    6 1    
    10    5   65 1    
    11    5  131 1    
    12    6    7 1    
    13    6  132 1    
    14    6  133 1    
    15    7    8 1    
    16    8    9 1    
    17    8  134 1    
    18    8  135 1    
    19    9   10 ar   
    20    9   14 ar   
    21   10   11 ar   
    22   10  136 1    
    23   11   12 ar   
    24   11  126 1    
    25   12   13 ar   
    26   12  137 1    
    27   13   14 ar   
    28   13   15 1    
    29   14  138 1    
    30   15   16 1    
    31   15  139 1    
    32   15  140 1    
    33   16   17 1    
    34   17   18 1    
    35   17  141 1    
    36   17  142 1    
    37   18   19 1    
    38   18   67 1    
    39   18  143 1    
    40   19   20 am   BACKBONE|DICT|INTERRES
    41   19  144 1    
    42   20   21 2    
    43   20   22 1    
    44   22   23 1    
    45   22   24 1    
    46   22  145 1    
    47   23  146 1    
    48   23  147 1    
    49   23  148 1    
    50   24   25 am   BACKBONE|DICT|INTERRES
    51   24  149 1    
    52   25   26 2    
    53   25   27 1    
    54   27   28 1    
    55   27   29 1    
    56   27  150 1    
    57   28  151 1    
    58   28  152 1    
    59   28  153 1    
    60   29   30 am   BACKBONE|DICT|INTERRES
    61   29  154 1    
    62   30   31 2    
    63   30   32 1    
    64   32   33 1    
    65   32   34 1    
    66   32  155 1    
    67   33  156 1    
    68   33  157 1    
    69   33  158 1    
    70   34   35 am   BACKBONE|DICT|INTERRES
    71   34  159 1    
    72   35   36 2    
    73   35   37 1    
    74   37   38 1    
    75   37   39 1    
    76   37  160 1    
    77   38  161 1    
    78   38  162 1    
    79   38  163 1    
    80   39   40 am   BACKBONE|DICT|INTERRES
    81   39  164 1    
    82   40   41 2    
    83   40   42 1    
    84   42   43 1    
    85   42   44 1    
    86   42  165 1    
    87   43  166 1    
    88   43  167 1    
    89   43  168 1    
    90   44   45 am   BACKBONE|DICT|INTERRES
    91   44  169 1    
    92   45   46 2    
    93   45   47 1    
    94   47   48 1    
    95   47   49 1    
    96   47  170 1    
    97   48  171 1    
    98   48  172 1    
    99   48  173 1    
   100   49   50 am   BACKBONE|DICT|INTERRES
   101   49  174 1    
   102   50   51 2    
   103   50   52 1    
   104   52   53 1    
   105   52   54 1    
   106   52  175 1    
   107   53  176 1    
   108   53  177 1    
   109   53  178 1    
   110   54   55 am   BACKBONE|DICT|INTERRES
   111   54  179 1    
   112   55   56 2    
   113   55   57 1    
   114   57   58 1    
   115   57   59 1    
   116   57  180 1    
   117   58  181 1    
   118   58  182 1    
   119   58  183 1    
   120   59   60 am   BACKBONE|DICT|INTERRES
   121   59  184 1    
   122   60   61 2    
   123   60   62 1    
   124   62   63 1    
   125   62   64 1    
   126   62  185 1    
   127   63  186 1    
   128   63  187 1    
   129   63  188 1    
   130   64   65 am   BACKBONE|DICT|INTERRES
   131   64  189 1    
   132   65   66 2    
   133   67   68 2    
   134   67   69 am   BACKBONE|DICT|INTERRES
   135   69   70 1    
   136   69  190 1    
   137   70   71 1    
   138   70   72 1    
   139   70  191 1    
   140   71  192 1    
   141   71  193 1    
   142   71  194 1    
   143   72   73 2    
   144   72   74 am   BACKBONE|DICT|INTERRES
   145   74   75 1    
   146   74  195 1    
   147   75   76 1    
   148   75   77 1    
   149   75  196 1    
   150   76  197 1    
   151   76  198 1    
   152   76  199 1    
   153   77   78 2    
   154   77   79 am   BACKBONE|DICT|INTERRES
   155   79   80 1    
   156   79  200 1    
   157   80   81 1    
   158   80   82 1    
   159   80  201 1    
   160   81  202 1    
   161   81  203 1    
   162   81  204 1    
   163   82   83 2    
   164   82   84 am   BACKBONE|DICT|INTERRES
   165   84   85 1    
   166   84  205 1    
   167   85   86 1    
   168   85   87 1    
   169   85  206 1    
   170   86  207 1    
   171   86  208 1    
   172   86  209 1    
   173   87   88 2    
   174   87   89 am   BACKBONE|DICT|INTERRES
   175   89   90 1    
   176   89  210 1    
   177   90   91 1    
   178   90   92 1    
   179   90  211 1    
   180   91  212 1    
   181   91  213 1    
   182   91  214 1    
   183   92   93 2    
   184   92   94 am   BACKBONE|DICT|INTERRES
   185   94   95 1    
   186   94  215 1    
   187   95   96 1    
   188   95   97 1    
   189   95  216 1    
   190   96  217 1    
   191   96  218 1    
   192   96  219 1    
   193   97   98 2    
   194   97   99 am   BACKBONE|DICT|INTERRES
   195   99  100 1    
   196   99  220 1    
   197  100  101 1    
   198  100  102 1    
   199  100  221 1    
   200  101  222 1    
   201  101  223 1    
   202  101  224 1    
   203  102  103 2    
   204  102  104 am   BACKBONE|DICT|INTERRES
   205  104  105 1    
   206  104  225 1    
   207  105  106 1    
   208  105  107 1    
   209  105  226 1    
   210  106  227 1    
   211  106  228 1    
   212  106  229 1    
   213  107  108 2    
   214  107  109 am   BACKBONE|DICT|INTERRES
   215  109  110 1    
   216  109  230 1    
   217  110  111 1    
   218  110  112 1    
   219  110  231 1    
   220  111  232 1    
   221  111  233 1    
   222  111  234 1    
   223  112  113 2    
   224  112  114 am   BACKBONE|DICT|INTERRES
   225  114  115 1    
   226  114  235 1    
   227  115  116 1    
   228  115  117 1    
   229  115  236 1    
   230  116  237 1    
   231  116  238 1    
   232  116  239 1    
   233  117  118 2    
   234  117  119 am   BACKBONE|DICT|INTERRES
   235  119  120 1    
   236  119  240 1    
   237  120  121 1    
   238  120  124 1    
   239  120  241 1    
   240  121  122 am   BACKBONE|DICT|INTERRES
   241  121  123 2    
   242  122  242 1    
   243  122  243 1    
   244  124  125 1    
   245  124  244 1    
   246  124  245 1    
   247  125  126 1    
   248  126  246 1    
   249  126  247 1    
@<TRIPOS>SUBSTRUCTURE
     1 UNK         1 GROUP             0       ****    0 ROOT    
