@<TRIPOS>MOLECULE
3R540
247   249    1
SMALL
USER_CHARGES


@<TRIPOS>ATOM
      1 CA         -3.4722  -14.0075  -49.6170 C.3       0 UNK        -0.1800 
      2 C          -2.0734  -13.4500  -49.3954 C.2       0 UNK         0.5000 
      3 O          -1.9106  -12.2408  -49.2337 O.2       0 UNK        -0.5000 
      4 N          -1.0645  -14.3304  -49.3931 N.am      1 UNK        -0.5000 
      5 CA          0.3589  -13.9936  -49.2390 C.3       1 UNK         0.1400 
      6 C6          1.2860  -15.1533  -49.6835 C.3       23 UNK        -0.0398 
      7 S7          0.9790  -15.6582  -51.4117 S.3       23 UNK        -0.2404 
      8 C8          0.1175  -17.2454  -51.1938 C.3       23 UNK        -0.0205 
      9 C9          0.9842  -18.4130  -51.6279 C.ar      23 UNK        -0.0193 
     10 C10         0.9517  -18.8392  -52.9570 C.ar      23 UNK        -0.1150 
     11 C11         1.7158  -19.9307  -53.3726 C.ar      23 UNK        -0.0193 
     12 C12         2.5337  -20.5877  -52.4499 C.ar      23 UNK        -0.1150 
     13 C13         2.5770  -20.1696  -51.1160 C.ar      23 UNK        -0.0193 
     14 C14         1.7988  -19.0807  -50.7086 C.ar      23 UNK        -0.1150 
     15 C15         3.4636  -20.9029  -50.1215 C.3       23 UNK        -0.0205 
     16 S16         2.7017  -22.4615  -49.5728 S.3       23 UNK        -0.2404 
     17 C17         1.3908  -21.8512  -48.4597 C.3       23 UNK        -0.0398 
     18 CA          1.1730  -22.7857  -47.2435 C.3       11 UNK         0.1400 
     19 N           2.4017  -22.9618  -46.4526 N.am      11 UNK        -0.5000 
     20 C           2.6890  -24.0195  -45.6831 C.2       10 UNK         0.5000 
     21 O           1.9309  -24.9816  -45.5617 O.2       10 UNK        -0.5000 
     22 CA          3.9872  -23.9877  -44.8507 C.3       10 UNK         0.1400 
     23 CB          4.9691  -25.0518  -45.3649 C.3       10 UNK        -0.1800 
     24 N           4.6831  -22.6961  -44.8174 N.am      10 UNK        -0.5000 
     25 C           4.3549  -21.5767  -44.1534 C.2       9 UNK         0.5000 
     26 O           5.1180  -20.6103  -44.1377 O.2       9 UNK        -0.5000 
     27 CA          3.0185  -21.4849  -43.3734 C.3       9 UNK         0.1400 
     28 CB          3.2442  -21.7801  -41.8834 C.3       9 UNK        -0.1800 
     29 N           2.3623  -20.1819  -43.4994 N.am      9 UNK        -0.5000 
     30 C           2.1056  -19.5154  -44.6353 C.2       8 UNK         0.5000 
     31 O           2.3930  -19.9313  -45.7580 O.2       8 UNK        -0.5000 
     32 CA          1.3761  -18.1641  -44.5116 C.3       8 UNK         0.1400 
     33 CB         -0.0868  -18.3229  -44.9520 C.3       8 UNK        -0.1800 
     34 N           1.4097  -17.5932  -43.1640 N.am      8 UNK        -0.5000 
     35 C           2.4844  -17.0384  -42.5853 C.2       7 UNK         0.5000 
     36 O           3.5773  -16.9233  -43.1395 O.2       7 UNK        -0.5000 
     37 CA          2.3134  -16.5463  -41.1362 C.3       7 UNK         0.1400 
     38 CB          1.8042  -15.0976  -41.0952 C.3       7 UNK        -0.1800 
     39 N           1.3938  -17.3971  -40.3827 N.am      7 UNK        -0.5000 
     40 C           1.7426  -18.5442  -39.7850 C.2       6 UNK         0.5000 
     41 O           2.8949  -18.9751  -39.7509 O.2       6 UNK        -0.5000 
     42 CA          0.6109  -19.3552  -39.1254 C.3       6 UNK         0.1400 
     43 CB          0.4546  -18.9589  -37.6496 C.3       6 UNK        -0.1800 
     44 N          -0.6781  -19.1980  -39.8020 N.am      6 UNK        -0.5000 
     45 C          -0.9514  -19.6621  -41.0291 C.2       5 UNK         0.5000 
     46 O          -0.1475  -20.2873  -41.7180 O.2       5 UNK        -0.5000 
     47 CA         -2.3445  -19.3325  -41.5959 C.3       5 UNK         0.1400 
     48 CB         -3.3683  -20.3792  -41.1334 C.3       5 UNK        -0.1800 
     49 N          -2.8286  -17.9971  -41.2320 N.am      5 UNK        -0.5000 
     50 C          -2.2220  -16.8413  -41.5320 C.2       4 UNK         0.5000 
     51 O          -1.1452  -16.7603  -42.1273 O.2       4 UNK        -0.5000 
     52 CA         -2.9075  -15.5681  -41.0274 C.3       4 UNK         0.1400 
     53 CB         -2.4902  -15.2712  -39.5767 C.3       4 UNK        -0.1800 
     54 N          -2.5393  -14.4393  -41.8772 N.am      4 UNK        -0.5000 
     55 C          -3.3382  -13.4022  -42.1549 C.2       3 UNK         0.5000 
     56 O          -4.4908  -13.3046  -41.7300 O.2       3 UNK        -0.5000 
     57 CA         -2.7712  -12.2629  -43.0260 C.3       3 UNK         0.1400 
     58 CB         -2.5537  -11.0010  -42.1749 C.3       3 UNK        -0.1800 
     59 N          -1.5136  -12.5821  -43.7056 N.am      3 UNK        -0.5000 
     60 C          -1.4137  -13.3014  -44.8288 C.2       2 UNK         0.5000 
     61 O          -2.3657  -13.8640  -45.3767 O.2       2 UNK        -0.5000 
     62 CA         -0.0084  -13.3973  -45.4394 C.3       2 UNK         0.1400 
     63 CB          0.8807  -14.3685  -44.6487 C.3       2 UNK        -0.1800 
     64 N          -0.1242  -13.8391  -46.8235 N.am      2 UNK        -0.5000 
     65 C           0.7246  -13.5299  -47.8109 C.2       1 UNK         0.5000 
     66 O           1.7666  -12.8964  -47.6352 O.2       1 UNK        -0.5000 
     67 C          -0.0124  -22.3248  -46.3588 C.2       11 UNK         0.5000 
     68 O          -0.7555  -21.4158  -46.7307 O.2       11 UNK        -0.5000 
     69 N          -0.1730  -22.9647  -45.1929 N.am      12 UNK        -0.5000 
     70 CA         -1.1348  -22.6220  -44.1433 C.3       12 UNK         0.1400 
     71 CB         -0.7664  -23.3977  -42.8696 C.3       12 UNK        -0.1800 
     72 C          -2.6084  -22.8635  -44.5238 C.2       12 UNK         0.5000 
     73 O          -3.4971  -22.3600  -43.8362 O.2       12 UNK        -0.5000 
     74 N          -2.8514  -23.6063  -45.6121 N.am      13 UNK        -0.5000 
     75 CA         -4.1615  -23.8715  -46.2074 C.3       13 UNK         0.1400 
     76 CB         -4.0226  -25.0497  -47.1879 C.3       13 UNK        -0.1800 
     77 C          -4.7515  -22.6136  -46.8809 C.2       13 UNK         0.5000 
     78 O          -4.8445  -22.5513  -48.1082 O.2       13 UNK        -0.5000 
     79 N          -5.1009  -21.6168  -46.0564 N.am      14 UNK        -0.5000 
     80 CA         -5.6946  -20.3240  -46.4127 C.3       14 UNK         0.1400 
     81 CB         -7.1493  -20.5200  -46.8883 C.3       14 UNK        -0.1800 
     82 C          -4.8381  -19.5221  -47.4146 C.2       14 UNK         0.5000 
     83 O          -5.3770  -18.9477  -48.3615 O.2       14 UNK        -0.5000 
     84 N          -3.5117  -19.5316  -47.2054 N.am      15 UNK        -0.5000 
     85 CA         -2.4921  -18.9224  -48.0668 C.3       15 UNK         0.1400 
     86 CB         -2.6071  -17.3840  -48.0409 C.3       15 UNK        -0.1800 
     87 C          -2.5155  -19.5235  -49.4861 C.2       15 UNK         0.5000 
     88 O          -2.6117  -18.7885  -50.4695 O.2       15 UNK        -0.5000 
     89 N          -2.4890  -20.8639  -49.5458 N.am      16 UNK        -0.5000 
     90 CA         -2.6409  -21.6985  -50.7448 C.3       16 UNK         0.1400 
     91 CB         -1.4068  -21.5652  -51.6617 C.3       16 UNK        -0.1800 
     92 C          -3.9693  -21.4232  -51.4824 C.2       16 UNK         0.5000 
     93 O          -3.9792  -21.2659  -52.7043 O.2       16 UNK        -0.5000 
     94 N          -5.0612  -21.3300  -50.7085 N.am      17 UNK        -0.5000 
     95 CA         -6.4096  -20.9272  -51.1237 C.3       17 UNK         0.1400 
     96 CB         -7.0546  -22.0278  -51.9920 C.3       17 UNK        -0.1800 
     97 C          -6.4193  -19.5399  -51.8024 C.2       17 UNK         0.5000 
     98 O          -6.9705  -19.3874  -52.8919 O.2       17 UNK        -0.5000 
     99 N          -5.7540  -18.5652  -51.1659 N.am      18 UNK        -0.5000 
    100 CA        -5.4516  -17.2224  -51.6750 C.3       18 UNK         0.1400 
    101 CB        -6.7272  -16.3573  -51.7219 C.3       18 UNK        -0.1800 
    102 C         -4.6916  -17.2669  -53.0201 C.2       18 UNK         0.5000 
    103 O         -5.0721  -16.5925  -53.9783 O.2       18 UNK        -0.5000 
    104 N         -3.6515  -18.1107  -53.0587 N.am      19 UNK        -0.5000 
    105 CA        -2.7857  -18.4604  -54.1901 C.3       19 UNK         0.1400 
    106 CB        -2.0618  -17.2133  -54.7393 C.3       19 UNK        -0.1800 
    107 C         -3.4610  -19.2642  -55.3241 C.2       19 UNK         0.5000 
    108 O         -2.7773  -19.6005  -56.2924 O.2       19 UNK        -0.5000 
    109 N         -4.7594  -19.5847  -55.2133 N.am      20 UNK        -0.5000 
    110 CA        -5.5166  -20.2998  -56.2443 C.3       20 UNK         0.1400 
    111 CB        -7.0214  -20.1935  -55.9607 C.3       20 UNK        -0.1800 
    112 C         -5.1070  -21.7752  -56.4002 C.2       20 UNK         0.5000 
    113 O         -5.2155  -22.3122  -57.5041 O.2       20 UNK        -0.5000 
    114 N         -4.6176  -22.4038  -55.3201 N.am      21 UNK        -0.5000 
    115 CA        -4.1507  -23.7947  -55.3241 C.3       21 UNK         0.1400 
    116 CB        -3.9720  -24.2834  -53.8786 C.3       21 UNK        -0.1800 
    117 C         -2.8510  -23.9972  -56.1289 C.2       21 UNK         0.5000 
    118 O         -2.5560  -25.1248  -56.5270 O.2       21 UNK        -0.5000 
    119 N         -2.1103  -22.9076  -56.3639 N.am      22 UNK        -0.5000 
    120 CA        -0.8842  -22.8720  -57.1745 C.3       22 UNK         0.1400 
    121 C         -1.1440  -22.8283  -58.7100 C.2       22 UNK         0.5000 
    122 N         -2.3810  -22.7089  -59.1808 N.am      22 UNK        -0.7600 
    123 O         -0.2026  -22.9163  -59.4936 O.2       22 UNK        -0.5000 
    124 C124        0.0576  -21.7206  -56.7364 C.3       23 UNK        -0.0398 
    125 S125        0.4270  -21.7630  -54.9512 S.3       23 UNK        -0.2404 
    126 C126        1.6300  -20.4104  -54.8110 C.3       23 UNK        -0.0205 
    127 H127       -4.0354  -13.9904  -48.6839 H         1 UNK         0.0600 
    128 H128       -4.0070  -13.4067  -50.3526 H         1 UNK         0.0600 
    129 H129       -3.4403  -15.0339  -49.9808 H         1 UNK         0.0600 
    130 H130       -1.2635  -15.3036  -49.5642 H         1 UNK         0.3000 
    131 H131        0.5607  -13.1446  -49.8960 H         1 UNK         0.0600 
    132 H132        2.3308  -14.8429  -49.6218 H         1 UNK         0.0800 
    133 H133        1.1920  -16.0096  -49.0139 H         1 UNK         0.0800 
    134 H134       -0.1942  -17.3865  -50.1606 H         1 UNK         0.0800 
    135 H135       -0.8023  -17.2304  -51.7793 H         1 UNK         0.0800 
    136 H136        0.3203  -18.3274  -53.6676 H         1 UNK         0.1150 
    137 H137        3.1217  -21.4383  -52.7652 H         1 UNK         0.1150 
    138 H138        1.8245  -18.7551  -49.6783 H         1 UNK         0.1150 
    139 H139        4.4224  -21.1272  -50.5913 H         1 UNK         0.0800 
    140 H140        3.6888  -20.2738  -49.2588 H         1 UNK         0.0800 
    141 H141        0.4752  -21.7608  -49.0445 H         1 UNK         0.0800 
    142 H142        1.6350  -20.8431  -48.1228 H         1 UNK         0.0800 
    143 H143        0.8848  -23.7608  -47.6421 H         1 UNK         0.0600 
    144 H144        3.0413  -22.1786  -46.4649 H         1 UNK         0.3000 
    145 H145        3.7175  -24.2534  -43.8268 H         1 UNK         0.0600 
    146 H146        5.2931  -24.8402  -46.3849 H         1 UNK         0.0600 
    147 H147        5.8571  -25.1080  -44.7349 H         1 UNK         0.0600 
    148 H148        4.5124  -26.0426  -45.3651 H         1 UNK         0.0600 
    149 H149        5.5548  -22.6826  -45.3260 H         1 UNK         0.3000 
    150 H150        2.2999  -22.2083  -43.7474 H         1 UNK         0.0600 
    151 H151        3.6879  -22.7658  -41.7400 H         1 UNK         0.0600 
    152 H152        2.3048  -21.7630  -41.3298 H         1 UNK         0.0600 
    153 H153        3.9134  -21.0488  -41.4283 H         1 UNK         0.0600 
    154 H154        2.0288  -19.7692  -42.6398 H         1 UNK         0.3000 
    155 H155        1.8643  -17.4632  -45.1918 H         1 UNK         0.0600 
    156 H156       -0.1331  -18.6698  -45.9826 H         1 UNK         0.0600 
    157 H157       -0.6352  -17.3830  -44.8995 H         1 UNK         0.0600 
    158 H158       -0.6121  -19.0539  -44.3383 H         1 UNK         0.0600 
    159 H159        0.5257  -17.5677  -42.6655 H         1 UNK         0.3000 
    160 H160        3.2960  -16.5681  -40.6597 H         1 UNK         0.0600 
    161 H161        0.8062  -15.0061  -41.5233 H         1 UNK         0.0600 
    162 H162        2.4682  -14.4351  -41.6516 H         1 UNK         0.0600 
    163 H163        1.7608  -14.7268  -40.0711 H         1 UNK         0.0600 
    164 H164        0.4180  -17.1381  -40.4044 H         1 UNK         0.3000 
    165 H165        0.8916  -20.4099  -39.1695 H         1 UNK         0.0600 
    166 H166       -0.2913  -19.5785  -37.1514 H         1 UNK         0.0600 
    167 H167        1.3939  -19.0862  -37.1097 H         1 UNK         0.0600 
    168 H168        0.1526  -17.9163  -37.5419 H         1 UNK         0.0600 
    169 H169       -1.3979  -18.6953  -39.3044 H         1 UNK         0.3000 
    170 H170       -2.2782  -19.3794  -42.6841 H         1 UNK         0.0600 
    171 H171       -3.5489  -20.3215  -40.0594 H         1 UNK         0.0600 
    172 H172       -4.3228  -20.2492  -41.6438 H         1 UNK         0.0600 
    173 H173       -3.0225  -21.3900  -41.3507 H         1 UNK         0.0600 
    174 H174       -3.7018  -17.9673  -40.7254 H         1 UNK         0.3000 
    175 H175       -3.9869  -15.7289  -41.0696 H         1 UNK         0.0600 
    176 H176       -2.7487  -16.0978  -38.9138 H         1 UNK         0.0600 
    177 H177       -1.4151  -15.1055  -39.4942 H         1 UNK         0.0600 
    178 H178       -2.9944  -14.3827  -39.1962 H         1 UNK         0.0600 
    179 H179       -1.6283  -14.5032  -42.3104 H         1 UNK         0.3000 
    180 H180       -3.5246  -12.0327  -43.7825 H         1 UNK         0.0600 
    181 H181       -2.2247  -10.1623  -42.7887 H         1 UNK         0.0600 
    182 H182       -1.8057  -11.1641  -41.3980 H         1 UNK         0.0600 
    183 H183       -3.4773  -10.6954  -41.6814 H         1 UNK         0.0600 
    184 H184       -0.6804  -12.1665  -43.3143 H         1 UNK         0.3000 
    185 H185        0.4362  -12.3999  -45.4190 H         1 UNK         0.0600 
    186 H186        1.0917  -13.9723  -43.6569 H         1 UNK         0.0600 
    187 H187        0.3975  -15.3357  -44.5226 H         1 UNK         0.0600 
    188 H188        1.8398  -14.5316  -45.1404 H         1 UNK         0.0600 
    189 H189       -0.9990  -14.2985  -47.0425 H         1 UNK         0.3000 
    190 H190        0.4459  -23.7460  -45.0052 H         1 UNK         0.3000 
    191 H191       -1.0317  -21.5554  -43.9364 H         1 UNK         0.0600 
    192 H192       -0.8082  -24.4759  -43.0283 H         1 UNK         0.0600 
    193 H193       -1.4469  -23.1582  -42.0519 H         1 UNK         0.0600 
    194 H194        0.2386  -23.1443  -42.5319 H         1 UNK         0.0600 
    195 H195       -2.0540  -23.9656  -46.1144 H         1 UNK         0.3000 
    196 H196       -4.8498  -24.1737  -45.4154 H         1 UNK         0.0600 
    197 H197       -4.9826  -25.2921  -47.6457 H         1 UNK         0.0600 
    198 H198       -3.6717  -25.9474  -46.6785 H         1 UNK         0.0600 
    199 H199       -3.3220  -24.8255  -47.9934 H         1 UNK         0.0600 
    200 H200       -4.8864  -21.7493  -45.0718 H         1 UNK         0.3000 
    201 H201       -5.7227  -19.7319  -45.4970 H         1 UNK         0.0600 
    202 H202       -7.7416  -21.0394  -46.1351 H         1 UNK         0.0600 
    203 H203       -7.1994  -21.1001  -47.8096 H         1 UNK         0.0600 
    204 H204       -7.6350  -19.5617  -47.0761 H         1 UNK         0.0600 
    205 H205       -3.1570  -20.0686  -46.4268 H         1 UNK         0.3000 
    206 H206       -1.5211  -19.1797  -47.6510 H         1 UNK         0.0600 
    207 H207       -3.5262  -17.0348  -48.5113 H         1 UNK         0.0600 
    208 H208       -2.5897  -17.0050  -47.0188 H         1 UNK         0.0600 
    209 H209       -1.7731  -16.9251  -48.5665 H         1 UNK         0.0600 
    210 H210       -2.4421  -21.3639  -48.6685 H         1 UNK         0.3000 
    211 H211       -2.6910  -22.7329  -50.4024 H         1 UNK         0.0600 
    212 H212       -1.2875  -20.5495  -52.0364 H         1 UNK         0.0600 
    213 H213       -1.4857  -22.2225  -52.5275 H         1 UNK         0.0600 
    214 H214       -0.4887  -21.8338  -51.1419 H         1 UNK         0.0600 
    215 H215       -4.9521  -21.5332  -49.7179 H         1 UNK         0.3000 
    216 H216       -7.0010  -20.8302  -50.2130 H         1 UNK         0.0600 
    217 H217       -8.0946  -21.7882  -52.2159 H         1 UNK         0.0600 
    218 H218       -7.0454  -22.9894  -51.4791 H         1 UNK         0.0600 
    219 H219       -6.5366  -22.1509  -52.9435 H         1 UNK         0.0600 
    220 H220       -5.3740  -18.7770  -50.2459 H         1 UNK         0.3000 
    221 H221       -4.7715  -16.7716  -50.9521 H         1 UNK         0.0600 
    222 H222       -7.4470  -16.7346  -52.4489 H         1 UNK         0.0600 
    223 H223       -7.2172  -16.3276  -50.7488 H         1 UNK         0.0600 
    224 H224       -6.4906  -15.3291  -51.9978 H         1 UNK         0.0600 
    225 H225       -3.4220  -18.5903  -52.1908 H         1 UNK         0.3000 
    226 H226       -2.0269  -19.1242  -53.7756 H         1 UNK         0.0600 
    227 H227       -2.7459  -16.5466  -55.2646 H         1 UNK         0.0600 
    228 H228       -1.5856  -16.6424  -53.9430 H         1 UNK         0.0600 
    229 H229       -1.2812  -17.4958  -55.4466 H         1 UNK         0.0600 
    230 H230       -5.2626  -19.3234  -54.3742 H         1 UNK         0.3000 
    231 H231       -5.3229  -19.8035  -57.1975 H         1 UNK         0.0600 
    232 H232       -7.6016  -20.5857  -56.7968 H         1 UNK         0.0600 
    233 H233       -7.3265  -19.1579  -55.8088 H         1 UNK         0.0600 
    234 H234       -7.3046  -20.7636  -55.0757 H         1 UNK         0.0600 
    235 H235       -4.5113  -21.8885  -54.4486 H         1 UNK         0.3000 
    236 H236       -4.9246  -24.4063  -55.7925 H         1 UNK         0.0600 
    237 H237       -3.1548  -23.7642  -53.3789 H         1 UNK         0.0600 
    238 H238       -4.8783  -24.1328  -53.2919 H         1 UNK         0.0600 
    239 H239       -3.7418  -25.3491  -53.8548 H         1 UNK         0.0600 
    240 H240       -2.4321  -22.0165  -56.0118 H         1 UNK         0.3000 
    241 H241       -0.3468  -23.8054  -56.9968 H         1 UNK         0.0600 
    242 H242       -2.5313  -22.6878  -60.1772 H         1 UNK         0.3800 
    243 H243       -3.1709  -22.6384  -58.5541 H         1 UNK         0.3800 
    244 H244       -0.3872  -20.7532  -56.9752 H         1 UNK         0.0800 
    245 H245        1.0018  -21.7717  -57.2816 H         1 UNK         0.0800 
    246 H246        2.6068  -20.7511  -55.1573 H         1 UNK         0.0800 
    247 H247        1.3371  -19.5858  -55.4629 H         1 UNK         0.0800 
@<TRIPOS>BOND
     1    1    2 1    
     2    1  127 1    
     3    1  128 1    
     4    1  129 1    
     5    2    3 2    
     6    2    4 am   BACKBONE|DICT|INTERRES
     7    4    5 1    
     8    4  130 1    
     9    5    6 1    
    10    5   65 1    
    11    5  131 1    
    12    6    7 1    
    13    6  132 1    
    14    6  133 1    
    15    7    8 1    
    16    8    9 1    
    17    8  134 1    
    18    8  135 1    
    19    9   10 ar   
    20    9   14 ar   
    21   10   11 ar   
    22   10  136 1    
    23   11   12 ar   
    24   11  126 1    
    25   12   13 ar   
    26   12  137 1    
    27   13   14 ar   
    28   13   15 1    
    29   14  138 1    
    30   15   16 1    
    31   15  139 1    
    32   15  140 1    
    33   16   17 1    
    34   17   18 1    
    35   17  141 1    
    36   17  142 1    
    37   18   19 1    
    38   18   67 1    
    39   18  143 1    
    40   19   20 am   BACKBONE|DICT|INTERRES
    41   19  144 1    
    42   20   21 2    
    43   20   22 1    
    44   22   23 1    
    45   22   24 1    
    46   22  145 1    
    47   23  146 1    
    48   23  147 1    
    49   23  148 1    
    50   24   25 am   BACKBONE|DICT|INTERRES
    51   24  149 1    
    52   25   26 2    
    53   25   27 1    
    54   27   28 1    
    55   27   29 1    
    56   27  150 1    
    57   28  151 1    
    58   28  152 1    
    59   28  153 1    
    60   29   30 am   BACKBONE|DICT|INTERRES
    61   29  154 1    
    62   30   31 2    
    63   30   32 1    
    64   32   33 1    
    65   32   34 1    
    66   32  155 1    
    67   33  156 1    
    68   33  157 1    
    69   33  158 1    
    70   34   35 am   BACKBONE|DICT|INTERRES
    71   34  159 1    
    72   35   36 2    
    73   35   37 1    
    74   37   38 1    
    75   37   39 1    
    76   37  160 1    
    77   38  161 1    
    78   38  162 1    
    79   38  163 1    
    80   39   40 am   BACKBONE|DICT|INTERRES
    81   39  164 1    
    82   40   41 2    
    83   40   42 1    
    84   42   43 1    
    85   42   44 1    
    86   42  165 1    
    87   43  166 1    
    88   43  167 1    
    89   43  168 1    
    90   44   45 am   BACKBONE|DICT|INTERRES
    91   44  169 1    
    92   45   46 2    
    93   45   47 1    
    94   47   48 1    
    95   47   49 1    
    96   47  170 1    
    97   48  171 1    
    98   48  172 1    
    99   48  173 1    
   100   49   50 am   BACKBONE|DICT|INTERRES
   101   49  174 1    
   102   50   51 2    
   103   50   52 1    
   104   52   53 1    
   105   52   54 1    
   106   52  175 1    
   107   53  176 1    
   108   53  177 1    
   109   53  178 1    
   110   54   55 am   BACKBONE|DICT|INTERRES
   111   54  179 1    
   112   55   56 2    
   113   55   57 1    
   114   57   58 1    
   115   57   59 1    
   116   57  180 1    
   117   58  181 1    
   118   58  182 1    
   119   58  183 1    
   120   59   60 am   BACKBONE|DICT|INTERRES
   121   59  184 1    
   122   60   61 2    
   123   60   62 1    
   124   62   63 1    
   125   62   64 1    
   126   62  185 1    
   127   63  186 1    
   128   63  187 1    
   129   63  188 1    
   130   64   65 am   BACKBONE|DICT|INTERRES
   131   64  189 1    
   132   65   66 2    
   133   67   68 2    
   134   67   69 am   BACKBONE|DICT|INTERRES
   135   69   70 1    
   136   69  190 1    
   137   70   71 1    
   138   70   72 1    
   139   70  191 1    
   140   71  192 1    
   141   71  193 1    
   142   71  194 1    
   143   72   73 2    
   144   72   74 am   BACKBONE|DICT|INTERRES
   145   74   75 1    
   146   74  195 1    
   147   75   76 1    
   148   75   77 1    
   149   75  196 1    
   150   76  197 1    
   151   76  198 1    
   152   76  199 1    
   153   77   78 2    
   154   77   79 am   BACKBONE|DICT|INTERRES
   155   79   80 1    
   156   79  200 1    
   157   80   81 1    
   158   80   82 1    
   159   80  201 1    
   160   81  202 1    
   161   81  203 1    
   162   81  204 1    
   163   82   83 2    
   164   82   84 am   BACKBONE|DICT|INTERRES
   165   84   85 1    
   166   84  205 1    
   167   85   86 1    
   168   85   87 1    
   169   85  206 1    
   170   86  207 1    
   171   86  208 1    
   172   86  209 1    
   173   87   88 2    
   174   87   89 am   BACKBONE|DICT|INTERRES
   175   89   90 1    
   176   89  210 1    
   177   90   91 1    
   178   90   92 1    
   179   90  211 1    
   180   91  212 1    
   181   91  213 1    
   182   91  214 1    
   183   92   93 2    
   184   92   94 am   BACKBONE|DICT|INTERRES
   185   94   95 1    
   186   94  215 1    
   187   95   96 1    
   188   95   97 1    
   189   95  216 1    
   190   96  217 1    
   191   96  218 1    
   192   96  219 1    
   193   97   98 2    
   194   97   99 am   BACKBONE|DICT|INTERRES
   195   99  100 1    
   196   99  220 1    
   197  100  101 1    
   198  100  102 1    
   199  100  221 1    
   200  101  222 1    
   201  101  223 1    
   202  101  224 1    
   203  102  103 2    
   204  102  104 am   BACKBONE|DICT|INTERRES
   205  104  105 1    
   206  104  225 1    
   207  105  106 1    
   208  105  107 1    
   209  105  226 1    
   210  106  227 1    
   211  106  228 1    
   212  106  229 1    
   213  107  108 2    
   214  107  109 am   BACKBONE|DICT|INTERRES
   215  109  110 1    
   216  109  230 1    
   217  110  111 1    
   218  110  112 1    
   219  110  231 1    
   220  111  232 1    
   221  111  233 1    
   222  111  234 1    
   223  112  113 2    
   224  112  114 am   BACKBONE|DICT|INTERRES
   225  114  115 1    
   226  114  235 1    
   227  115  116 1    
   228  115  117 1    
   229  115  236 1    
   230  116  237 1    
   231  116  238 1    
   232  116  239 1    
   233  117  118 2    
   234  117  119 am   BACKBONE|DICT|INTERRES
   235  119  120 1    
   236  119  240 1    
   237  120  121 1    
   238  120  124 1    
   239  120  241 1    
   240  121  122 am   BACKBONE|DICT|INTERRES
   241  121  123 2    
   242  122  242 1    
   243  122  243 1    
   244  124  125 1    
   245  124  244 1    
   246  124  245 1    
   247  125  126 1    
   248  126  246 1    
   249  126  247 1    
@<TRIPOS>SUBSTRUCTURE
     1 UNK         1 GROUP             0       ****    0 ROOT    
