@<TRIPOS>MOLECULE
3R540
247   249    1
SMALL
USER_CHARGES


@<TRIPOS>ATOM
      1 CA          2.5200  -15.2453  -49.5109 C.3       0 UNK        -0.1800 
      2 C           2.4304  -14.5900  -48.1426 C.2       0 UNK         0.5000 
      3 O           3.2860  -13.7758  -47.7957 O.2       0 UNK        -0.5000 
      4 N           1.3807  -14.9138  -47.3754 N.am      1 UNK        -0.5000 
      5 CA          1.1184  -14.4162  -46.0151 C.3       1 UNK         0.1400 
      6 C6         -0.0375  -15.1750  -45.3139 C.3       23 UNK        -0.0398 
      7 S7         -1.5831  -15.2397  -46.2906 S.3       23 UNK        -0.2404 
      8 C8         -1.7648  -17.0246  -46.6018 C.3       23 UNK        -0.0205 
      9 C9         -0.7005  -17.5613  -47.5466 C.ar      23 UNK        -0.0193 
     10 C10        -0.8547  -17.4210  -48.9279 C.ar      23 UNK        -0.1150 
     11 C11         0.1058  -17.9336  -49.8043 C.ar      23 UNK        -0.0193 
     12 C12         1.2319  -18.5817  -49.2883 C.ar      23 UNK        -0.1150 
     13 C13         1.4102  -18.7082  -47.9085 C.ar      23 UNK        -0.0193 
     14 C14         0.4360  -18.2005  -47.0435 C.ar      23 UNK        -0.1150 
     15 C15         2.6780  -19.3497  -47.3591 C.3       23 UNK        -0.0205 
     16 S16         2.5873  -21.1687  -47.2958 S.3       23 UNK        -0.2404 
     17 C17         1.4042  -21.4353  -45.9279 C.3       23 UNK        -0.0398 
     18 CA          0.4435  -22.6411  -46.0839 C.3       11 UNK         0.1400 
     19 N          -0.5498  -22.6529  -45.0058 N.am      11 UNK        -0.5000 
     20 C          -1.3331  -23.6969  -44.6962 C.2       10 UNK         0.5000 
     21 O          -1.2582  -24.7905  -45.2531 O.2       10 UNK        -0.5000 
     22 CA         -2.4156  -23.4728  -43.6192 C.3       10 UNK         0.1400 
     23 CB         -1.8645  -23.8121  -42.2267 C.3       10 UNK        -0.1800 
     24 N          -2.9445  -22.1080  -43.6050 N.am      10 UNK        -0.5000 
     25 C          -3.5351  -21.4985  -44.6422 C.2       9 UNK         0.5000 
     26 O          -3.8106  -22.0734  -45.6942 O.2       9 UNK        -0.5000 
     27 CA         -3.8131  -19.9859  -44.5179 C.3       9 UNK         0.1400 
     28 CB         -5.3153  -19.7324  -44.3252 C.3       9 UNK        -0.1800 
     29 N          -3.0715  -19.2939  -43.4545 N.am      9 UNK        -0.5000 
     30 C          -1.7386  -19.2391  -43.3255 C.2       8 UNK         0.5000 
     31 O          -0.9540  -19.8309  -44.0731 O.2       8 UNK        -0.5000 
     32 CA         -1.2045  -18.4071  -42.1505 C.3       8 UNK         0.1400 
     33 CB         -1.6075  -19.0244  -40.7995 C.3       8 UNK        -0.1800 
     34 N           0.2514  -18.3484  -42.2247 N.am      8 UNK        -0.5000 
     35 C           1.0005  -17.2649  -42.0068 C.2       7 UNK         0.5000 
     36 O           0.5400  -16.1581  -41.7170 O.2       7 UNK        -0.5000 
     37 CA          2.5179  -17.4659  -42.1737 C.3       7 UNK         0.1400 
     38 CB          2.8919  -17.5655  -43.6619 C.3       7 UNK        -0.1800 
     39 N           3.2825  -16.3850  -41.5510 N.am      7 UNK        -0.5000 
     40 C           3.5375  -16.2973  -40.2369 C.2       6 UNK         0.5000 
     41 O           3.1922  -17.1556  -39.4228 O.2       6 UNK        -0.5000 
     42 CA          4.3268  -15.0694  -39.7325 C.3       6 UNK         0.1400 
     43 CB          5.8006  -15.4394  -39.5024 C.3       6 UNK        -0.1800 
     44 N           4.2693  -13.9229  -40.6385 N.am      6 UNK        -0.5000 
     45 C           3.2050  -13.1262  -40.8019 C.2       5 UNK         0.5000 
     46 O           2.1870  -13.2045  -40.1133 O.2       5 UNK        -0.5000 
     47 CA          3.2803  -12.0635  -41.9216 C.3       5 UNK         0.1400 
     48 CB          3.5116  -10.6673  -41.3231 C.3       5 UNK        -0.1800 
     49 N           4.2905  -12.2983  -42.9629 N.am      5 UNK        -0.5000 
     50 C           4.3851  -13.3881  -43.7350 C.2       4 UNK         0.5000 
     51 O           3.6833  -14.3870  -43.5875 O.2       4 UNK        -0.5000 
     52 CA          5.4243  -13.3391  -44.8665 C.3       4 UNK         0.1400 
     53 CB          5.7123  -14.7321  -45.4563 C.3       4 UNK        -0.1800 
     54 N           4.9461  -12.4681  -45.9348 N.am      4 UNK        -0.5000 
     55 C           5.0864  -11.1372  -45.9731 C.2       3 UNK         0.5000 
     56 O           5.6636  -10.4874  -45.1001 O.2       3 UNK        -0.5000 
     57 CA          4.4528  -10.4149  -47.1715 C.3       3 UNK         0.1400 
     58 CB          5.2311  -10.7106  -48.4639 C.3       3 UNK        -0.1800 
     59 N           3.0631  -10.8358  -47.3379 N.am      3 UNK        -0.5000 
     60 C           1.9930  -10.1033  -46.9989 C.2       2 UNK         0.5000 
     61 O           2.0590   -8.9528  -46.5643 O.2       2 UNK        -0.5000 
     62 CA          0.6084  -10.7640  -47.1671 C.3       2 UNK         0.1400 
     63 CB         -0.0017  -10.3960  -48.5280 C.3       2 UNK        -0.1800 
     64 N           0.6494  -12.2215  -47.0444 N.am      2 UNK        -0.5000 
     65 C           0.9317  -12.8845  -45.9142 C.2       1 UNK         0.5000 
     66 O           1.0734  -12.3295  -44.8246 O.2       1 UNK        -0.5000 
     67 C          -0.2466  -22.7153  -47.4650 C.2       11 UNK         0.5000 
     68 O           0.1447  -23.5361  -48.2959 O.2       11 UNK        -0.5000 
     69 N          -1.3008  -21.9094  -47.6627 N.am      12 UNK        -0.5000 
     70 CA         -2.1253  -21.9225  -48.8731 C.3       12 UNK         0.1400 
     71 CB         -3.0911  -20.7288  -48.8620 C.3       12 UNK        -0.1800 
     72 C          -2.8930  -23.2452  -49.0506 C.2       12 UNK         0.5000 
     73 O          -3.0424  -23.7119  -50.1799 O.2       12 UNK        -0.5000 
     74 N          -3.3495  -23.8364  -47.9383 N.am      13 UNK        -0.5000 
     75 CA         -3.9916  -25.1492  -47.8995 C.3       13 UNK         0.1400 
     76 CB         -4.6341  -25.3761  -46.5241 C.3       13 UNK        -0.1800 
     77 C          -3.0203  -26.2875  -48.2564 C.2       13 UNK         0.5000 
     78 O          -3.3752  -27.1463  -49.0631 O.2       13 UNK        -0.5000 
     79 N          -1.8008  -26.2516  -47.6990 N.am      14 UNK        -0.5000 
     80 CA         -0.7193  -27.1969  -47.9958 C.3       14 UNK         0.1400 
     81 CB          0.4510  -26.9637  -47.0287 C.3       14 UNK        -0.1800 
     82 C          -0.2398  -27.1224  -49.4580 C.2       14 UNK         0.5000 
     83 O           0.0690  -28.1561  -50.0515 O.2       14 UNK        -0.5000 
     84 N          -0.2296  -25.9080  -50.0235 N.am      15 UNK        -0.5000 
     85 CA          0.0477  -25.6396  -51.4359 C.3       15 UNK         0.1400 
     86 CB          0.3711  -24.1446  -51.5951 C.3       15 UNK        -0.1800 
     87 C          -1.1072  -26.0376  -52.3809 C.2       15 UNK         0.5000 
     88 O          -0.9060  -26.0444  -53.5956 O.2       15 UNK        -0.5000 
     89 N          -2.2928  -26.3245  -51.8184 N.am      16 UNK        -0.5000 
     90 CA         -3.5719  -26.5965  -52.4881 C.3       16 UNK         0.1400 
     91 CB         -3.4940  -27.8754  -53.3466 C.3       16 UNK        -0.1800 
     92 C          -4.1255  -25.3835  -53.2681 C.2       16 UNK         0.5000 
     93 O          -4.9746  -25.5467  -54.1454 O.2       16 UNK        -0.5000 
     94 N          -3.6524  -24.1821  -52.9178 N.am      17 UNK        -0.5000 
     95 CA         -4.0464  -22.9089  -53.5102 C.3       17 UNK         0.1400 
     96 CB         -2.8965  -21.9102  -53.3372 C.3       17 UNK        -0.1800 
     97 C          -5.3354  -22.3596  -52.8807 C.2       17 UNK         0.5000 
     98 O          -6.0824  -21.6559  -53.5577 O.2       17 UNK        -0.5000 
     99 N          -5.6032  -22.7199  -51.6155 N.am      18 UNK        -0.5000 
    100 CA        -6.7920  -22.3174  -50.8518 C.3       18 UNK         0.1400 
    101 CB        -6.6475  -22.7975  -49.4000 C.3       18 UNK        -0.1800 
    102 C         -8.1317  -22.8034  -51.4472 C.2       18 UNK         0.5000 
    103 O         -9.1796  -22.2590  -51.0994 O.2       18 UNK        -0.5000 
    104 N         -8.0771  -23.7973  -52.3456 N.am      19 UNK        -0.5000 
    105 CA        -9.2050  -24.2747  -53.1477 C.3       19 UNK         0.1400 
    106 CB        -8.8053  -25.6003  -53.8141 C.3       19 UNK        -0.1800 
    107 C         -9.6771  -23.2567  -54.2096 C.2       19 UNK         0.5000 
    108 O        -10.8155  -23.3549  -54.6698 O.2       19 UNK        -0.5000 
    109 N         -8.8070  -22.3070  -54.5755 N.am      20 UNK        -0.5000 
    110 CA        -9.0824  -21.1944  -55.4754 C.3       20 UNK         0.1400 
    111 CB        -8.2890  -21.3973  -56.7822 C.3       20 UNK        -0.1800 
    112 C         -8.7302  -19.9057  -54.7146 C.2       20 UNK         0.5000 
    113 O         -9.5014  -19.4894  -53.8485 O.2       20 UNK        -0.5000 
    114 N         -7.5671  -19.3203  -55.0119 N.am      21 UNK        -0.5000 
    115 CA        -6.9522  -18.2297  -54.2684 C.3       21 UNK         0.1400 
    116 CB        -7.4470  -16.8763  -54.8063 C.3       21 UNK        -0.1800 
    117 C         -5.4304  -18.3639  -54.4090 C.2       21 UNK         0.5000 
    118 O         -4.9532  -18.7782  -55.4694 O.2       21 UNK        -0.5000 
    119 N         -4.7027  -18.0034  -53.3483 N.am      22 UNK        -0.5000 
    120 CA        -3.2355  -17.9623  -53.3156 C.3       22 UNK         0.1400 
    121 C         -2.7230  -16.5340  -53.6420 C.2       22 UNK         0.5000 
    122 N         -1.6665  -16.4080  -54.4329 N.am      22 UNK        -0.7600 
    123 O         -3.2583  -15.5389  -53.1582 O.2       22 UNK        -0.5000 
    124 C124       -2.7067  -18.4664  -51.9481 C.3       23 UNK        -0.0398 
    125 S125       -1.0023  -19.1118  -52.0523 S.3       23 UNK        -0.2404 
    126 C126       -0.0450  -17.7575  -51.3068 C.3       23 UNK        -0.0205 
    127 H127        3.0863  -16.1741  -49.4466 H         1 UNK         0.0600 
    128 H128        3.0236  -14.5846  -50.2167 H         1 UNK         0.0600 
    129 H129        1.5297  -15.4659  -49.9075 H         1 UNK         0.0600 
    130 H130        0.7044  -15.5812  -47.7218 H         1 UNK         0.3000 
    131 H131        2.0228  -14.6323  -45.4491 H         1 UNK         0.0600 
    132 H132        0.2861  -16.1875  -45.0799 H         1 UNK         0.0800 
    133 H133       -0.2609  -14.7300  -44.3421 H         1 UNK         0.0800 
    134 H134       -1.7401  -17.5605  -45.6542 H         1 UNK         0.0800 
    135 H135       -2.7526  -17.2092  -47.0265 H         1 UNK         0.0800 
    136 H136       -1.7231  -16.9089  -49.3160 H         1 UNK         0.1150 
    137 H137        1.9824  -18.9714  -49.9616 H         1 UNK         0.1150 
    138 H138        0.5654  -18.2958  -45.9751 H         1 UNK         0.1150 
    139 H139        3.5237  -19.0672  -47.9877 H         1 UNK         0.0800 
    140 H140        2.9049  -18.9613  -46.3664 H         1 UNK         0.0800 
    141 H141        1.9785  -21.5453  -45.0073 H         1 UNK         0.0800 
    142 H142        0.8165  -20.5318  -45.7965 H         1 UNK         0.0800 
    143 H143        1.0452  -23.5472  -45.9851 H         1 UNK         0.0600 
    144 H144       -0.7005  -21.7713  -44.5254 H         1 UNK         0.3000 
    145 H145       -3.2454  -24.1482  -43.8335 H         1 UNK         0.0600 
    146 H146       -2.6412  -23.7365  -41.4655 H         1 UNK         0.0600 
    147 H147       -1.4805  -24.8327  -42.1971 H         1 UNK         0.0600 
    148 H148       -1.0490  -23.1455  -41.9430 H         1 UNK         0.0600 
    149 H149       -2.7580  -21.5593  -42.7795 H         1 UNK         0.3000 
    150 H150       -3.5131  -19.5357  -45.4662 H         1 UNK         0.0600 
    151 H151       -5.5429  -18.6666  -44.3511 H         1 UNK         0.0600 
    152 H152       -5.6707  -20.1304  -43.3739 H         1 UNK         0.0600 
    153 H153       -5.8978  -20.2054  -45.1173 H         1 UNK         0.0600 
    154 H154       -3.6380  -18.7918  -42.7859 H         1 UNK         0.3000 
    155 H155       -1.6311  -17.4056  -42.2367 H         1 UNK         0.0600 
    156 H156       -2.6909  -19.0520  -40.6788 H         1 UNK         0.0600 
    157 H157       -1.2081  -18.4419  -39.9689 H         1 UNK         0.0600 
    158 H158       -1.2373  -20.0455  -40.6973 H         1 UNK         0.0600 
    159 H159        0.6870  -19.1988  -42.5555 H         1 UNK         0.3000 
    160 H160        2.7924  -18.4072  -41.6925 H         1 UNK         0.0600 
    161 H161        2.5745  -16.6858  -44.2205 H         1 UNK         0.0600 
    162 H162        2.4183  -18.4327  -44.1219 H         1 UNK         0.0600 
    163 H163        3.9684  -17.6747  -43.7942 H         1 UNK         0.0600 
    164 H164        3.5262  -15.6083  -42.1602 H         1 UNK         0.3000 
    165 H165        3.8967  -14.7744  -38.7730 H         1 UNK         0.0600 
    166 H166        6.2906  -15.7354  -40.4308 H         1 UNK         0.0600 
    167 H167        6.3567  -14.6023  -39.0799 H         1 UNK         0.0600 
    168 H168        5.8902  -16.2726  -38.8040 H         1 UNK         0.0600 
    169 H169        5.0625  -13.7840  -41.2464 H         1 UNK         0.3000 
    170 H170        2.3070  -12.0628  -42.4152 H         1 UNK         0.0600 
    171 H171        2.7591  -10.4333  -40.5688 H         1 UNK         0.0600 
    172 H172        4.4896  -10.5931  -40.8461 H         1 UNK         0.0600 
    173 H173        3.4509   -9.8944  -42.0896 H         1 UNK         0.0600 
    174 H174        4.8904  -11.5146  -43.1872 H         1 UNK         0.3000 
    175 H175        6.3579  -12.9472  -44.4576 H         1 UNK         0.0600 
    176 H176        4.8195  -15.1803  -45.8947 H         1 UNK         0.0600 
    177 H177        6.4744  -14.6800  -46.2339 H         1 UNK         0.0600 
    178 H178        6.0771  -15.4139  -44.6871 H         1 UNK         0.0600 
    179 H179        4.4140  -12.9283  -46.6709 H         1 UNK         0.3000 
    180 H180        4.5107   -9.3407  -46.9840 H         1 UNK         0.0600 
    181 H181        5.2017  -11.7694  -48.7244 H         1 UNK         0.0600 
    182 H182        6.2789  -10.4249  -48.3628 H         1 UNK         0.0600 
    183 H183        4.8209  -10.1500  -49.3041 H         1 UNK         0.0600 
    184 H184        2.9204  -11.7924  -47.6430 H         1 UNK         0.3000 
    185 H185       -0.0429  -10.3742  -46.3820 H         1 UNK         0.0600 
    186 H186       -1.0091  -10.7997  -48.6313 H         1 UNK         0.0600 
    187 H187       -0.0730   -9.3136  -48.6439 H         1 UNK         0.0600 
    188 H188        0.5998  -10.7758  -49.3549 H         1 UNK         0.0600 
    189 H189        0.5349  -12.7557  -47.8931 H         1 UNK         0.3000 
    190 H190       -1.5905  -21.2913  -46.9202 H         1 UNK         0.3000 
    191 H191       -1.4617  -21.8092  -49.7330 H         1 UNK         0.0600 
    192 H192       -3.7301  -20.7384  -49.7455 H         1 UNK         0.0600 
    193 H193       -2.5474  -19.7846  -48.8631 H         1 UNK         0.0600 
    194 H194       -3.7446  -20.7401  -47.9900 H         1 UNK         0.0600 
    195 H195       -3.2700  -23.3359  -47.0581 H         1 UNK         0.3000 
    196 H196       -4.7870  -25.1548  -48.6461 H         1 UNK         0.0600 
    197 H197       -5.1908  -26.3137  -46.5055 H         1 UNK         0.0600 
    198 H198       -5.3329  -24.5762  -46.2780 H         1 UNK         0.0600 
    199 H199       -3.8869  -25.4247  -45.7331 H         1 UNK         0.0600 
    200 H200       -1.5980  -25.5406  -47.0020 H         1 UNK         0.3000 
    201 H201       -1.1034  -28.2049  -47.8263 H         1 UNK         0.0600 
    202 H202        0.1411  -27.1086  -45.9938 H         1 UNK         0.0600 
    203 H203        0.8530  -25.9542  -47.1193 H         1 UNK         0.0600 
    204 H204        1.2660  -27.6616  -47.2245 H         1 UNK         0.0600 
    205 H205       -0.4162  -25.1000  -49.4372 H         1 UNK         0.3000 
    206 H206        0.9275  -26.2145  -51.7316 H         1 UNK         0.0600 
    207 H207        1.2158  -23.8542  -50.9700 H         1 UNK         0.0600 
    208 H208        0.6336  -23.9061  -52.6265 H         1 UNK         0.0600 
    209 H209       -0.4780  -23.5182  -51.3205 H         1 UNK         0.0600 
    210 H210       -2.3458  -26.2986  -50.8077 H         1 UNK         0.3000 
    211 H211       -4.2898  -26.7847  -51.6890 H         1 UNK         0.0600 
    212 H212       -2.8601  -27.7396  -54.2230 H         1 UNK         0.0600 
    213 H213       -4.4825  -28.1671  -53.7031 H         1 UNK         0.0600 
    214 H214       -3.0983  -28.7122  -52.7710 H         1 UNK         0.0600 
    215 H215       -3.0353  -24.1324  -52.1137 H         1 UNK         0.3000 
    216 H216       -4.2239  -23.0479  -54.5787 H         1 UNK         0.0600 
    217 H217       -3.1416  -20.9574  -53.8053 H         1 UNK         0.0600 
    218 H218       -1.9812  -22.2753  -53.8033 H         1 UNK         0.0600 
    219 H219       -2.6825  -21.7205  -52.2846 H         1 UNK         0.0600 
    220 H220       -4.9184  -23.2879  -51.1314 H         1 UNK         0.3000 
    221 H221       -6.8227  -21.2260  -50.8476 H         1 UNK         0.0600 
    222 H222       -7.4963  -22.4755  -48.7954 H         1 UNK         0.0600 
    223 H223       -6.6018  -23.8847  -49.3427 H         1 UNK         0.0600 
    224 H224       -5.7517  -22.3909  -48.9325 H         1 UNK         0.0600 
    225 H225       -7.1726  -24.1871  -52.5667 H         1 UNK         0.3000 
    226 H226      -10.0456  -24.4656  -52.4774 H         1 UNK         0.0600 
    227 H227       -8.5359  -26.3509  -53.0709 H         1 UNK         0.0600 
    228 H228       -9.6293  -26.0072  -54.4018 H         1 UNK         0.0600 
    229 H229       -7.9547  -25.4721  -54.4852 H         1 UNK         0.0600 
    230 H230       -7.9036  -22.2668  -54.1131 H         1 UNK         0.3000 
    231 H231      -10.1451  -21.1403  -55.7203 H         1 UNK         0.0600 
    232 H232       -8.4110  -20.5463  -57.4535 H         1 UNK         0.0600 
    233 H233       -8.6433  -22.2801  -57.3147 H         1 UNK         0.0600 
    234 H234       -7.2221  -21.5333  -56.5991 H         1 UNK         0.0600 
    235 H235       -6.9532  -19.7487  -55.6935 H         1 UNK         0.3000 
    236 H236       -7.2126  -18.3198  -53.2114 H         1 UNK         0.0600 
    237 H237       -8.5258  -16.7743  -54.6874 H         1 UNK         0.0600 
    238 H238       -6.9805  -16.0490  -54.2701 H         1 UNK         0.0600 
    239 H239       -7.2136  -16.7565  -55.8650 H         1 UNK         0.0600 
    240 H240       -5.1694  -17.6135  -52.5422 H         1 UNK         0.3000 
    241 H241       -2.8570  -18.6353  -54.0873 H         1 UNK         0.0600 
    242 H242       -1.2032  -17.2127  -54.8262 H         1 UNK         0.3800 
    243 H243       -1.3200  -15.4855  -54.6452 H         1 UNK         0.3800 
    244 H244       -2.7930  -17.7003  -51.1774 H         1 UNK         0.0800 
    245 H245       -3.3232  -19.2971  -51.6045 H         1 UNK         0.0800 
    246 H246        0.9405  -17.7329  -51.7742 H         1 UNK         0.0800 
    247 H247       -0.5053  -16.7948  -51.5331 H         1 UNK         0.0800 
@<TRIPOS>BOND
     1    1    2 1    
     2    1  127 1    
     3    1  128 1    
     4    1  129 1    
     5    2    3 2    
     6    2    4 am   BACKBONE|DICT|INTERRES
     7    4    5 1    
     8    4  130 1    
     9    5    6 1    
    10    5   65 1    
    11    5  131 1    
    12    6    7 1    
    13    6  132 1    
    14    6  133 1    
    15    7    8 1    
    16    8    9 1    
    17    8  134 1    
    18    8  135 1    
    19    9   10 ar   
    20    9   14 ar   
    21   10   11 ar   
    22   10  136 1    
    23   11   12 ar   
    24   11  126 1    
    25   12   13 ar   
    26   12  137 1    
    27   13   14 ar   
    28   13   15 1    
    29   14  138 1    
    30   15   16 1    
    31   15  139 1    
    32   15  140 1    
    33   16   17 1    
    34   17   18 1    
    35   17  141 1    
    36   17  142 1    
    37   18   19 1    
    38   18   67 1    
    39   18  143 1    
    40   19   20 am   BACKBONE|DICT|INTERRES
    41   19  144 1    
    42   20   21 2    
    43   20   22 1    
    44   22   23 1    
    45   22   24 1    
    46   22  145 1    
    47   23  146 1    
    48   23  147 1    
    49   23  148 1    
    50   24   25 am   BACKBONE|DICT|INTERRES
    51   24  149 1    
    52   25   26 2    
    53   25   27 1    
    54   27   28 1    
    55   27   29 1    
    56   27  150 1    
    57   28  151 1    
    58   28  152 1    
    59   28  153 1    
    60   29   30 am   BACKBONE|DICT|INTERRES
    61   29  154 1    
    62   30   31 2    
    63   30   32 1    
    64   32   33 1    
    65   32   34 1    
    66   32  155 1    
    67   33  156 1    
    68   33  157 1    
    69   33  158 1    
    70   34   35 am   BACKBONE|DICT|INTERRES
    71   34  159 1    
    72   35   36 2    
    73   35   37 1    
    74   37   38 1    
    75   37   39 1    
    76   37  160 1    
    77   38  161 1    
    78   38  162 1    
    79   38  163 1    
    80   39   40 am   BACKBONE|DICT|INTERRES
    81   39  164 1    
    82   40   41 2    
    83   40   42 1    
    84   42   43 1    
    85   42   44 1    
    86   42  165 1    
    87   43  166 1    
    88   43  167 1    
    89   43  168 1    
    90   44   45 am   BACKBONE|DICT|INTERRES
    91   44  169 1    
    92   45   46 2    
    93   45   47 1    
    94   47   48 1    
    95   47   49 1    
    96   47  170 1    
    97   48  171 1    
    98   48  172 1    
    99   48  173 1    
   100   49   50 am   BACKBONE|DICT|INTERRES
   101   49  174 1    
   102   50   51 2    
   103   50   52 1    
   104   52   53 1    
   105   52   54 1    
   106   52  175 1    
   107   53  176 1    
   108   53  177 1    
   109   53  178 1    
   110   54   55 am   BACKBONE|DICT|INTERRES
   111   54  179 1    
   112   55   56 2    
   113   55   57 1    
   114   57   58 1    
   115   57   59 1    
   116   57  180 1    
   117   58  181 1    
   118   58  182 1    
   119   58  183 1    
   120   59   60 am   BACKBONE|DICT|INTERRES
   121   59  184 1    
   122   60   61 2    
   123   60   62 1    
   124   62   63 1    
   125   62   64 1    
   126   62  185 1    
   127   63  186 1    
   128   63  187 1    
   129   63  188 1    
   130   64   65 am   BACKBONE|DICT|INTERRES
   131   64  189 1    
   132   65   66 2    
   133   67   68 2    
   134   67   69 am   BACKBONE|DICT|INTERRES
   135   69   70 1    
   136   69  190 1    
   137   70   71 1    
   138   70   72 1    
   139   70  191 1    
   140   71  192 1    
   141   71  193 1    
   142   71  194 1    
   143   72   73 2    
   144   72   74 am   BACKBONE|DICT|INTERRES
   145   74   75 1    
   146   74  195 1    
   147   75   76 1    
   148   75   77 1    
   149   75  196 1    
   150   76  197 1    
   151   76  198 1    
   152   76  199 1    
   153   77   78 2    
   154   77   79 am   BACKBONE|DICT|INTERRES
   155   79   80 1    
   156   79  200 1    
   157   80   81 1    
   158   80   82 1    
   159   80  201 1    
   160   81  202 1    
   161   81  203 1    
   162   81  204 1    
   163   82   83 2    
   164   82   84 am   BACKBONE|DICT|INTERRES
   165   84   85 1    
   166   84  205 1    
   167   85   86 1    
   168   85   87 1    
   169   85  206 1    
   170   86  207 1    
   171   86  208 1    
   172   86  209 1    
   173   87   88 2    
   174   87   89 am   BACKBONE|DICT|INTERRES
   175   89   90 1    
   176   89  210 1    
   177   90   91 1    
   178   90   92 1    
   179   90  211 1    
   180   91  212 1    
   181   91  213 1    
   182   91  214 1    
   183   92   93 2    
   184   92   94 am   BACKBONE|DICT|INTERRES
   185   94   95 1    
   186   94  215 1    
   187   95   96 1    
   188   95   97 1    
   189   95  216 1    
   190   96  217 1    
   191   96  218 1    
   192   96  219 1    
   193   97   98 2    
   194   97   99 am   BACKBONE|DICT|INTERRES
   195   99  100 1    
   196   99  220 1    
   197  100  101 1    
   198  100  102 1    
   199  100  221 1    
   200  101  222 1    
   201  101  223 1    
   202  101  224 1    
   203  102  103 2    
   204  102  104 am   BACKBONE|DICT|INTERRES
   205  104  105 1    
   206  104  225 1    
   207  105  106 1    
   208  105  107 1    
   209  105  226 1    
   210  106  227 1    
   211  106  228 1    
   212  106  229 1    
   213  107  108 2    
   214  107  109 am   BACKBONE|DICT|INTERRES
   215  109  110 1    
   216  109  230 1    
   217  110  111 1    
   218  110  112 1    
   219  110  231 1    
   220  111  232 1    
   221  111  233 1    
   222  111  234 1    
   223  112  113 2    
   224  112  114 am   BACKBONE|DICT|INTERRES
   225  114  115 1    
   226  114  235 1    
   227  115  116 1    
   228  115  117 1    
   229  115  236 1    
   230  116  237 1    
   231  116  238 1    
   232  116  239 1    
   233  117  118 2    
   234  117  119 am   BACKBONE|DICT|INTERRES
   235  119  120 1    
   236  119  240 1    
   237  120  121 1    
   238  120  124 1    
   239  120  241 1    
   240  121  122 am   BACKBONE|DICT|INTERRES
   241  121  123 2    
   242  122  242 1    
   243  122  243 1    
   244  124  125 1    
   245  124  244 1    
   246  124  245 1    
   247  125  126 1    
   248  126  246 1    
   249  126  247 1    
@<TRIPOS>SUBSTRUCTURE
     1 UNK         1 GROUP             0       ****    0 ROOT    
