@<TRIPOS>MOLECULE
3R540
247   249    1
SMALL
USER_CHARGES


@<TRIPOS>ATOM
      1 CA         -4.9306   -7.4086  -48.8160 C.3       0 UNK        -0.1800 
      2 C          -4.0577   -8.4139  -49.5536 C.2       0 UNK         0.5000 
      3 O          -3.2793   -8.0271  -50.4252 O.2       0 UNK        -0.5000 
      4 N          -4.1826   -9.7011  -49.2065 N.am      1 UNK        -0.5000 
      5 CA         -3.4192  -10.8134  -49.7886 C.3       1 UNK         0.1400 
      6 C6         -4.1385  -12.1774  -49.6093 C.3       23 UNK        -0.0398 
      7 S7         -4.7476  -12.5218  -47.9184 S.3       23 UNK        -0.2404 
      8 C8         -3.3621  -13.4349  -47.1741 C.3       23 UNK        -0.0205 
      9 C9         -3.2498  -14.8661  -47.6748 C.ar      23 UNK        -0.0193 
     10 C10        -2.3770  -15.1787  -48.7206 C.ar      23 UNK        -0.1150 
     11 C11        -2.2247  -16.5002  -49.1422 C.ar      23 UNK        -0.0193 
     12 C12        -2.9276  -17.5163  -48.4887 C.ar      23 UNK        -0.1150 
     13 C13        -3.7932  -17.2243  -47.4307 C.ar      23 UNK        -0.0193 
     14 C14        -3.9674  -15.8891  -47.0468 C.ar      23 UNK        -0.1150 
     15 C15        -4.5264  -18.3569  -46.7143 C.3       23 UNK        -0.0205 
     16 S16        -4.3661  -18.2369  -44.8955 S.3       23 UNK        -0.2404 
     17 C17        -4.3216  -19.9361  -44.2042 C.3       23 UNK        -0.0398 
     18 CA         -3.9188  -21.1193  -45.1221 C.3       11 UNK         0.1400 
     19 N          -2.5818  -20.9670  -45.7076 N.am      11 UNK        -0.5000 
     20 C          -2.0991  -21.7429  -46.6874 C.2       10 UNK         0.5000 
     21 O          -2.7529  -22.6345  -47.2253 O.2       10 UNK        -0.5000 
     22 CA         -0.6422  -21.5227  -47.1245 C.3       10 UNK         0.1400 
     23 CB         -0.5592  -20.4183  -48.1795 C.3       10 UNK        -0.1800 
     24 N           0.2749  -21.2255  -46.0247 N.am      10 UNK        -0.5000 
     25 C           0.5865  -22.0830  -45.0440 C.2       9 UNK         0.5000 
     26 O           0.0860  -23.2018  -44.9380 O.2       9 UNK        -0.5000 
     27 CA          1.6122  -21.6119  -43.9960 C.3       9 UNK         0.1400 
     28 CB          3.0348  -21.6153  -44.5757 C.3       9 UNK        -0.1800 
     29 N           1.3027  -20.2855  -43.4682 N.am      9 UNK        -0.5000 
     30 C           0.2277  -20.0029  -42.7189 C.2       8 UNK         0.5000 
     31 O          -0.5758  -20.8480  -42.3217 O.2       8 UNK        -0.5000 
     32 CA         -0.0234  -18.5135  -42.4128 C.3       8 UNK         0.1400 
     33 CB          0.8364  -18.0421  -41.2306 C.3       8 UNK        -0.1800 
     34 N           0.2123  -17.6405  -43.5651 N.am      8 UNK        -0.5000 
     35 C          -0.3913  -17.7711  -44.7555 C.2       7 UNK         0.5000 
     36 O          -1.2081  -18.6489  -45.0158 O.2       7 UNK        -0.5000 
     37 CA          0.0418  -16.7995  -45.8590 C.3       7 UNK         0.1400 
     38 CB         -0.5560  -15.4069  -45.6085 C.3       7 UNK        -0.1800 
     39 N           1.5005  -16.7397  -45.9759 N.am      7 UNK        -0.5000 
     40 C           2.2637  -17.7778  -46.3560 C.2       6 UNK         0.5000 
     41 O           1.8133  -18.8652  -46.7102 O.2       6 UNK        -0.5000 
     42 CA          3.7889  -17.6087  -46.2568 C.3       6 UNK         0.1400 
     43 CB          4.3822  -17.0439  -47.5558 C.3       6 UNK        -0.1800 
     44 N           4.1736  -16.7753  -45.1192 N.am      6 UNK        -0.5000 
     45 C           4.0966  -17.1850  -43.8441 C.2       5 UNK         0.5000 
     46 O           3.7451  -18.3179  -43.5117 O.2       5 UNK        -0.5000 
     47 CA          4.4210  -16.1428  -42.7572 C.3       5 UNK         0.1400 
     48 CB          5.9258  -16.1302  -42.4513 C.3       5 UNK        -0.1800 
     49 N           3.9879  -14.7900  -43.1137 N.am      5 UNK        -0.5000 
     50 C           2.7127  -14.4259  -43.3039 C.2       4 UNK         0.5000 
     51 O           1.7655  -15.1983  -43.1580 O.2       4 UNK        -0.5000 
     52 CA          2.4429  -12.9716  -43.7452 C.3       4 UNK         0.1400 
     53 CB          3.5867  -11.9976  -43.3870 C.3       4 UNK        -0.1800 
     54 N           2.1141  -12.8523  -45.1711 N.am      4 UNK        -0.5000 
     55 C           2.8288  -13.2690  -46.2247 C.2       3 UNK         0.5000 
     56 O           3.8539  -13.9433  -46.1172 O.2       3 UNK        -0.5000 
     57 CA          2.3743  -12.8362  -47.6405 C.3       3 UNK         0.1400 
     58 CB          1.6835  -13.9750  -48.4182 C.3       3 UNK        -0.1800 
     59 N           1.5926  -11.5928  -47.7462 N.am      3 UNK        -0.5000 
     60 C           0.3767  -11.3098  -47.2550 C.2       2 UNK         0.5000 
     61 O          -0.2328  -12.0458  -46.4797 O.2       2 UNK        -0.5000 
     62 CA         -0.2688   -9.9674  -47.6647 C.3       2 UNK         0.1400 
     63 CB          0.6042   -9.0986  -48.5985 C.3       2 UNK        -0.1800 
     64 N          -1.6075  -10.1452  -48.2408 N.am      2 UNK        -0.5000 
     65 C          -1.9408  -10.8572  -49.3309 C.2       1 UNK         0.5000 
     66 O          -1.1358  -11.5147  -49.9917 O.2       1 UNK        -0.5000 
     67 C          -4.0456  -22.4514  -44.3488 C.2       11 UNK         0.5000 
     68 O          -5.1139  -23.0632  -44.3770 O.2       11 UNK        -0.5000 
     69 N          -2.9596  -22.8839  -43.6891 N.am      12 UNK        -0.5000 
     70 CA         -2.8813  -24.1623  -42.9809 C.3       12 UNK         0.1400 
     71 CB         -1.6999  -24.1368  -41.9989 C.3       12 UNK        -0.1800 
     72 C          -2.7722  -25.3562  -43.9473 C.2       12 UNK         0.5000 
     73 O          -3.4339  -26.3726  -43.7330 O.2       12 UNK        -0.5000 
     74 N          -1.9526  -25.2066  -44.9975 N.am      13 UNK        -0.5000 
     75 CA         -1.7687  -26.1866  -46.0703 C.3       13 UNK         0.1400 
     76 CB         -0.5694  -25.7618  -46.9298 C.3       13 UNK        -0.1800 
     77 C          -3.0221  -26.3628  -46.9479 C.2       13 UNK         0.5000 
     78 O          -3.2812  -27.4709  -47.4208 O.2       13 UNK        -0.5000 
     79 N          -3.7716  -25.2682  -47.1419 N.am      14 UNK        -0.5000 
     80 CA         -5.0084  -25.1552  -47.9110 C.3       14 UNK         0.1400 
     81 CB         -6.1610  -25.8884  -47.1901 C.3       14 UNK        -0.1800 
     82 C          -4.7873  -25.5866  -49.3721 C.2       14 UNK         0.5000 
     83 O          -3.9848  -24.9589  -50.0658 O.2       14 UNK        -0.5000 
     84 N          -5.4626  -26.6575  -49.8091 N.am      15 UNK        -0.5000 
     85 CA         -5.3946  -27.2221  -51.1587 C.3       15 UNK         0.1400 
     86 CB         -6.3527  -28.4189  -51.2491 C.3       15 UNK        -0.1800 
     87 C          -3.9791  -27.6306  -51.6124 C.2       15 UNK         0.5000 
     88 O          -3.6969  -27.5679  -52.8086 O.2       15 UNK        -0.5000 
     89 N          -3.1000  -27.9878  -50.6640 N.am      16 UNK        -0.5000 
     90 CA         -1.6976  -28.3249  -50.9265 C.3       16 UNK         0.1400 
     91 CB         -1.0992  -29.0130  -49.6909 C.3       16 UNK        -0.1800 
     92 C          -0.8402  -27.1155  -51.3580 C.2       16 UNK         0.5000 
     93 O           0.1685  -27.3101  -52.0368 O.2       16 UNK        -0.5000 
     94 N          -1.2621  -25.8986  -50.9866 N.am      17 UNK        -0.5000 
     95 CA         -0.6651  -24.6306  -51.4191 C.3       17 UNK         0.1400 
     96 CB         -0.4674  -23.7387  -50.1823 C.3       17 UNK        -0.1800 
     97 C          -1.5409  -23.9088  -52.4630 C.2       17 UNK         0.5000 
     98 O          -1.1854  -22.8088  -52.8897 O.2       17 UNK        -0.5000 
     99 N          -2.6848  -24.5139  -52.8213 N.am      18 UNK        -0.5000 
    100 CA        -3.7853  -23.9446  -53.6045 C.3       18 UNK         0.1400 
    101 CB        -3.3995  -23.8246  -55.0926 C.3       18 UNK        -0.1800 
    102 C         -4.3509  -22.6481  -52.9793 C.2       18 UNK         0.5000 
    103 O         -4.7114  -21.7120  -53.6959 O.2       18 UNK        -0.5000 
    104 N         -4.4104  -22.6370  -51.6376 N.am      19 UNK        -0.5000 
    105 CA        -4.8904  -21.5766  -50.7519 C.3       19 UNK         0.1400 
    106 CB        -6.4341  -21.5743  -50.7329 C.3       19 UNK        -0.1800 
    107 C         -4.2574  -20.2090  -51.0784 C.2       19 UNK         0.5000 
    108 O         -3.0533  -20.0413  -50.8839 O.2       19 UNK        -0.5000 
    109 N         -5.0676  -19.2764  -51.5984 N.am      20 UNK        -0.5000 
    110 CA        -4.7090  -17.9042  -51.9674 C.3       20 UNK         0.1400 
    111 CB        -5.9828  -17.1693  -52.4125 C.3       20 UNK        -0.1800 
    112 C         -3.6031  -17.7693  -53.0366 C.2       20 UNK         0.5000 
    113 O         -3.0729  -16.6708  -53.2062 O.2       20 UNK        -0.5000 
    114 N         -3.2510  -18.8660  -53.7213 N.am      21 UNK        -0.5000 
    115 CA        -2.1042  -18.9353  -54.6263 C.3       21 UNK         0.1400 
    116 CB        -2.1997  -20.2208  -55.4553 C.3       21 UNK        -0.1800 
    117 C         -0.7437  -18.8736  -53.8994 C.2       21 UNK         0.5000 
    118 O          0.2258  -18.4121  -54.5032 O.2       21 UNK        -0.5000 
    119 N         -0.6894  -19.3229  -52.6343 N.am      22 UNK        -0.5000 
    120 CA         0.5219  -19.3693  -51.7913 C.3       22 UNK         0.1400 
    121 C          1.6401  -20.3064  -52.3515 C.2       22 UNK         0.5000 
    122 N          1.2943  -21.4175  -52.9899 N.am      22 UNK        -0.7600 
    123 O          2.8317  -20.0500  -52.1999 O.2       22 UNK        -0.5000 
    124 C124        1.0206  -17.9438  -51.3774 C.3       23 UNK        -0.0398 
    125 S125        0.3223  -17.3756  -49.7901 S.3       23 UNK        -0.2404 
    126 C126       -1.3234  -16.8310  -50.3189 C.3       23 UNK        -0.0205 
    127 H127       -5.5678   -7.8917  -48.0748 H         1 UNK         0.0600 
    128 H128       -5.5711   -6.8793  -49.5215 H         1 UNK         0.0600 
    129 H129       -4.3076   -6.6759  -48.3031 H         1 UNK         0.0600 
    130 H130       -4.8409   -9.9647  -48.4859 H         1 UNK         0.3000 
    131 H131       -3.3742  -10.6347  -50.8654 H         1 UNK         0.0600 
    132 H132       -5.0155  -12.1888  -50.2577 H         1 UNK         0.0800 
    133 H133       -3.5209  -12.9999  -49.9686 H         1 UNK         0.0800 
    134 H134       -2.4329  -12.9024  -47.3625 H         1 UNK         0.0800 
    135 H135       -3.4871  -13.4391  -46.0904 H         1 UNK         0.0800 
    136 H136       -1.8090  -14.3952  -49.2025 H         1 UNK         0.1150 
    137 H137       -2.7944  -18.5396  -48.8066 H         1 UNK         0.1150 
    138 H138       -4.6348  -15.6485  -46.2315 H         1 UNK         0.1150 
    139 H139       -5.5832  -18.3233  -46.9808 H         1 UNK         0.0800 
    140 H140       -4.1485  -19.3090  -47.0783 H         1 UNK         0.0800 
    141 H141       -5.3146  -20.1199  -43.7897 H         1 UNK         0.0800 
    142 H142       -3.6489  -19.9002  -43.3449 H         1 UNK         0.0800 
    143 H143       -4.6401  -21.1744  -45.9394 H         1 UNK         0.0600 
    144 H144       -2.0122  -20.1944  -45.3602 H         1 UNK         0.3000 
    145 H145       -0.2988  -22.4479  -47.5884 H         1 UNK         0.0600 
    146 H146        0.4500  -20.3422  -48.5832 H         1 UNK         0.0600 
    147 H147       -0.8247  -19.4478  -47.7606 H         1 UNK         0.0600 
    148 H148       -1.2326  -20.6187  -49.0129 H         1 UNK         0.0600 
    149 H149        0.7360  -20.3202  -46.0612 H         1 UNK         0.3000 
    150 H150        1.5855  -22.3193  -43.1645 H         1 UNK         0.0600 
    151 H151        3.2985  -22.6028  -44.9565 H         1 UNK         0.0600 
    152 H152        3.7701  -21.3517  -43.8152 H         1 UNK         0.0600 
    153 H153        3.1388  -20.9072  -45.3981 H         1 UNK         0.0600 
    154 H154        1.9279  -19.5313  -43.7264 H         1 UNK         0.3000 
    155 H155       -1.0741  -18.4074  -42.1356 H         1 UNK         0.0600 
    156 H156        0.6507  -18.6519  -40.3455 H         1 UNK         0.0600 
    157 H157        0.6122  -17.0082  -40.9675 H         1 UNK         0.0600 
    158 H158        1.9010  -18.1058  -41.4563 H         1 UNK         0.0600 
    159 H159        0.8582  -16.8671  -43.4316 H         1 UNK         0.3000 
    160 H160       -0.3613  -17.1714  -46.8027 H         1 UNK         0.0600 
    161 H161       -0.0964  -14.8914  -44.7695 H         1 UNK         0.0600 
    162 H162       -1.6214  -15.4790  -45.3893 H         1 UNK         0.0600 
    163 H163       -0.4575  -14.7706  -46.4822 H         1 UNK         0.0600 
    164 H164        1.9532  -15.9059  -45.6336 H         1 UNK         0.3000 
    165 H165        4.2152  -18.6037  -46.1102 H         1 UNK         0.0600 
    166 H166        5.4717  -17.0588  -47.5262 H         1 UNK         0.0600 
    167 H167        4.0718  -17.6376  -48.4168 H         1 UNK         0.0600 
    168 H168        4.0708  -16.0173  -47.7368 H         1 UNK         0.0600 
    169 H169        4.4068  -15.8081  -45.3174 H         1 UNK         0.3000 
    170 H170        3.8900  -16.4365  -41.8493 H         1 UNK         0.0600 
    171 H171        6.5103  -15.8164  -43.3171 H         1 UNK         0.0600 
    172 H172        6.1553  -15.4543  -41.6274 H         1 UNK         0.0600 
    173 H173        6.2733  -17.1230  -42.1625 H         1 UNK         0.0600 
    174 H174        4.7130  -14.1075  -43.2796 H         1 UNK         0.3000 
    175 H175        1.5556  -12.6506  -43.1976 H         1 UNK         0.0600 
    176 H176        4.4948  -12.1966  -43.9572 H         1 UNK         0.0600 
    177 H177        3.2940  -10.9673  -43.5895 H         1 UNK         0.0600 
    178 H178        3.8374  -12.0560  -42.3270 H         1 UNK         0.0600 
    179 H179        1.2291  -12.4004  -45.3863 H         1 UNK         0.3000 
    180 H180        3.3065  -12.6264  -48.1673 H         1 UNK         0.0600 
    181 H181        2.1160  -14.9487  -48.1942 H         1 UNK         0.0600 
    182 H182        1.7838  -13.8209  -49.4924 H         1 UNK         0.0600 
    183 H183        0.6183  -14.0361  -48.2093 H         1 UNK         0.0600 
    184 H184        2.0122  -10.8881  -48.3360 H         1 UNK         0.3000 
    185 H185       -0.4085   -9.4098  -46.7376 H         1 UNK         0.0600 
    186 H186        0.1102   -8.1522  -48.8196 H         1 UNK         0.0600 
    187 H187        1.5611   -8.8553  -48.1351 H         1 UNK         0.0600 
    188 H188        0.8063   -9.5914  -49.5503 H         1 UNK         0.0600 
    189 H189       -2.3551   -9.6694  -47.7567 H         1 UNK         0.3000 
    190 H190       -2.1155  -22.3268  -43.7148 H         1 UNK         0.3000 
    191 H191       -3.7962  -24.2887  -42.3981 H         1 UNK         0.0600 
    192 H192       -1.8103  -23.3316  -41.2723 H         1 UNK         0.0600 
    193 H193       -0.7482  -23.9937  -42.5108 H         1 UNK         0.0600 
    194 H194       -1.6356  -25.0721  -41.4417 H         1 UNK         0.0600 
    195 H195       -1.3834  -24.3655  -45.0527 H         1 UNK         0.3000 
    196 H196       -1.5422  -27.1527  -45.6150 H         1 UNK         0.0600 
    197 H197        0.3448  -25.7187  -46.3376 H         1 UNK         0.0600 
    198 H198       -0.7300  -24.7774  -47.3670 H         1 UNK         0.0600 
    199 H199       -0.3944  -26.4593  -47.7481 H         1 UNK         0.0600 
    200 H200       -3.3958  -24.3798  -46.8220 H         1 UNK         0.3000 
    201 H201       -5.2563  -24.0932  -47.9412 H         1 UNK         0.0600 
    202 H202       -6.2998  -25.4889  -46.1851 H         1 UNK         0.0600 
    203 H203       -5.9763  -26.9587  -47.0925 H         1 UNK         0.0600 
    204 H204       -7.1057  -25.7561  -47.7190 H         1 UNK         0.0600 
    205 H205       -6.0714  -27.1308  -49.1574 H         1 UNK         0.3000 
    206 H206       -5.7448  -26.4522  -51.8493 H         1 UNK         0.0600 
    207 H207       -6.0745  -29.2095  -50.5510 H         1 UNK         0.0600 
    208 H208       -7.3784  -28.1217  -51.0300 H         1 UNK         0.0600 
    209 H209       -6.3483  -28.8492  -52.2516 H         1 UNK         0.0600 
    210 H210       -3.3955  -27.9850  -49.6951 H         1 UNK         0.3000 
    211 H211       -1.6746  -29.0426  -51.7494 H         1 UNK         0.0600 
    212 H212       -1.1261  -28.3665  -48.8155 H         1 UNK         0.0600 
    213 H213       -0.0585  -29.2912  -49.8624 H         1 UNK         0.0600 
    214 H214       -1.6430  -29.9258  -49.4474 H         1 UNK         0.0600 
    215 H215       -2.1170  -25.8187  -50.4467 H         1 UNK         0.3000 
    216 H216        0.3108  -24.7967  -51.8791 H         1 UNK         0.0600 
    217 H217       -0.0440  -22.7704  -50.4528 H         1 UNK         0.0600 
    218 H218        0.2207  -24.2016  -49.4758 H         1 UNK         0.0600 
    219 H219       -1.4109  -23.5519  -49.6669 H         1 UNK         0.0600 
    220 H220       -2.8609  -25.4318  -52.4377 H         1 UNK         0.3000 
    221 H221       -4.6012  -24.6663  -53.5458 H         1 UNK         0.0600 
    222 H222       -2.4968  -23.2353  -55.2385 H         1 UNK         0.0600 
    223 H223       -3.2155  -24.8096  -55.5214 H         1 UNK         0.0600 
    224 H224       -4.1967  -23.3644  -55.6774 H         1 UNK         0.0600 
    225 H225       -4.0749  -23.4662  -51.1527 H         1 UNK         0.3000 
    226 H226       -4.5469  -21.8355  -49.7488 H         1 UNK         0.0600 
    227 H227       -6.8160  -22.5346  -50.3859 H         1 UNK         0.0600 
    228 H228       -6.8210  -20.8137  -50.0533 H         1 UNK         0.0600 
    229 H229       -6.8579  -21.3925  -51.7212 H         1 UNK         0.0600 
    230 H230       -6.0288  -19.5365  -51.7634 H         1 UNK         0.3000 
    231 H231       -4.3377  -17.4148  -51.0659 H         1 UNK         0.0600 
    232 H232       -5.7705  -16.1274  -52.6562 H         1 UNK         0.0600 
    233 H233       -6.7346  -17.1676  -51.6230 H         1 UNK         0.0600 
    234 H234       -6.4230  -17.6306  -53.2973 H         1 UNK         0.0600 
    235 H235       -3.7425  -19.7341  -53.5407 H         1 UNK         0.3000 
    236 H236       -2.1572  -18.0851  -55.3096 H         1 UNK         0.0600 
    237 H237       -2.1088  -21.0956  -54.8141 H         1 UNK         0.0600 
    238 H238       -3.1491  -20.2868  -55.9869 H         1 UNK         0.0600 
    239 H239       -1.4014  -20.2715  -56.1967 H         1 UNK         0.0600 
    240 H240       -1.5347  -19.6864  -52.2053 H         1 UNK         0.3000 
    241 H241        0.2101  -19.8850  -50.8850 H         1 UNK         0.0600 
    242 H242        0.3206  -21.7033  -53.0640 H         1 UNK         0.3800 
    243 H243        2.0160  -22.0176  -53.3537 H         1 UNK         0.3800 
    244 H244        0.8155  -17.2031  -52.1506 H         1 UNK         0.0800 
    245 H245        2.1011  -17.9127  -51.2371 H         1 UNK         0.0800 
    246 H246       -1.2321  -15.9760  -50.9905 H         1 UNK         0.0800 
    247 H247       -1.7845  -17.6309  -50.8918 H         1 UNK         0.0800 
@<TRIPOS>BOND
     1    1    2 1    
     2    1  127 1    
     3    1  128 1    
     4    1  129 1    
     5    2    3 2    
     6    2    4 am   BACKBONE|DICT|INTERRES
     7    4    5 1    
     8    4  130 1    
     9    5    6 1    
    10    5   65 1    
    11    5  131 1    
    12    6    7 1    
    13    6  132 1    
    14    6  133 1    
    15    7    8 1    
    16    8    9 1    
    17    8  134 1    
    18    8  135 1    
    19    9   10 ar   
    20    9   14 ar   
    21   10   11 ar   
    22   10  136 1    
    23   11   12 ar   
    24   11  126 1    
    25   12   13 ar   
    26   12  137 1    
    27   13   14 ar   
    28   13   15 1    
    29   14  138 1    
    30   15   16 1    
    31   15  139 1    
    32   15  140 1    
    33   16   17 1    
    34   17   18 1    
    35   17  141 1    
    36   17  142 1    
    37   18   19 1    
    38   18   67 1    
    39   18  143 1    
    40   19   20 am   BACKBONE|DICT|INTERRES
    41   19  144 1    
    42   20   21 2    
    43   20   22 1    
    44   22   23 1    
    45   22   24 1    
    46   22  145 1    
    47   23  146 1    
    48   23  147 1    
    49   23  148 1    
    50   24   25 am   BACKBONE|DICT|INTERRES
    51   24  149 1    
    52   25   26 2    
    53   25   27 1    
    54   27   28 1    
    55   27   29 1    
    56   27  150 1    
    57   28  151 1    
    58   28  152 1    
    59   28  153 1    
    60   29   30 am   BACKBONE|DICT|INTERRES
    61   29  154 1    
    62   30   31 2    
    63   30   32 1    
    64   32   33 1    
    65   32   34 1    
    66   32  155 1    
    67   33  156 1    
    68   33  157 1    
    69   33  158 1    
    70   34   35 am   BACKBONE|DICT|INTERRES
    71   34  159 1    
    72   35   36 2    
    73   35   37 1    
    74   37   38 1    
    75   37   39 1    
    76   37  160 1    
    77   38  161 1    
    78   38  162 1    
    79   38  163 1    
    80   39   40 am   BACKBONE|DICT|INTERRES
    81   39  164 1    
    82   40   41 2    
    83   40   42 1    
    84   42   43 1    
    85   42   44 1    
    86   42  165 1    
    87   43  166 1    
    88   43  167 1    
    89   43  168 1    
    90   44   45 am   BACKBONE|DICT|INTERRES
    91   44  169 1    
    92   45   46 2    
    93   45   47 1    
    94   47   48 1    
    95   47   49 1    
    96   47  170 1    
    97   48  171 1    
    98   48  172 1    
    99   48  173 1    
   100   49   50 am   BACKBONE|DICT|INTERRES
   101   49  174 1    
   102   50   51 2    
   103   50   52 1    
   104   52   53 1    
   105   52   54 1    
   106   52  175 1    
   107   53  176 1    
   108   53  177 1    
   109   53  178 1    
   110   54   55 am   BACKBONE|DICT|INTERRES
   111   54  179 1    
   112   55   56 2    
   113   55   57 1    
   114   57   58 1    
   115   57   59 1    
   116   57  180 1    
   117   58  181 1    
   118   58  182 1    
   119   58  183 1    
   120   59   60 am   BACKBONE|DICT|INTERRES
   121   59  184 1    
   122   60   61 2    
   123   60   62 1    
   124   62   63 1    
   125   62   64 1    
   126   62  185 1    
   127   63  186 1    
   128   63  187 1    
   129   63  188 1    
   130   64   65 am   BACKBONE|DICT|INTERRES
   131   64  189 1    
   132   65   66 2    
   133   67   68 2    
   134   67   69 am   BACKBONE|DICT|INTERRES
   135   69   70 1    
   136   69  190 1    
   137   70   71 1    
   138   70   72 1    
   139   70  191 1    
   140   71  192 1    
   141   71  193 1    
   142   71  194 1    
   143   72   73 2    
   144   72   74 am   BACKBONE|DICT|INTERRES
   145   74   75 1    
   146   74  195 1    
   147   75   76 1    
   148   75   77 1    
   149   75  196 1    
   150   76  197 1    
   151   76  198 1    
   152   76  199 1    
   153   77   78 2    
   154   77   79 am   BACKBONE|DICT|INTERRES
   155   79   80 1    
   156   79  200 1    
   157   80   81 1    
   158   80   82 1    
   159   80  201 1    
   160   81  202 1    
   161   81  203 1    
   162   81  204 1    
   163   82   83 2    
   164   82   84 am   BACKBONE|DICT|INTERRES
   165   84   85 1    
   166   84  205 1    
   167   85   86 1    
   168   85   87 1    
   169   85  206 1    
   170   86  207 1    
   171   86  208 1    
   172   86  209 1    
   173   87   88 2    
   174   87   89 am   BACKBONE|DICT|INTERRES
   175   89   90 1    
   176   89  210 1    
   177   90   91 1    
   178   90   92 1    
   179   90  211 1    
   180   91  212 1    
   181   91  213 1    
   182   91  214 1    
   183   92   93 2    
   184   92   94 am   BACKBONE|DICT|INTERRES
   185   94   95 1    
   186   94  215 1    
   187   95   96 1    
   188   95   97 1    
   189   95  216 1    
   190   96  217 1    
   191   96  218 1    
   192   96  219 1    
   193   97   98 2    
   194   97   99 am   BACKBONE|DICT|INTERRES
   195   99  100 1    
   196   99  220 1    
   197  100  101 1    
   198  100  102 1    
   199  100  221 1    
   200  101  222 1    
   201  101  223 1    
   202  101  224 1    
   203  102  103 2    
   204  102  104 am   BACKBONE|DICT|INTERRES
   205  104  105 1    
   206  104  225 1    
   207  105  106 1    
   208  105  107 1    
   209  105  226 1    
   210  106  227 1    
   211  106  228 1    
   212  106  229 1    
   213  107  108 2    
   214  107  109 am   BACKBONE|DICT|INTERRES
   215  109  110 1    
   216  109  230 1    
   217  110  111 1    
   218  110  112 1    
   219  110  231 1    
   220  111  232 1    
   221  111  233 1    
   222  111  234 1    
   223  112  113 2    
   224  112  114 am   BACKBONE|DICT|INTERRES
   225  114  115 1    
   226  114  235 1    
   227  115  116 1    
   228  115  117 1    
   229  115  236 1    
   230  116  237 1    
   231  116  238 1    
   232  116  239 1    
   233  117  118 2    
   234  117  119 am   BACKBONE|DICT|INTERRES
   235  119  120 1    
   236  119  240 1    
   237  120  121 1    
   238  120  124 1    
   239  120  241 1    
   240  121  122 am   BACKBONE|DICT|INTERRES
   241  121  123 2    
   242  122  242 1    
   243  122  243 1    
   244  124  125 1    
   245  124  244 1    
   246  124  245 1    
   247  125  126 1    
   248  126  246 1    
   249  126  247 1    
@<TRIPOS>SUBSTRUCTURE
     1 UNK         1 GROUP             0       ****    0 ROOT    
