@<TRIPOS>MOLECULE
3R540
247   249    1
SMALL
USER_CHARGES


@<TRIPOS>ATOM
      1 CA          0.3973  -14.8291  -48.0417 C.3       0 UNK        -0.1800 
      2 C           1.6297  -13.9789  -48.3090 C.2       0 UNK         0.5000 
      3 O           2.5585  -13.9862  -47.5028 O.2       0 UNK        -0.5000 
      4 N           1.6016  -13.2100  -49.4093 N.am      1 UNK        -0.5000 
      5 CA          2.6259  -12.2742  -49.9138 C.3       1 UNK         0.1400 
      6 C6          3.7051  -12.9378  -50.8172 C.3       23 UNK        -0.0398 
      7 S7          4.8818  -14.0673  -49.9889 S.3       23 UNK        -0.2404 
      8 C8          4.7029  -15.5933  -50.9694 C.3       23 UNK        -0.0205 
      9 C9          3.4234  -16.3362  -50.6215 C.ar      23 UNK        -0.0193 
     10 C10         2.2946  -16.2369  -51.4400 C.ar      23 UNK        -0.1150 
     11 C11         1.1042  -16.8810  -51.0888 C.ar      23 UNK        -0.0193 
     12 C12         1.0542  -17.6334  -49.9119 C.ar      23 UNK        -0.1150 
     13 C13         2.1853  -17.7633  -49.1003 C.ar      23 UNK        -0.0193 
     14 C14         3.3670  -17.1136  -49.4628 C.ar      23 UNK        -0.1150 
     15 C15         2.1232  -18.5526  -47.8031 C.3       23 UNK        -0.0205 
     16 S16         1.9319  -20.3421  -48.0777 S.3       23 UNK        -0.2404 
     17 C17         0.1178  -20.5082  -48.1894 C.3       23 UNK        -0.0398 
     18 CA         -0.3962  -21.7676  -47.4562 C.3       11 UNK         0.1400 
     19 N          -0.2119  -21.6977  -46.0004 N.am      11 UNK        -0.5000 
     20 C          -0.3921  -22.7313  -45.1659 C.2       10 UNK         0.5000 
     21 O          -0.7076  -23.8592  -45.5405 O.2       10 UNK        -0.5000 
     22 CA         -0.2538  -22.4571  -43.6580 C.3       10 UNK         0.1400 
     23 CB          1.2219  -22.3998  -43.2364 C.3       10 UNK        -0.1800 
     24 N          -0.9491  -21.2390  -43.2406 N.am      10 UNK        -0.5000 
     25 C          -2.2778  -21.0710  -43.3057 C.2       9 UNK         0.5000 
     26 O          -3.0554  -21.9425  -43.6937 O.2       9 UNK        -0.5000 
     27 CA         -2.8346  -19.6906  -42.9109 C.3       9 UNK         0.1400 
     28 CB         -2.9602  -19.5687  -41.3853 C.3       9 UNK        -0.1800 
     29 N          -2.0341  -18.5817  -43.4294 N.am      9 UNK        -0.5000 
     30 C          -1.8372  -18.3268  -44.7310 C.2       8 UNK         0.5000 
     31 O          -2.3453  -18.9778  -45.6438 O.2       8 UNK        -0.5000 
     32 CA         -0.8480  -17.1964  -45.0693 C.3       8 UNK         0.1400 
     33 CB         -1.4988  -15.8172  -44.8879 C.3       8 UNK        -0.1800 
     34 N           0.3836  -17.2682  -44.2799 N.am      8 UNK        -0.5000 
     35 C           1.2083  -18.3258  -44.2451 C.2       7 UNK         0.5000 
     36 O           1.0381  -19.3490  -44.9048 O.2       7 UNK        -0.5000 
     37 CA          2.3847  -18.2562  -43.2607 C.3       7 UNK         0.1400 
     38 CB          3.5139  -17.3663  -43.8039 C.3       7 UNK        -0.1800 
     39 N           1.9496  -17.7856  -41.9460 N.am      7 UNK        -0.5000 
     40 C           1.1479  -18.4830  -41.1265 C.2       6 UNK         0.5000 
     41 O           0.7438  -19.6198  -41.3687 O.2       6 UNK        -0.5000 
     42 CA          0.6861  -17.7740  -39.8407 C.3       6 UNK         0.1400 
     43 CB          1.7347  -17.9310  -38.7296 C.3       6 UNK        -0.1800 
     44 N           0.4147  -16.3521  -40.0536 N.am      6 UNK        -0.5000 
     45 C          -0.5791  -15.8720  -40.8156 C.2       5 UNK         0.5000 
     46 O          -1.4113  -16.5807  -41.3806 O.2       5 UNK        -0.5000 
     47 CA         -0.6064  -14.3455  -41.0233 C.3       5 UNK         0.1400 
     48 CB         -1.3742  -13.6564  -39.8857 C.3       5 UNK        -0.1800 
     49 N           0.7407  -13.7742  -41.1227 N.am      5 UNK        -0.5000 
     50 C           1.5888  -14.0346  -42.1252 C.2       4 UNK         0.5000 
     51 O           1.2990  -14.7328  -43.1009 O.2       4 UNK        -0.5000 
     52 CA          3.0147  -13.4897  -41.9790 C.3       4 UNK         0.1400 
     53 CB          3.8424  -14.4426  -41.0900 C.3       4 UNK        -0.1800 
     54 N           3.5949  -13.3688  -43.3135 N.am      4 UNK        -0.5000 
     55 C           4.8004  -12.8796  -43.6267 C.2       3 UNK         0.5000 
     56 O           5.6166  -12.4645  -42.8030 O.2       3 UNK        -0.5000 
     57 CA          5.1312  -12.8091  -45.1275 C.3       3 UNK         0.1400 
     58 CB          5.3327  -14.2143  -45.7192 C.3       3 UNK        -0.1800 
     59 N           4.0964  -12.0980  -45.8799 N.am      3 UNK        -0.5000 
     60 C           3.8701  -10.7768  -45.7953 C.2       2 UNK         0.5000 
     61 O           4.5310  -10.0251  -45.0761 O.2       2 UNK        -0.5000 
     62 CA          2.7144  -10.1929  -46.6418 C.3       2 UNK         0.1400 
     63 CB          2.9318   -8.7110  -47.0147 C.3       2 UNK        -0.1800 
     64 N           2.3916  -10.9880  -47.8307 N.am      2 UNK        -0.5000 
     65 C           3.1911  -11.2760  -48.8701 C.2       1 UNK         0.5000 
     66 O           4.3119  -10.7874  -49.0240 O.2       1 UNK        -0.5000 
     67 C          -1.8598  -22.0591  -47.8467 C.2       11 UNK         0.5000 
     68 O          -2.0911  -22.7944  -48.8086 O.2       11 UNK        -0.5000 
     69 N          -2.8186  -21.5116  -47.0869 N.am      12 UNK        -0.5000 
     70 CA         -4.2442  -21.7889  -47.2462 C.3       12 UNK         0.1400 
     71 CB         -5.0719  -20.7815  -46.4344 C.3       12 UNK        -0.1800 
     72 C          -4.6027  -23.2372  -46.8744 C.2       12 UNK         0.5000 
     73 O          -5.3104  -23.8950  -47.6367 O.2       12 UNK        -0.5000 
     74 N          -4.0746  -23.7218  -45.7412 N.am      13 UNK        -0.5000 
     75 CA         -4.2410  -25.0964  -45.2619 C.3       13 UNK         0.1400 
     76 CB         -3.6794  -25.2142  -43.8370 C.3       13 UNK        -0.1800 
     77 C          -3.5931  -26.1404  -46.1910 C.2       13 UNK         0.5000 
     78 O          -4.1789  -27.1994  -46.4189 O.2       13 UNK        -0.5000 
     79 N          -2.4137  -25.8103  -46.7343 N.am      14 UNK        -0.5000 
     80 CA         -1.6905  -26.6110  -47.7241 C.3       14 UNK         0.1400 
     81 CB         -0.2376  -26.1156  -47.7992 C.3       14 UNK        -0.1800 
     82 C          -2.3300  -26.5818  -49.1266 C.2       14 UNK         0.5000 
     83 O          -1.9939  -27.4343  -49.9494 O.2       14 UNK        -0.5000 
     84 N          -3.2165  -25.6045  -49.3739 N.am      15 UNK        -0.5000 
     85 CA         -3.8879  -25.3040  -50.6403 C.3       15 UNK         0.1400 
     86 CB         -4.8536  -26.4416  -51.0314 C.3       15 UNK        -0.1800 
     87 C          -2.8710  -24.9512  -51.7439 C.2       15 UNK         0.5000 
     88 O          -2.8677  -25.5642  -52.8132 O.2       15 UNK        -0.5000 
     89 N          -2.0050  -23.9709  -51.4459 N.am      16 UNK        -0.5000 
     90 CA         -0.8587  -23.5576  -52.2655 C.3       16 UNK         0.1400 
     91 CB         -0.0724  -22.4754  -51.5115 C.3       16 UNK        -0.1800 
     92 C          -1.1997  -23.0787  -53.6928 C.2       16 UNK         0.5000 
     93 O          -0.3431  -23.1671  -54.5733 O.2       16 UNK        -0.5000 
     94 N          -2.4364  -22.6108  -53.9025 N.am      17 UNK        -0.5000 
     95 CA         -2.9940  -22.2626  -55.2113 C.3       17 UNK         0.1400 
     96 CB         -3.1631  -20.7366  -55.3121 C.3       17 UNK        -0.1800 
     97 C          -4.3134  -23.0224  -55.4460 C.2       17 UNK         0.5000 
     98 O          -5.2411  -22.4758  -56.0449 O.2       17 UNK        -0.5000 
     99 N          -4.3862  -24.2641  -54.9432 N.am      18 UNK        -0.5000 
    100 CA        -5.5496  -25.1528  -54.9576 C.3       18 UNK         0.1400 
    101 CB        -5.8654  -25.6172  -56.3981 C.3       18 UNK        -0.1800 
    102 C         -6.7436  -24.5221  -54.2099 C.2       18 UNK         0.5000 
    103 O         -6.5505  -23.9783  -53.1193 O.2       18 UNK        -0.5000 
    104 N         -7.9424  -24.5818  -54.8049 N.am      19 UNK        -0.5000 
    105 CA        -9.2059  -24.0830  -54.2527 C.3       19 UNK         0.1400 
    106 CB       -10.3475  -24.4742  -55.2038 C.3       19 UNK        -0.1800 
    107 C         -9.2396  -22.5672  -53.9664 C.2       19 UNK         0.5000 
    108 O        -10.0742  -22.1274  -53.1747 O.2       19 UNK        -0.5000 
    109 N         -8.3346  -21.7969  -54.5883 N.am      20 UNK        -0.5000 
    110 CA        -8.1508  -20.3688  -54.3239 C.3       20 UNK         0.1400 
    111 CB        -7.3609  -19.7362  -55.4799 C.3       20 UNK        -0.1800 
    112 C         -7.4533  -20.0862  -52.9776 C.2       20 UNK         0.5000 
    113 O         -7.5183  -18.9514  -52.5028 O.2       20 UNK        -0.5000 
    114 N         -6.7790  -21.0966  -52.3988 N.am      21 UNK        -0.5000 
    115 CA        -6.0996  -21.0803  -51.0937 C.3       21 UNK         0.1400 
    116 CB        -7.1446  -21.0038  -49.9620 C.3       21 UNK        -0.1800 
    117 C         -5.0042  -19.9959  -50.9638 C.2       21 UNK         0.5000 
    118 O         -4.6948  -19.5553  -49.8574 O.2       21 UNK        -0.5000 
    119 N         -4.4496  -19.5776  -52.1081 N.am      22 UNK        -0.5000 
    120 CA        -3.5246  -18.4443  -52.2675 C.3       22 UNK         0.1400 
    121 C         -4.1669  -17.0433  -52.0106 C.2       22 UNK         0.5000 
    122 N         -5.4885  -16.9093  -51.9890 N.am      22 UNK        -0.7600 
    123 O         -3.4647  -16.0485  -51.8606 O.2       22 UNK        -0.5000 
    124 C124       -2.1672  -18.6639  -51.5315 C.3       23 UNK        -0.0398 
    125 S125       -0.7347  -18.3164  -52.6122 S.3       23 UNK        -0.2404 
    126 C126       -0.1346  -16.7239  -51.9590 C.3       23 UNK        -0.0205 
    127 H127        0.6816  -15.7600  -47.5535 H         1 UNK         0.0600 
    128 H128       -0.1294  -15.0736  -48.9641 H         1 UNK         0.0600 
    129 H129       -0.2888  -14.2950  -47.3855 H         1 UNK         0.0600 
    130 H130        0.7767  -13.2628  -49.9899 H         1 UNK         0.3000 
    131 H131        2.0599  -11.6254  -50.5839 H         1 UNK         0.0600 
    132 H132        3.2049  -13.4715  -51.6246 H         1 UNK         0.0800 
    133 H133        4.2925  -12.1664  -51.3176 H         1 UNK         0.0800 
    134 H134        4.7418  -15.3582  -52.0341 H         1 UNK         0.0800 
    135 H135        5.5592  -16.2395  -50.7707 H         1 UNK         0.0800 
    136 H136        2.3373  -15.6403  -52.3400 H         1 UNK         0.1150 
    137 H137        0.1297  -18.1108  -49.6264 H         1 UNK         0.1150 
    138 H138        4.2392  -17.1856  -48.8282 H         1 UNK         0.1150 
    139 H139        3.0289  -18.3936  -47.2164 H         1 UNK         0.0800 
    140 H140        1.3056  -18.1689  -47.1976 H         1 UNK         0.0800 
    141 H141       -0.1361  -20.5416  -49.2495 H         1 UNK         0.0800 
    142 H142       -0.3711  -19.6206  -47.7849 H         1 UNK         0.0800 
    143 H143        0.1895  -22.6180  -47.8118 H         1 UNK         0.0600 
    144 H144        0.0981  -20.8066  -45.6180 H         1 UNK         0.3000 
    145 H145       -0.7157  -23.2939  -43.1300 H         1 UNK         0.0600 
    146 H146        1.3186  -22.2770  -42.1576 H         1 UNK         0.0600 
    147 H147        1.7512  -21.5767  -43.7150 H         1 UNK         0.0600 
    148 H148        1.7390  -23.3213  -43.5063 H         1 UNK         0.0600 
    149 H149       -0.3727  -20.4868  -42.8791 H         1 UNK         0.3000 
    150 H150       -3.8346  -19.6032  -43.3401 H         1 UNK         0.0600 
    151 H151       -3.5733  -20.3736  -40.9782 H         1 UNK         0.0600 
    152 H152       -3.4304  -18.6265  -41.1030 H         1 UNK         0.0600 
    153 H153       -1.9874  -19.6161  -40.8956 H         1 UNK         0.0600 
    154 H154       -1.6097  -17.9664  -42.7412 H         1 UNK         0.3000 
    155 H155       -0.5744  -17.3035  -46.1195 H         1 UNK         0.0600 
    156 H156       -2.3584  -15.7036  -45.5494 H         1 UNK         0.0600 
    157 H157       -0.7981  -15.0154  -45.1199 H         1 UNK         0.0600 
    158 H158       -1.8487  -15.6650  -43.8674 H         1 UNK         0.0600 
    159 H159        0.6189  -16.4473  -43.7298 H         1 UNK         0.3000 
    160 H160        2.7821  -19.2667  -43.1438 H         1 UNK         0.0600 
    161 H161        3.1919  -16.3356  -43.9468 H         1 UNK         0.0600 
    162 H162        3.8646  -17.7324  -44.7696 H         1 UNK         0.0600 
    163 H163        4.3708  -17.3608  -43.1304 H         1 UNK         0.0600 
    164 H164        2.2001  -16.8433  -41.6921 H         1 UNK         0.3000 
    165 H165       -0.2387  -18.2513  -39.5098 H         1 UNK         0.0600 
    166 H166        1.3851  -17.4956  -37.7933 H         1 UNK         0.0600 
    167 H167        1.9449  -18.9842  -38.5383 H         1 UNK         0.0600 
    168 H168        2.6780  -17.4504  -38.9925 H         1 UNK         0.0600 
    169 H169        1.0454  -15.6972  -39.6166 H         1 UNK         0.3000 
    170 H170       -1.1316  -14.1461  -41.9598 H         1 UNK         0.0600 
    171 H171       -0.8855  -13.8014  -38.9215 H         1 UNK         0.0600 
    172 H172       -1.4599  -12.5839  -40.0614 H         1 UNK         0.0600 
    173 H173       -2.3872  -14.0530  -39.8035 H         1 UNK         0.0600 
    174 H174        1.0440  -13.1918  -40.3551 H         1 UNK         0.3000 
    175 H175        2.9704  -12.4984  -41.5241 H         1 UNK         0.0600 
    176 H176        3.9920  -15.4108  -41.5672 H         1 UNK         0.0600 
    177 H177        4.8250  -14.0306  -40.8627 H         1 UNK         0.0600 
    178 H178        3.3507  -14.6200  -40.1328 H         1 UNK         0.0600 
    179 H179        2.9812  -13.6858  -44.0543 H         1 UNK         0.3000 
    180 H180        6.0695  -12.2618  -45.2400 H         1 UNK         0.0600 
    181 H181        5.6252  -14.1601  -46.7681 H         1 UNK         0.0600 
    182 H182        4.4248  -14.8154  -45.6603 H         1 UNK         0.0600 
    183 H183        6.1181  -14.7531  -45.1880 H         1 UNK         0.0600 
    184 H184        3.5207  -12.6632  -46.5000 H         1 UNK         0.3000 
    185 H185        1.8310  -10.2405  -46.0037 H         1 UNK         0.0600 
    186 H186        2.1007   -8.3268  -47.6061 H         1 UNK         0.0600 
    187 H187        3.0060   -8.0890  -46.1219 H         1 UNK         0.0600 
    188 H188        3.8475   -8.5669  -47.5886 H         1 UNK         0.0600 
    189 H189        1.4951  -11.4529  -47.8068 H         1 UNK         0.3000 
    190 H190       -2.5591  -20.8586  -46.3544 H         1 UNK         0.3000 
    191 H191       -4.4886  -21.6580  -48.3004 H         1 UNK         0.0600 
    192 H192       -4.8915  -19.7627  -46.7781 H         1 UNK         0.0600 
    193 H193       -4.8344  -20.8232  -45.3719 H         1 UNK         0.0600 
    194 H194       -6.1396  -20.9760  -46.5399 H         1 UNK         0.0600 
    195 H195       -3.5364  -23.0978  -45.1452 H         1 UNK         0.3000 
    196 H196       -5.3116  -25.3075  -45.2232 H         1 UNK         0.0600 
    197 H197       -4.1919  -24.5358  -43.1547 H         1 UNK         0.0600 
    198 H198       -2.6150  -24.9798  -43.8034 H         1 UNK         0.0600 
    199 H199       -3.8068  -26.2251  -43.4481 H         1 UNK         0.0600 
    200 H200       -1.9562  -24.9556  -46.4253 H         1 UNK         0.3000 
    201 H201       -1.6817  -27.6495  -47.3871 H         1 UNK         0.0600 
    202 H202        0.2531  -26.1813  -46.8280 H         1 UNK         0.0600 
    203 H203       -0.1861  -25.0784  -48.1324 H         1 UNK         0.0600 
    204 H204        0.3466  -26.7147  -48.4988 H         1 UNK         0.0600 
    205 H205       -3.4012  -24.9499  -48.6254 H         1 UNK         0.3000 
    206 H206       -4.4869  -24.4083  -50.4691 H         1 UNK         0.0600 
    207 H207       -4.3252  -27.3646  -51.2709 H         1 UNK         0.0600 
    208 H208       -5.5539  -26.6557  -50.2240 H         1 UNK         0.0600 
    209 H209       -5.4432  -26.1687  -51.9054 H         1 UNK         0.0600 
    210 H210       -2.0687  -23.5435  -50.5238 H         1 UNK         0.3000 
    211 H211       -0.2124  -24.4312  -52.3712 H         1 UNK         0.0600 
    212 H212       -0.6823  -21.5891  -51.3419 H         1 UNK         0.0600 
    213 H213        0.8089  -22.1636  -52.0735 H         1 UNK         0.0600 
    214 H214        0.2730  -22.8390  -50.5435 H         1 UNK         0.0600 
    215 H215       -3.0765  -22.5965  -53.1224 H         1 UNK         0.3000 
    216 H216       -2.3182  -22.5789  -56.0081 H         1 UNK         0.0600 
    217 H217       -3.4222  -20.4412  -56.3295 H         1 UNK         0.0600 
    218 H218       -2.2431  -20.2153  -55.0463 H         1 UNK         0.0600 
    219 H219       -3.9575  -20.3793  -54.6604 H         1 UNK         0.0600 
    220 H220       -3.5971  -24.6154  -54.4093 H         1 UNK         0.3000 
    221 H221       -5.2654  -26.0355  -54.3837 H         1 UNK         0.0600 
    222 H222       -6.2108  -24.7983  -57.0302 H         1 UNK         0.0600 
    223 H223       -4.9802  -26.0441  -56.8697 H         1 UNK         0.0600 
    224 H224       -6.6318  -26.3931  -56.4056 H         1 UNK         0.0600 
    225 H225       -7.9993  -25.0237  -55.7110 H         1 UNK         0.3000 
    226 H226       -9.3671  -24.5901  -53.2992 H         1 UNK         0.0600 
    227 H227      -10.3994  -25.5551  -55.3362 H         1 UNK         0.0600 
    228 H228      -11.3130  -24.1510  -54.8120 H         1 UNK         0.0600 
    229 H229      -10.2238  -24.0195  -56.1875 H         1 UNK         0.0600 
    230 H230       -7.6744  -22.2321  -55.2189 H         1 UNK         0.3000 
    231 H231       -9.1338  -19.8946  -54.2884 H         1 UNK         0.0600 
    232 H232       -7.2745  -18.6568  -55.3483 H         1 UNK         0.0600 
    233 H233       -7.8544  -19.9073  -56.4367 H         1 UNK         0.0600 
    234 H234       -6.3500  -20.1371  -55.5471 H         1 UNK         0.0600 
    235 H235       -6.7867  -22.0013  -52.8607 H         1 UNK         0.3000 
    236 H236       -5.5868  -22.0391  -51.0053 H         1 UNK         0.0600 
    237 H237       -7.6577  -20.0417  -49.9513 H         1 UNK         0.0600 
    238 H238       -7.8979  -21.7842  -50.0702 H         1 UNK         0.0600 
    239 H239       -6.6840  -21.1375  -48.9844 H         1 UNK         0.0600 
    240 H240       -4.7992  -19.9791  -52.9642 H         1 UNK         0.3000 
    241 H241       -3.3252  -18.4325  -53.3389 H         1 UNK         0.0600 
    242 H242       -6.1091  -17.7024  -52.1240 H         1 UNK         0.3800 
    243 H243       -5.8837  -15.9960  -51.8331 H         1 UNK         0.3800 
    244 H244       -2.1118  -18.0894  -50.6056 H         1 UNK         0.0800 
    245 H245       -2.0689  -19.7042  -51.2220 H         1 UNK         0.0800 
    246 H246       -0.9110  -16.2211  -51.3830 H         1 UNK         0.0800 
    247 H247        0.0772  -16.0715  -52.8074 H         1 UNK         0.0800 
@<TRIPOS>BOND
     1    1    2 1    
     2    1  127 1    
     3    1  128 1    
     4    1  129 1    
     5    2    3 2    
     6    2    4 am   BACKBONE|DICT|INTERRES
     7    4    5 1    
     8    4  130 1    
     9    5    6 1    
    10    5   65 1    
    11    5  131 1    
    12    6    7 1    
    13    6  132 1    
    14    6  133 1    
    15    7    8 1    
    16    8    9 1    
    17    8  134 1    
    18    8  135 1    
    19    9   10 ar   
    20    9   14 ar   
    21   10   11 ar   
    22   10  136 1    
    23   11   12 ar   
    24   11  126 1    
    25   12   13 ar   
    26   12  137 1    
    27   13   14 ar   
    28   13   15 1    
    29   14  138 1    
    30   15   16 1    
    31   15  139 1    
    32   15  140 1    
    33   16   17 1    
    34   17   18 1    
    35   17  141 1    
    36   17  142 1    
    37   18   19 1    
    38   18   67 1    
    39   18  143 1    
    40   19   20 am   BACKBONE|DICT|INTERRES
    41   19  144 1    
    42   20   21 2    
    43   20   22 1    
    44   22   23 1    
    45   22   24 1    
    46   22  145 1    
    47   23  146 1    
    48   23  147 1    
    49   23  148 1    
    50   24   25 am   BACKBONE|DICT|INTERRES
    51   24  149 1    
    52   25   26 2    
    53   25   27 1    
    54   27   28 1    
    55   27   29 1    
    56   27  150 1    
    57   28  151 1    
    58   28  152 1    
    59   28  153 1    
    60   29   30 am   BACKBONE|DICT|INTERRES
    61   29  154 1    
    62   30   31 2    
    63   30   32 1    
    64   32   33 1    
    65   32   34 1    
    66   32  155 1    
    67   33  156 1    
    68   33  157 1    
    69   33  158 1    
    70   34   35 am   BACKBONE|DICT|INTERRES
    71   34  159 1    
    72   35   36 2    
    73   35   37 1    
    74   37   38 1    
    75   37   39 1    
    76   37  160 1    
    77   38  161 1    
    78   38  162 1    
    79   38  163 1    
    80   39   40 am   BACKBONE|DICT|INTERRES
    81   39  164 1    
    82   40   41 2    
    83   40   42 1    
    84   42   43 1    
    85   42   44 1    
    86   42  165 1    
    87   43  166 1    
    88   43  167 1    
    89   43  168 1    
    90   44   45 am   BACKBONE|DICT|INTERRES
    91   44  169 1    
    92   45   46 2    
    93   45   47 1    
    94   47   48 1    
    95   47   49 1    
    96   47  170 1    
    97   48  171 1    
    98   48  172 1    
    99   48  173 1    
   100   49   50 am   BACKBONE|DICT|INTERRES
   101   49  174 1    
   102   50   51 2    
   103   50   52 1    
   104   52   53 1    
   105   52   54 1    
   106   52  175 1    
   107   53  176 1    
   108   53  177 1    
   109   53  178 1    
   110   54   55 am   BACKBONE|DICT|INTERRES
   111   54  179 1    
   112   55   56 2    
   113   55   57 1    
   114   57   58 1    
   115   57   59 1    
   116   57  180 1    
   117   58  181 1    
   118   58  182 1    
   119   58  183 1    
   120   59   60 am   BACKBONE|DICT|INTERRES
   121   59  184 1    
   122   60   61 2    
   123   60   62 1    
   124   62   63 1    
   125   62   64 1    
   126   62  185 1    
   127   63  186 1    
   128   63  187 1    
   129   63  188 1    
   130   64   65 am   BACKBONE|DICT|INTERRES
   131   64  189 1    
   132   65   66 2    
   133   67   68 2    
   134   67   69 am   BACKBONE|DICT|INTERRES
   135   69   70 1    
   136   69  190 1    
   137   70   71 1    
   138   70   72 1    
   139   70  191 1    
   140   71  192 1    
   141   71  193 1    
   142   71  194 1    
   143   72   73 2    
   144   72   74 am   BACKBONE|DICT|INTERRES
   145   74   75 1    
   146   74  195 1    
   147   75   76 1    
   148   75   77 1    
   149   75  196 1    
   150   76  197 1    
   151   76  198 1    
   152   76  199 1    
   153   77   78 2    
   154   77   79 am   BACKBONE|DICT|INTERRES
   155   79   80 1    
   156   79  200 1    
   157   80   81 1    
   158   80   82 1    
   159   80  201 1    
   160   81  202 1    
   161   81  203 1    
   162   81  204 1    
   163   82   83 2    
   164   82   84 am   BACKBONE|DICT|INTERRES
   165   84   85 1    
   166   84  205 1    
   167   85   86 1    
   168   85   87 1    
   169   85  206 1    
   170   86  207 1    
   171   86  208 1    
   172   86  209 1    
   173   87   88 2    
   174   87   89 am   BACKBONE|DICT|INTERRES
   175   89   90 1    
   176   89  210 1    
   177   90   91 1    
   178   90   92 1    
   179   90  211 1    
   180   91  212 1    
   181   91  213 1    
   182   91  214 1    
   183   92   93 2    
   184   92   94 am   BACKBONE|DICT|INTERRES
   185   94   95 1    
   186   94  215 1    
   187   95   96 1    
   188   95   97 1    
   189   95  216 1    
   190   96  217 1    
   191   96  218 1    
   192   96  219 1    
   193   97   98 2    
   194   97   99 am   BACKBONE|DICT|INTERRES
   195   99  100 1    
   196   99  220 1    
   197  100  101 1    
   198  100  102 1    
   199  100  221 1    
   200  101  222 1    
   201  101  223 1    
   202  101  224 1    
   203  102  103 2    
   204  102  104 am   BACKBONE|DICT|INTERRES
   205  104  105 1    
   206  104  225 1    
   207  105  106 1    
   208  105  107 1    
   209  105  226 1    
   210  106  227 1    
   211  106  228 1    
   212  106  229 1    
   213  107  108 2    
   214  107  109 am   BACKBONE|DICT|INTERRES
   215  109  110 1    
   216  109  230 1    
   217  110  111 1    
   218  110  112 1    
   219  110  231 1    
   220  111  232 1    
   221  111  233 1    
   222  111  234 1    
   223  112  113 2    
   224  112  114 am   BACKBONE|DICT|INTERRES
   225  114  115 1    
   226  114  235 1    
   227  115  116 1    
   228  115  117 1    
   229  115  236 1    
   230  116  237 1    
   231  116  238 1    
   232  116  239 1    
   233  117  118 2    
   234  117  119 am   BACKBONE|DICT|INTERRES
   235  119  120 1    
   236  119  240 1    
   237  120  121 1    
   238  120  124 1    
   239  120  241 1    
   240  121  122 am   BACKBONE|DICT|INTERRES
   241  121  123 2    
   242  122  242 1    
   243  122  243 1    
   244  124  125 1    
   245  124  244 1    
   246  124  245 1    
   247  125  126 1    
   248  126  246 1    
   249  126  247 1    
@<TRIPOS>SUBSTRUCTURE
     1 UNK         1 GROUP             0       ****    0 ROOT    
