@<TRIPOS>MOLECULE
3R540
247   249    1
SMALL
USER_CHARGES


@<TRIPOS>ATOM
      1 CA         -3.6047  -14.9620  -43.4157 C.3       0 UNK        -0.1800 
      2 C          -3.7901  -14.0613  -44.6271 C.2       0 UNK         0.5000 
      3 O          -3.3568  -12.9104  -44.6030 O.2       0 UNK        -0.5000 
      4 N          -4.4108  -14.5847  -45.6932 N.am      1 UNK        -0.5000 
      5 CA         -4.7060  -13.8743  -46.9474 C.3       1 UNK         0.1400 
      6 C6         -5.5900  -14.7509  -47.8700 C.3       23 UNK        -0.0398 
      7 S7         -6.3155  -13.8329  -49.2726 S.3       23 UNK        -0.2404 
      8 C8         -6.6217  -15.1645  -50.4837 C.3       23 UNK        -0.0205 
      9 C9         -5.3788  -15.9647  -50.8658 C.ar      23 UNK        -0.0193 
     10 C10        -4.1709  -15.3268  -51.1681 C.ar      23 UNK        -0.1150 
     11 C11        -3.0437  -16.0721  -51.5212 C.ar      23 UNK        -0.0193 
     12 C12        -3.1299  -17.4645  -51.5664 C.ar      23 UNK        -0.1150 
     13 C13        -4.3319  -18.1222  -51.2967 C.ar      23 UNK        -0.0193 
     14 C14        -5.4534  -17.3596  -50.9425 C.ar      23 UNK        -0.1150 
     15 C15        -4.3587  -19.6439  -51.4531 C.3       23 UNK        -0.0205 
     16 S16        -5.8916  -20.4960  -50.9456 S.3       23 UNK        -0.2404 
     17 C17        -5.8343  -20.3879  -49.1251 C.3       23 UNK        -0.0398 
     18 CA         -5.0761  -21.5909  -48.5152 C.3       11 UNK         0.1400 
     19 N          -3.6231  -21.3951  -48.5530 N.am      11 UNK        -0.5000 
     20 C          -2.7140  -22.3388  -48.2784 C.2       10 UNK         0.5000 
     21 O          -3.0089  -23.5141  -48.0639 O.2       10 UNK        -0.5000 
     22 CA         -1.2454  -21.8906  -48.1309 C.3       10 UNK         0.1400 
     23 CB         -0.4216  -22.2711  -49.3650 C.3       10 UNK        -0.1800 
     24 N          -1.0559  -20.4625  -47.8506 N.am      10 UNK        -0.5000 
     25 C          -1.5531  -19.7950  -46.8020 C.2       9 UNK         0.5000 
     26 O          -2.2708  -20.3133  -45.9458 O.2       9 UNK        -0.5000 
     27 CA         -1.1946  -18.3036  -46.7156 C.3       9 UNK         0.1400 
     28 CB         -2.0424  -17.5469  -45.6768 C.3       9 UNK        -0.1800 
     29 N           0.2186  -18.1281  -46.3954 N.am      9 UNK        -0.5000 
     30 C           1.2248  -18.1768  -47.2794 C.2       8 UNK         0.5000 
     31 O           1.0644  -18.4409  -48.4714 O.2       8 UNK        -0.5000 
     32 CA          2.6343  -17.8326  -46.7631 C.3       8 UNK         0.1400 
     33 CB          3.0379  -16.4290  -47.2405 C.3       8 UNK        -0.1800 
     34 N           2.7270  -17.8726  -45.3029 N.am      8 UNK        -0.5000 
     35 C           2.9367  -18.9836  -44.5837 C.2       7 UNK         0.5000 
     36 O           3.1312  -20.0942  -45.0777 O.2       7 UNK        -0.5000 
     37 CA          2.8957  -18.8260  -43.0523 C.3       7 UNK         0.1400 
     38 CB          4.2941  -18.5058  -42.5040 C.3       7 UNK        -0.1800 
     39 N           1.9476  -17.7940  -42.6201 N.am      7 UNK        -0.5000 
     40 C           0.6143  -17.9331  -42.6895 C.2       6 UNK         0.5000 
     41 O           0.0752  -18.9443  -43.1364 O.2       6 UNK        -0.5000 
     42 CA         -0.2772  -16.7535  -42.2503 C.3       6 UNK         0.1400 
     43 CB         -1.4902  -17.2130  -41.4146 C.3       6 UNK        -0.1800 
     44 N           0.4483  -15.6588  -41.6019 N.am      6 UNK        -0.5000 
     45 C           1.0322  -15.6440  -40.3937 C.2       5 UNK         0.5000 
     46 O           0.9736  -16.5761  -39.5909 O.2       5 UNK        -0.5000 
     47 CA          1.8370  -14.3698  -40.0420 C.3       5 UNK         0.1400 
     48 CB          2.9739  -14.6466  -39.0359 C.3       5 UNK        -0.1800 
     49 N           2.3542  -13.6564  -41.2205 N.am      5 UNK        -0.5000 
     50 C           3.1789  -14.1475  -42.1591 C.2       4 UNK         0.5000 
     51 O           3.6299  -15.2935  -42.1364 O.2       4 UNK        -0.5000 
     52 CA          3.4783  -13.2167  -43.3536 C.3       4 UNK         0.1400 
     53 CB          4.1895  -13.9496  -44.5095 C.3       4 UNK        -0.1800 
     54 N           2.2830  -12.5207  -43.8534 N.am      4 UNK        -0.5000 
     55 C           1.1410  -13.0790  -44.2855 C.2       3 UNK         0.5000 
     56 O           0.9206  -14.2931  -44.2567 O.2       3 UNK        -0.5000 
     57 CA          0.0344  -12.1291  -44.7959 C.3       3 UNK         0.1400 
     58 CB          0.5084  -10.6874  -45.0894 C.3       3 UNK        -0.1800 
     59 N          -0.6705  -12.7017  -45.9455 N.am      3 UNK        -0.5000 
     60 C          -0.1521  -12.9995  -47.1475 C.2       2 UNK         0.5000 
     61 O           0.9898  -12.6929  -47.4926 O.2       2 UNK        -0.5000 
     62 CA         -1.0292  -13.8105  -48.1257 C.3       2 UNK         0.1400 
     63 CB         -0.3206  -15.1202  -48.4953 C.3       2 UNK        -0.1800 
     64 N          -2.3465  -14.1457  -47.5808 N.am      2 UNK        -0.5000 
     65 C          -3.4315  -13.3657  -47.6663 C.2       1 UNK         0.5000 
     66 O          -3.4404  -12.2740  -48.2363 O.2       1 UNK        -0.5000 
     67 C          -5.5950  -21.9486  -47.1034 C.2       11 UNK         0.5000 
     68 O          -6.5989  -22.6538  -46.9989 O.2       11 UNK        -0.5000 
     69 N          -4.8892  -21.5034  -46.0556 N.am      12 UNK        -0.5000 
     70 CA         -5.1342  -21.8834  -44.6677 C.3       12 UNK         0.1400 
     71 CB         -5.0840  -20.6269  -43.7818 C.3       12 UNK        -0.1800 
     72 C          -4.0953  -22.9188  -44.2074 C.2       12 UNK         0.5000 
     73 O          -4.4718  -23.9711  -43.6918 O.2       12 UNK        -0.5000 
     74 N          -2.8072  -22.6056  -44.4066 N.am      13 UNK        -0.5000 
     75 CA         -1.6677  -23.3466  -43.8603 C.3       13 UNK         0.1400 
     76 CB         -0.4015  -22.4870  -43.9966 C.3       13 UNK        -0.1800 
     77 C          -1.4438  -24.7397  -44.4769 C.2       13 UNK         0.5000 
     78 O          -0.9020  -25.6118  -43.7966 O.2       13 UNK        -0.5000 
     79 N          -1.8557  -24.9286  -45.7361 N.am      14 UNK        -0.5000 
     80 CA         -1.7343  -26.1841  -46.4807 C.3       14 UNK         0.1400 
     81 CB         -0.6890  -26.0071  -47.5977 C.3       14 UNK        -0.1800 
     82 C          -3.0950  -26.6376  -47.0411 C.2       14 UNK         0.5000 
     83 O          -3.1261  -27.4840  -47.9340 O.2       14 UNK        -0.5000 
     84 N          -4.1938  -26.0530  -46.5363 N.am      15 UNK        -0.5000 
     85 CA         -5.5898  -26.3122  -46.9125 C.3       15 UNK         0.1400 
     86 CB         -6.0352  -27.6855  -46.3691 C.3       15 UNK        -0.1800 
     87 C          -5.8797  -26.1469  -48.4233 C.2       15 UNK         0.5000 
     88 O          -6.7238  -26.8603  -48.9683 O.2       15 UNK        -0.5000 
     89 N          -5.1652  -25.2130  -49.0689 N.am      16 UNK        -0.5000 
     90 CA         -5.2245  -24.8769  -50.4954 C.3       16 UNK         0.1400 
     91 CB         -6.6314  -24.3904  -50.9076 C.3       16 UNK        -0.1800 
     92 C          -4.6738  -25.9799  -51.4213 C.2       16 UNK         0.5000 
     93 O          -5.0450  -26.0299  -52.5953 O.2       16 UNK        -0.5000 
     94 N          -3.7550  -26.8138  -50.9083 N.am      17 UNK        -0.5000 
     95 CA         -2.9793  -27.7739  -51.7039 C.3       17 UNK         0.1400 
     96 CB         -2.2485  -28.7424  -50.7625 C.3       17 UNK        -0.1800 
     97 C          -1.9748  -27.0942  -52.6603 C.2       17 UNK         0.5000 
     98 O          -1.5560  -27.7096  -53.6416 O.2       17 UNK        -0.5000 
     99 N          -1.6229  -25.8384  -52.3654 N.am      18 UNK        -0.5000 
    100 CA        -0.8210  -24.9434  -53.1864 C.3       18 UNK         0.1400 
    101 CB         0.6587  -25.0717  -52.7852 C.3       18 UNK        -0.1800 
    102 C         -1.3313  -23.5114  -52.9647 C.2       18 UNK         0.5000 
    103 O         -2.0188  -23.2552  -51.9720 O.2       18 UNK        -0.5000 
    104 N         -0.9700  -22.6037  -53.8791 N.am      19 UNK        -0.5000 
    105 CA        -1.2530  -21.1685  -53.7714 C.3       19 UNK         0.1400 
    106 CB        -1.6083  -20.6237  -55.1624 C.3       19 UNK        -0.1800 
    107 C         -0.0768  -20.3781  -53.1634 C.2       19 UNK         0.5000 
    108 O         -0.2701  -19.2241  -52.7791 O.2       19 UNK        -0.5000 
    109 N          1.1107  -21.0031  -53.0902 N.am      20 UNK        -0.5000 
    110 CA         2.3669  -20.4859  -52.5353 C.3       20 UNK         0.1400 
    111 CB         2.3257  -20.5362  -50.9945 C.3       20 UNK        -0.1800 
    112 C          2.7423  -19.1040  -53.1076 C.2       20 UNK         0.5000 
    113 O          3.0891  -19.0191  -54.2870 O.2       20 UNK        -0.5000 
    114 N          2.6302  -18.0496  -52.2876 N.am      21 UNK        -0.5000 
    115 CA         2.9050  -16.6549  -52.6439 C.3       21 UNK         0.1400 
    116 CB         2.7552  -15.7866  -51.3861 C.3       21 UNK        -0.1800 
    117 C          2.0281  -16.1029  -53.7865 C.2       21 UNK         0.5000 
    118 O          2.4597  -15.1814  -54.4807 O.2       21 UNK        -0.5000 
    119 N          0.8368  -16.6833  -53.9716 N.am      22 UNK        -0.5000 
    120 CA        -0.0827  -16.3900  -55.0807 C.3       22 UNK         0.1400 
    121 C          0.0210  -17.4187  -56.2465 C.2       22 UNK         0.5000 
    122 N          0.9677  -18.3511  -56.2457 N.am      22 UNK        -0.7600 
    123 O         -0.7609  -17.3595  -57.1913 O.2       22 UNK        -0.5000 
    124 C124       -1.5377  -16.2221  -54.5723 C.3       23 UNK        -0.0398 
    125 S125       -1.7351  -14.7156  -53.5562 S.3       23 UNK        -0.2404 
    126 C126       -1.7360  -15.3741  -51.8600 C.3       23 UNK        -0.0205 
    127 H127       -4.2946  -14.6714  -42.6236 H         1 UNK         0.0600 
    128 H128       -2.5890  -14.8630  -43.0344 H         1 UNK         0.0600 
    129 H129       -3.7789  -16.0109  -43.6565 H         1 UNK         0.0600 
    130 H130       -4.7555  -15.5322  -45.6368 H         1 UNK         0.3000 
    131 H131       -5.2861  -12.9910  -46.6714 H         1 UNK         0.0600 
    132 H132       -5.0195  -15.6073  -48.2316 H         1 UNK         0.0800 
    133 H133       -6.4226  -15.1656  -47.3001 H         1 UNK         0.0800 
    134 H134       -7.0408  -14.7235  -51.3889 H         1 UNK         0.0800 
    135 H135       -7.3915  -15.8228  -50.0779 H         1 UNK         0.0800 
    136 H136       -4.1069  -14.2482  -51.1331 H         1 UNK         0.1150 
    137 H137       -2.2591  -18.0412  -51.8388 H         1 UNK         0.1150 
    138 H138       -6.3980  -17.8410  -50.7375 H         1 UNK         0.1150 
    139 H139       -4.2050  -19.8657  -52.5098 H         1 UNK         0.0800 
    140 H140       -3.5097  -20.0837  -50.9300 H         1 UNK         0.0800 
    141 H141       -6.8736  -20.3691  -48.7912 H         1 UNK         0.0800 
    142 H142       -5.4012  -19.4382  -48.8079 H         1 UNK         0.0800 
    143 H143       -5.2954  -22.4638  -49.1244 H         1 UNK         0.0600 
    144 H144       -3.2965  -20.4543  -48.7083 H         1 UNK         0.3000 
    145 H145       -0.8412  -22.4450  -47.2830 H         1 UNK         0.0600 
    146 H146       -0.6693  -21.6467  -50.2240 H         1 UNK         0.0600 
    147 H147       -0.5877  -23.3100  -49.6511 H         1 UNK         0.0600 
    148 H148        0.6421  -22.1631  -49.1599 H         1 UNK         0.0600 
    149 H149       -0.4318  -19.9565  -48.4695 H         1 UNK         0.3000 
    150 H150       -1.3989  -17.8604  -47.6924 H         1 UNK         0.0600 
    151 H151       -3.0997  -17.5783  -45.9420 H         1 UNK         0.0600 
    152 H152       -1.7491  -16.4993  -45.6129 H         1 UNK         0.0600 
    153 H153       -1.9459  -17.9807  -44.6814 H         1 UNK         0.0600 
    154 H154        0.4444  -17.9958  -45.4210 H         1 UNK         0.3000 
    155 H155        3.3305  -18.5554  -47.1937 H         1 UNK         0.0600 
    156 H156        2.3846  -15.6580  -46.8292 H         1 UNK         0.0600 
    157 H157        2.9831  -16.3548  -48.3263 H         1 UNK         0.0600 
    158 H158        4.0621  -16.1929  -46.9516 H         1 UNK         0.0600 
    159 H159        2.5821  -17.0021  -44.8114 H         1 UNK         0.3000 
    160 H160        2.5771  -19.7803  -42.6269 H         1 UNK         0.0600 
    161 H161        4.6997  -17.5925  -42.9405 H         1 UNK         0.0600 
    162 H162        4.9930  -19.3123  -42.7287 H         1 UNK         0.0600 
    163 H163        4.2763  -18.3814  -41.4211 H         1 UNK         0.0600 
    164 H164        2.3448  -16.9267  -42.2743 H         1 UNK         0.3000 
    165 H165       -0.6656  -16.3280  -43.1758 H         1 UNK         0.0600 
    166 H166       -2.0916  -16.3658  -41.0859 H         1 UNK         0.0600 
    167 H167       -1.1856  -17.7717  -40.5294 H         1 UNK         0.0600 
    168 H168       -2.1408  -17.8647  -41.9990 H         1 UNK         0.0600 
    169 H169        0.6175  -14.8652  -42.2083 H         1 UNK         0.3000 
    170 H170        1.1297  -13.6927  -39.5612 H         1 UNK         0.0600 
    171 H171        2.5807  -15.0386  -38.0972 H         1 UNK         0.0600 
    172 H172        3.6870  -15.3763  -39.4209 H         1 UNK         0.0600 
    173 H173        3.5219  -13.7347  -38.7994 H         1 UNK         0.0600 
    174 H174        2.0164  -12.7116  -41.3413 H         1 UNK         0.3000 
    175 H175        4.1564  -12.4478  -42.9810 H         1 UNK         0.0600 
    176 H176        3.5892  -14.7763  -44.8873 H         1 UNK         0.0600 
    177 H177        4.3923  -13.2751  -45.3414 H         1 UNK         0.0600 
    178 H178        5.1453  -14.3619  -44.1841 H         1 UNK         0.0600 
    179 H179        2.3582  -11.5143  -43.9031 H         1 UNK         0.3000 
    180 H180       -0.7023  -12.0729  -43.9935 H         1 UNK         0.0600 
    181 H181        1.3244  -10.6606  -45.8124 H         1 UNK         0.0600 
    182 H182        0.8515  -10.1905  -44.1814 H         1 UNK         0.0600 
    183 H183       -0.3069  -10.0847  -45.4900 H         1 UNK         0.0600 
    184 H184       -1.6269  -12.9767  -45.7559 H         1 UNK         0.3000 
    185 H185       -1.1509  -13.2174  -49.0344 H         1 UNK         0.0600 
    186 H186        0.5986  -14.9273  -49.0486 H         1 UNK         0.0600 
    187 H187       -0.0500  -15.6707  -47.5972 H         1 UNK         0.0600 
    188 H188       -0.9467  -15.7656  -49.1103 H         1 UNK         0.0600 
    189 H189       -2.4180  -15.0122  -47.0705 H         1 UNK         0.3000 
    190 H190       -4.0457  -20.9632  -46.2208 H         1 UNK         0.3000 
    191 H191       -6.1247  -22.3299  -44.5575 H         1 UNK         0.0600 
    192 H192       -5.2463  -20.8815  -42.7337 H         1 UNK         0.0600 
    193 H193       -5.8597  -19.9164  -44.0674 H         1 UNK         0.0600 
    194 H194       -4.1234  -20.1146  -43.8508 H         1 UNK         0.0600 
    195 H195       -2.5868  -21.7223  -44.8622 H         1 UNK         0.3000 
    196 H196       -1.8550  -23.4960  -42.7949 H         1 UNK         0.0600 
    197 H197       -0.1686  -22.2660  -45.0378 H         1 UNK         0.0600 
    198 H198       -0.5154  -21.5380  -43.4734 H         1 UNK         0.0600 
    199 H199        0.4648  -22.9910  -43.5663 H         1 UNK         0.0600 
    200 H200       -2.3017  -24.1693  -46.2372 H         1 UNK         0.3000 
    201 H201       -1.3958  -26.9878  -45.8244 H         1 UNK         0.0600 
    202 H202       -1.0252  -25.3011  -48.3563 H         1 UNK         0.0600 
    203 H203       -0.4878  -26.9540  -48.0999 H         1 UNK         0.0600 
    204 H204        0.2588  -25.6459  -47.1987 H         1 UNK         0.0600 
    205 H205       -4.0619  -25.3774  -45.7966 H         1 UNK         0.3000 
    206 H206       -6.1853  -25.5488  -46.4096 H         1 UNK         0.0600 
    207 H207       -5.8450  -27.7662  -45.2989 H         1 UNK         0.0600 
    208 H208       -7.1043  -27.8405  -46.5187 H         1 UNK         0.0600 
    209 H209       -5.5120  -28.5035  -46.8656 H         1 UNK         0.0600 
    210 H210       -4.4590  -24.7082  -48.5395 H         1 UNK         0.3000 
    211 H211       -4.5413  -24.0367  -50.6268 H         1 UNK         0.0600 
    212 H212       -6.6077  -23.9275  -51.8947 H         1 UNK         0.0600 
    213 H213       -7.0197  -23.6461  -50.2129 H         1 UNK         0.0600 
    214 H214       -7.3479  -25.2108  -50.9515 H         1 UNK         0.0600 
    215 H215       -3.5405  -26.7685  -49.9184 H         1 UNK         0.3000 
    216 H216       -3.6756  -28.3524  -52.3144 H         1 UNK         0.0600 
    217 H217       -1.5356  -28.2197  -50.1239 H         1 UNK         0.0600 
    218 H218       -1.6948  -29.4941  -51.3265 H         1 UNK         0.0600 
    219 H219       -2.9509  -29.2720  -50.1186 H         1 UNK         0.0600 
    220 H220       -2.0573  -25.3830  -51.5731 H         1 UNK         0.3000 
    221 H221       -0.9454  -25.1966  -54.2414 H         1 UNK         0.0600 
    222 H222        1.0139  -26.0943  -52.9132 H         1 UNK         0.0600 
    223 H223        0.8173  -24.7914  -51.7428 H         1 UNK         0.0600 
    224 H224        1.2919  -24.4310  -53.3994 H         1 UNK         0.0600 
    225 H225       -0.4398  -22.8999  -54.6865 H         1 UNK         0.3000 
    226 H226       -2.1152  -21.0074  -53.1219 H         1 UNK         0.0600 
    227 H227       -0.7783  -20.7284  -55.8618 H         1 UNK         0.0600 
    228 H228       -2.4686  -21.1457  -55.5814 H         1 UNK         0.0600 
    229 H229       -1.8668  -19.5653  -55.1129 H         1 UNK         0.0600 
    230 H230        1.1623  -21.9383  -53.4634 H         1 UNK         0.3000 
    231 H231        3.1556  -21.1655  -52.8614 H         1 UNK         0.0600 
    232 H232        1.4625  -20.0071  -50.5907 H         1 UNK         0.0600 
    233 H233        3.2244  -20.1039  -50.5526 H         1 UNK         0.0600 
    234 H234        2.2745  -21.5689  -50.6527 H         1 UNK         0.0600 
    235 H235        2.2909  -18.2134  -51.3501 H         1 UNK         0.3000 
    236 H236        3.9428  -16.5981  -52.9782 H         1 UNK         0.0600 
    237 H237        3.4778  -16.0764  -50.6239 H         1 UNK         0.0600 
    238 H238        2.9278  -14.7331  -51.6104 H         1 UNK         0.0600 
    239 H239        1.7561  -15.8731  -50.9579 H         1 UNK         0.0600 
    240 H240        0.5740  -17.4658  -53.3808 H         1 UNK         0.3000 
    241 H241        0.2019  -15.4409  -55.5383 H         1 UNK         0.0600 
    242 H242        1.6554  -18.4123  -55.5025 H         1 UNK         0.3800 
    243 H243        1.0241  -18.9884  -57.0235 H         1 UNK         0.3800 
    244 H244       -2.2320  -16.1242  -55.4083 H         1 UNK         0.0800 
    245 H245       -1.8562  -17.1064  -54.0212 H         1 UNK         0.0800 
    246 H246       -0.8881  -16.0472  -51.7239 H         1 UNK         0.0800 
    247 H247       -1.5825  -14.5440  -51.1701 H         1 UNK         0.0800 
@<TRIPOS>BOND
     1    1    2 1    
     2    1  127 1    
     3    1  128 1    
     4    1  129 1    
     5    2    3 2    
     6    2    4 am   BACKBONE|DICT|INTERRES
     7    4    5 1    
     8    4  130 1    
     9    5    6 1    
    10    5   65 1    
    11    5  131 1    
    12    6    7 1    
    13    6  132 1    
    14    6  133 1    
    15    7    8 1    
    16    8    9 1    
    17    8  134 1    
    18    8  135 1    
    19    9   10 ar   
    20    9   14 ar   
    21   10   11 ar   
    22   10  136 1    
    23   11   12 ar   
    24   11  126 1    
    25   12   13 ar   
    26   12  137 1    
    27   13   14 ar   
    28   13   15 1    
    29   14  138 1    
    30   15   16 1    
    31   15  139 1    
    32   15  140 1    
    33   16   17 1    
    34   17   18 1    
    35   17  141 1    
    36   17  142 1    
    37   18   19 1    
    38   18   67 1    
    39   18  143 1    
    40   19   20 am   BACKBONE|DICT|INTERRES
    41   19  144 1    
    42   20   21 2    
    43   20   22 1    
    44   22   23 1    
    45   22   24 1    
    46   22  145 1    
    47   23  146 1    
    48   23  147 1    
    49   23  148 1    
    50   24   25 am   BACKBONE|DICT|INTERRES
    51   24  149 1    
    52   25   26 2    
    53   25   27 1    
    54   27   28 1    
    55   27   29 1    
    56   27  150 1    
    57   28  151 1    
    58   28  152 1    
    59   28  153 1    
    60   29   30 am   BACKBONE|DICT|INTERRES
    61   29  154 1    
    62   30   31 2    
    63   30   32 1    
    64   32   33 1    
    65   32   34 1    
    66   32  155 1    
    67   33  156 1    
    68   33  157 1    
    69   33  158 1    
    70   34   35 am   BACKBONE|DICT|INTERRES
    71   34  159 1    
    72   35   36 2    
    73   35   37 1    
    74   37   38 1    
    75   37   39 1    
    76   37  160 1    
    77   38  161 1    
    78   38  162 1    
    79   38  163 1    
    80   39   40 am   BACKBONE|DICT|INTERRES
    81   39  164 1    
    82   40   41 2    
    83   40   42 1    
    84   42   43 1    
    85   42   44 1    
    86   42  165 1    
    87   43  166 1    
    88   43  167 1    
    89   43  168 1    
    90   44   45 am   BACKBONE|DICT|INTERRES
    91   44  169 1    
    92   45   46 2    
    93   45   47 1    
    94   47   48 1    
    95   47   49 1    
    96   47  170 1    
    97   48  171 1    
    98   48  172 1    
    99   48  173 1    
   100   49   50 am   BACKBONE|DICT|INTERRES
   101   49  174 1    
   102   50   51 2    
   103   50   52 1    
   104   52   53 1    
   105   52   54 1    
   106   52  175 1    
   107   53  176 1    
   108   53  177 1    
   109   53  178 1    
   110   54   55 am   BACKBONE|DICT|INTERRES
   111   54  179 1    
   112   55   56 2    
   113   55   57 1    
   114   57   58 1    
   115   57   59 1    
   116   57  180 1    
   117   58  181 1    
   118   58  182 1    
   119   58  183 1    
   120   59   60 am   BACKBONE|DICT|INTERRES
   121   59  184 1    
   122   60   61 2    
   123   60   62 1    
   124   62   63 1    
   125   62   64 1    
   126   62  185 1    
   127   63  186 1    
   128   63  187 1    
   129   63  188 1    
   130   64   65 am   BACKBONE|DICT|INTERRES
   131   64  189 1    
   132   65   66 2    
   133   67   68 2    
   134   67   69 am   BACKBONE|DICT|INTERRES
   135   69   70 1    
   136   69  190 1    
   137   70   71 1    
   138   70   72 1    
   139   70  191 1    
   140   71  192 1    
   141   71  193 1    
   142   71  194 1    
   143   72   73 2    
   144   72   74 am   BACKBONE|DICT|INTERRES
   145   74   75 1    
   146   74  195 1    
   147   75   76 1    
   148   75   77 1    
   149   75  196 1    
   150   76  197 1    
   151   76  198 1    
   152   76  199 1    
   153   77   78 2    
   154   77   79 am   BACKBONE|DICT|INTERRES
   155   79   80 1    
   156   79  200 1    
   157   80   81 1    
   158   80   82 1    
   159   80  201 1    
   160   81  202 1    
   161   81  203 1    
   162   81  204 1    
   163   82   83 2    
   164   82   84 am   BACKBONE|DICT|INTERRES
   165   84   85 1    
   166   84  205 1    
   167   85   86 1    
   168   85   87 1    
   169   85  206 1    
   170   86  207 1    
   171   86  208 1    
   172   86  209 1    
   173   87   88 2    
   174   87   89 am   BACKBONE|DICT|INTERRES
   175   89   90 1    
   176   89  210 1    
   177   90   91 1    
   178   90   92 1    
   179   90  211 1    
   180   91  212 1    
   181   91  213 1    
   182   91  214 1    
   183   92   93 2    
   184   92   94 am   BACKBONE|DICT|INTERRES
   185   94   95 1    
   186   94  215 1    
   187   95   96 1    
   188   95   97 1    
   189   95  216 1    
   190   96  217 1    
   191   96  218 1    
   192   96  219 1    
   193   97   98 2    
   194   97   99 am   BACKBONE|DICT|INTERRES
   195   99  100 1    
   196   99  220 1    
   197  100  101 1    
   198  100  102 1    
   199  100  221 1    
   200  101  222 1    
   201  101  223 1    
   202  101  224 1    
   203  102  103 2    
   204  102  104 am   BACKBONE|DICT|INTERRES
   205  104  105 1    
   206  104  225 1    
   207  105  106 1    
   208  105  107 1    
   209  105  226 1    
   210  106  227 1    
   211  106  228 1    
   212  106  229 1    
   213  107  108 2    
   214  107  109 am   BACKBONE|DICT|INTERRES
   215  109  110 1    
   216  109  230 1    
   217  110  111 1    
   218  110  112 1    
   219  110  231 1    
   220  111  232 1    
   221  111  233 1    
   222  111  234 1    
   223  112  113 2    
   224  112  114 am   BACKBONE|DICT|INTERRES
   225  114  115 1    
   226  114  235 1    
   227  115  116 1    
   228  115  117 1    
   229  115  236 1    
   230  116  237 1    
   231  116  238 1    
   232  116  239 1    
   233  117  118 2    
   234  117  119 am   BACKBONE|DICT|INTERRES
   235  119  120 1    
   236  119  240 1    
   237  120  121 1    
   238  120  124 1    
   239  120  241 1    
   240  121  122 am   BACKBONE|DICT|INTERRES
   241  121  123 2    
   242  122  242 1    
   243  122  243 1    
   244  124  125 1    
   245  124  244 1    
   246  124  245 1    
   247  125  126 1    
   248  126  246 1    
   249  126  247 1    
@<TRIPOS>SUBSTRUCTURE
     1 UNK         1 GROUP             0       ****    0 ROOT    
