@<TRIPOS>MOLECULE
3R540
247   249    1
SMALL
USER_CHARGES


@<TRIPOS>ATOM
      1 CA         -2.6278  -11.1675  -49.1524 C.3       0 UNK        -0.1800 
      2 C          -1.7162  -12.1910  -48.4924 C.2       0 UNK         0.5000 
      3 O          -1.6544  -12.2563  -47.2658 O.2       0 UNK        -0.5000 
      4 N          -1.0041  -12.9923  -49.2936 N.am      1 UNK        -0.5000 
      5 CA         -0.1120  -14.0617  -48.8339 C.3       1 UNK         0.1400 
      6 C6          0.6783  -14.6602  -50.0215 C.3       23 UNK        -0.0398 
      7 S7          2.0951  -15.6917  -49.5091 S.3       23 UNK        -0.2404 
      8 C8          2.0320  -17.0568  -50.7141 C.3       23 UNK        -0.0205 
      9 C9          1.2063  -18.2429  -50.2305 C.ar      23 UNK        -0.0193 
     10 C10        -0.1836  -18.1470  -50.1191 C.ar      23 UNK        -0.1150 
     11 C11        -0.9446  -19.2418  -49.7057 C.ar      23 UNK        -0.0193 
     12 C12        -0.3093  -20.4520  -49.4188 C.ar      23 UNK        -0.1150 
     13 C13         1.0788  -20.5697  -49.5380 C.ar      23 UNK        -0.0193 
     14 C14         1.8306  -19.4597  -49.9351 C.ar      23 UNK        -0.1150 
     15 C15         1.7574  -21.9116  -49.2998 C.3       23 UNK        -0.0205 
     16 S16         2.7524  -21.9699  -47.7730 S.3       23 UNK        -0.2404 
     17 C17         1.5359  -21.6416  -46.4548 C.3       23 UNK        -0.0398 
     18 CA          0.7264  -22.8922  -46.0188 C.3       11 UNK         0.1400 
     19 N           0.4773  -22.9177  -44.5763 N.am      11 UNK        -0.5000 
     20 C           0.0108  -23.9753  -43.8954 C.2       10 UNK         0.5000 
     21 O          -0.1922  -25.0785  -44.4019 O.2       10 UNK        -0.5000 
     22 CA         -0.3336  -23.7477  -42.4097 C.3       10 UNK         0.1400 
     23 CB          0.8938  -24.0139  -41.5259 C.3       10 UNK        -0.1800 
     24 N          -0.8347  -22.3975  -42.1438 N.am      10 UNK        -0.5000 
     25 C          -1.9754  -21.8975  -42.6404 C.2       9 UNK         0.5000 
     26 O          -2.7741  -22.5599  -43.3010 O.2       9 UNK        -0.5000 
     27 CA         -2.2404  -20.3949  -42.4166 C.3       9 UNK         0.1400 
     28 CB         -3.1384  -20.1849  -41.1891 C.3       9 UNK        -0.1800 
     29 N          -1.0236  -19.5877  -42.2694 N.am      9 UNK        -0.5000 
     30 C          -0.0623  -19.4697  -43.1942 C.2       8 UNK         0.5000 
     31 O          -0.0800  -20.0586  -44.2793 O.2       8 UNK        -0.5000 
     32 CA          1.1429  -18.5978  -42.8222 C.3       8 UNK         0.1400 
     33 CB          2.0130  -19.2904  -41.7568 C.3       8 UNK        -0.1800 
     34 N           1.9364  -18.3555  -44.0226 N.am      8 UNK        -0.5000 
     35 C           2.7574  -17.3187  -44.2092 C.2       7 UNK         0.5000 
     36 O           2.9614  -16.4566  -43.3512 O.2       7 UNK        -0.5000 
     37 CA          3.4705  -17.2128  -45.5701 C.3       7 UNK         0.1400 
     38 CB          2.7574  -17.9315  -46.7343 C.3       7 UNK        -0.1800 
     39 N           3.6582  -15.7987  -45.8705 N.am      7 UNK        -0.5000 
     40 C           4.6653  -15.2746  -46.5791 C.2       6 UNK         0.5000 
     41 O           5.4832  -15.9452  -47.2101 O.2       6 UNK        -0.5000 
     42 CA          4.8115  -13.7368  -46.5434 C.3       6 UNK         0.1400 
     43 CB          4.1783  -13.1016  -47.7907 C.3       6 UNK        -0.1800 
     44 N           4.2131  -13.1292  -45.3517 N.am      6 UNK        -0.5000 
     45 C           4.6103  -13.3376  -44.0885 C.2       5 UNK         0.5000 
     46 O           5.6431  -13.9446  -43.8014 O.2       5 UNK        -0.5000 
     47 CA          3.7070  -12.8042  -42.9523 C.3       5 UNK         0.1400 
     48 CB          4.5083  -11.9175  -41.9838 C.3       5 UNK        -0.1800 
     49 N           2.5139  -12.0606  -43.3776 N.am      5 UNK        -0.5000 
     50 C           1.4537  -12.5467  -44.0359 C.2       4 UNK         0.5000 
     51 O           1.3842  -13.6961  -44.4832 O.2       4 UNK        -0.5000 
     52 CA          0.3204  -11.5378  -44.2970 C.3       4 UNK         0.1400 
     53 CB          0.6643  -10.6593  -45.5109 C.3       4 UNK        -0.1800 
     54 N          -0.9405  -12.2215  -44.5587 N.am      4 UNK        -0.5000 
     55 C          -1.7291  -12.7784  -43.6310 C.2       3 UNK         0.5000 
     56 O          -1.5710  -12.6383  -42.4176 O.2       3 UNK        -0.5000 
     57 CA         -2.8460  -13.6948  -44.1611 C.3       3 UNK         0.1400 
     58 CB         -3.9952  -12.8915  -44.7912 C.3       3 UNK        -0.1800 
     59 N          -2.2832  -14.6278  -45.1386 N.am      3 UNK        -0.5000 
     60 C          -1.6480  -15.7564  -44.7941 C.2       2 UNK         0.5000 
     61 O          -1.6780  -16.2319  -43.6582 O.2       2 UNK        -0.5000 
     62 CA         -0.7819  -16.4541  -45.8556 C.3       2 UNK         0.1400 
     63 CB         -1.4442  -17.7343  -46.3958 C.3       2 UNK        -0.1800 
     64 N          -0.2802  -15.5591  -46.9069 N.am      2 UNK        -0.5000 
     65 C          -0.8860  -15.1277  -48.0212 C.2       1 UNK         0.5000 
     66 O          -2.0027  -15.4888  -48.3977 O.2       1 UNK        -0.5000 
     67 C          -0.6048  -22.9833  -46.7832 C.2       11 UNK         0.5000 
     68 O          -0.7283  -23.7989  -47.6949 O.2       11 UNK        -0.5000 
     69 N          -1.5909  -22.1720  -46.3689 N.am      12 UNK        -0.5000 
     70 CA         -2.9418  -22.1632  -46.9325 C.3       12 UNK         0.1400 
     71 CB         -3.7641  -21.0188  -46.3226 C.3       12 UNK        -0.1800 
     72 C          -3.6621  -23.5108  -46.7700 C.2       12 UNK         0.5000 
     73 O          -4.2849  -23.9730  -47.7240 O.2       12 UNK        -0.5000 
     74 N          -3.5189  -24.1375  -45.5949 N.am      13 UNK        -0.5000 
     75 CA         -4.0260  -25.4769  -45.3006 C.3       13 UNK         0.1400 
     76 CB         -3.8176  -25.7894  -43.8111 C.3       13 UNK        -0.1800 
     77 C          -3.3872  -26.5642  -46.1853 C.2       13 UNK         0.5000 
     78 O          -4.1085  -27.4092  -46.7159 O.2       13 UNK        -0.5000 
     79 N          -2.0581  -26.5059  -46.3556 N.am      14 UNK        -0.5000 
     80 CA         -1.2898  -27.4219  -47.2020 C.3       14 UNK         0.1400 
     81 CB          0.2112  -27.2267  -46.9388 C.3       14 UNK        -0.1800 
     82 C          -1.6045  -27.2638  -48.7016 C.2       14 UNK         0.5000 
     83 O          -1.7324  -28.2659  -49.4060 O.2       14 UNK        -0.5000 
     84 N          -1.7395  -26.0118  -49.1572 N.am      15 UNK        -0.5000 
     85 CA         -2.0639  -25.6524  -50.5387 C.3       15 UNK         0.1400 
     86 CB         -1.6569  -24.1895  -50.7755 C.3       15 UNK        -0.1800 
     87 C          -3.5492  -25.8413  -50.9002 C.2       15 UNK         0.5000 
     88 O          -3.8850  -25.7629  -52.0818 O.2       15 UNK        -0.5000 
     89 N          -4.4103  -26.0254  -49.8879 N.am      16 UNK        -0.5000 
     90 CA         -5.8766  -26.0384  -49.9586 C.3       16 UNK         0.1400 
     91 CB         -6.3818  -27.2664  -50.7439 C.3       16 UNK        -0.1800 
     92 C          -6.4452  -24.7001  -50.4828 C.2       16 UNK         0.5000 
     93 O          -7.4153  -24.6903  -51.2427 O.2       16 UNK        -0.5000 
     94 N          -5.8009  -23.5985  -50.0658 N.am      17 UNK        -0.5000 
     95 CA         -6.0458  -22.2041  -50.4438 C.3       17 UNK         0.1400 
     96 CB         -7.3412  -21.6909  -49.7843 C.3       17 UNK        -0.1800 
     97 C          -6.0059  -21.9730  -51.9706 C.2       17 UNK         0.5000 
     98 O          -6.8695  -21.2821  -52.5139 O.2       17 UNK        -0.5000 
     99 N          -5.0082  -22.5689  -52.6359 N.am      18 UNK        -0.5000 
    100 CA        -4.8567  -22.5521  -54.0900 C.3       18 UNK         0.1400 
    101 CB        -5.5922  -23.7642  -54.6946 C.3       18 UNK        -0.1800 
    102 C         -3.3757  -22.4708  -54.5029 C.2       18 UNK         0.5000 
    103 O         -2.9736  -23.1220  -55.4690 O.2       18 UNK        -0.5000 
    104 N         -2.5872  -21.6707  -53.7706 N.am      19 UNK        -0.5000 
    105 CA        -1.2058  -21.3334  -54.1193 C.3       19 UNK         0.1400 
    106 CB        -0.3630  -21.1973  -52.8372 C.3       19 UNK        -0.1800 
    107 C         -1.1913  -20.0724  -55.0085 C.2       19 UNK         0.5000 
    108 O         -1.6628  -20.1314  -56.1451 O.2       19 UNK        -0.5000 
    109 N         -0.6438  -18.9612  -54.4945 N.am      20 UNK        -0.5000 
    110 CA        -0.4774  -17.6945  -55.2124 C.3       20 UNK         0.1400 
    111 CB         0.4007  -16.7543  -54.3723 C.3       20 UNK        -0.1800 
    112 C         -1.8090  -17.0083  -55.5695 C.2       20 UNK         0.5000 
    113 O         -1.9390  -16.4721  -56.6705 O.2       20 UNK        -0.5000 
    114 N         -2.7664  -17.0536  -54.6362 N.am      21 UNK        -0.5000 
    115 CA        -4.1225  -16.5212  -54.7632 C.3       21 UNK         0.1400 
    116 CB        -4.1291  -14.9842  -54.9033 C.3       21 UNK        -0.1800 
    117 C         -4.9334  -16.9576  -53.5390 C.2       21 UNK         0.5000 
    118 O         -5.9908  -17.5677  -53.6913 O.2       21 UNK        -0.5000 
    119 N         -4.3876  -16.6627  -52.3501 N.am      22 UNK        -0.5000 
    120 CA        -4.9027  -17.0594  -51.0259 C.3       22 UNK         0.1400 
    121 C         -6.2553  -16.4001  -50.6142 C.2       22 UNK         0.5000 
    122 N         -6.6895  -15.3244  -51.2596 N.am      22 UNK        -0.7600 
    123 O         -6.9097  -16.8469  -49.6761 O.2       22 UNK        -0.5000 
    124 C124       -4.9031  -18.6006  -50.8104 C.3       23 UNK        -0.0398 
    125 S125       -3.2864  -19.3714  -51.1674 S.3       23 UNK        -0.2404 
    126 C126       -2.4511  -19.1029  -49.5769 C.3       23 UNK        -0.0205 
    127 H127       -2.5790  -11.2220  -50.2402 H         1 UNK         0.0600 
    128 H128       -2.3419  -10.1608  -48.8476 H         1 UNK         0.0600 
    129 H129       -3.6607  -11.3367  -48.8482 H         1 UNK         0.0600 
    130 H130       -1.1161  -12.9097  -50.2933 H         1 UNK         0.3000 
    131 H131        0.6071  -13.5855  -48.1634 H         1 UNK         0.0600 
    132 H132        1.0951  -13.8509  -50.6227 H         1 UNK         0.0800 
    133 H133        0.0156  -15.2045  -50.6930 H         1 UNK         0.0800 
    134 H134        3.0568  -17.3736  -50.9129 H         1 UNK         0.0800 
    135 H135        1.6438  -16.6979  -51.6667 H         1 UNK         0.0800 
    136 H136       -0.6880  -17.2241  -50.3555 H         1 UNK         0.1150 
    137 H137       -0.8986  -21.3094  -49.1322 H         1 UNK         0.1150 
    138 H138        2.9030  -19.5532  -50.0321 H         1 UNK         0.1150 
    139 H139        1.0268  -22.7194  -49.2888 H         1 UNK         0.0800 
    140 H140        2.4136  -22.1241  -50.1448 H         1 UNK         0.0800 
    141 H141        0.8969  -20.8013  -46.7331 H         1 UNK         0.0800 
    142 H142        2.1233  -21.2801  -45.6100 H         1 UNK         0.0800 
    143 H143        1.3067  -23.7871  -46.2544 H         1 UNK         0.0600 
    144 H144        0.5295  -22.0232  -44.1058 H         1 UNK         0.3000 
    145 H145       -1.1153  -24.4593  -42.1361 H         1 UNK         0.0600 
    146 H146        0.6440  -23.9290  -40.4682 H         1 UNK         0.0600 
    147 H147        1.7031  -23.3139  -41.7379 H         1 UNK         0.0600 
    148 H148        1.2797  -25.0213  -41.6878 H         1 UNK         0.0600 
    149 H149       -0.2412  -21.7888  -41.6004 H         1 UNK         0.3000 
    150 H150       -2.7725  -20.0258  -43.2957 H         1 UNK         0.0600 
    151 H151       -2.6458  -20.5054  -40.2703 H         1 UNK         0.0600 
    152 H152       -4.0650  -20.7533  -41.2809 H         1 UNK         0.0600 
    153 H153       -3.4129  -19.1359  -41.0761 H         1 UNK         0.0600 
    154 H154       -0.9334  -19.0736  -41.4049 H         1 UNK         0.3000 
    155 H155        0.7653  -17.6480  -42.4367 H         1 UNK         0.0600 
    156 H156        1.4485  -19.4786  -40.8430 H         1 UNK         0.0600 
    157 H157        2.8679  -18.6724  -41.4819 H         1 UNK         0.0600 
    158 H158        2.3954  -20.2482  -42.1121 H         1 UNK         0.0600 
    159 H159        1.7489  -19.0011  -44.7782 H         1 UNK         0.3000 
    160 H160        4.4510  -17.6733  -45.4333 H         1 UNK         0.0600 
    161 H161        1.7524  -17.5486  -46.9037 H         1 UNK         0.0600 
    162 H162        2.6837  -19.0030  -46.5568 H         1 UNK         0.0600 
    163 H163        3.3130  -17.8123  -47.6643 H         1 UNK         0.0600 
    164 H164        3.0836  -15.1721  -45.3183 H         1 UNK         0.3000 
    165 H165        5.8789  -13.5072  -46.5420 H         1 UNK         0.0600 
    166 H166        4.3662  -12.0284  -47.8261 H         1 UNK         0.0600 
    167 H167        4.5912  -13.5341  -48.7032 H         1 UNK         0.0600 
    168 H168        3.0991  -13.2545  -47.8149 H         1 UNK         0.0600 
    169 H169        3.3491  -12.6269  -45.4887 H         1 UNK         0.3000 
    170 H170        3.3624  -13.6809  -42.4000 H         1 UNK         0.0600 
    171 H171        4.8783  -11.0181  -42.4774 H         1 UNK         0.0600 
    172 H172        3.8990  -11.6090  -41.1340 H         1 UNK         0.0600 
    173 H173        5.3712  -12.4496  -41.5813 H         1 UNK         0.0600 
    174 H174        2.4914  -11.0908  -43.0964 H         1 UNK         0.3000 
    175 H175        0.2017  -10.8997  -43.4188 H         1 UNK         0.0600 
    176 H176        0.8313  -11.2583  -46.4073 H         1 UNK         0.0600 
    177 H177       -0.1391   -9.9547  -45.7271 H         1 UNK         0.0600 
    178 H178        1.5681  -10.0754  -45.3330 H         1 UNK         0.0600 
    179 H179       -1.1687  -12.3631  -45.5407 H         1 UNK         0.3000 
    180 H180       -3.2582  -14.2524  -43.3172 H         1 UNK         0.0600 
    181 H181       -4.7843  -13.5522  -45.1502 H         1 UNK         0.0600 
    182 H182       -3.6632  -12.2823  -45.6309 H         1 UNK         0.0600 
    183 H183       -4.4426  -12.2189  -44.0586 H         1 UNK         0.0600 
    184 H184       -2.2003  -14.2958  -46.0901 H         1 UNK         0.3000 
    185 H185        0.1111  -16.7697  -45.3205 H         1 UNK         0.0600 
    186 H186       -2.3755  -17.5263  -46.9201 H         1 UNK         0.0600 
    187 H187       -0.7756  -18.2701  -47.0682 H         1 UNK         0.0600 
    188 H188       -1.6918  -18.4116  -45.5792 H         1 UNK         0.0600 
    189 H189        0.6209  -15.1550  -46.6925 H         1 UNK         0.3000 
    190 H190       -1.4062  -21.5378  -45.6030 H         1 UNK         0.3000 
    191 H191       -2.8497  -21.9809  -48.0040 H         1 UNK         0.0600 
    192 H192       -3.2713  -20.0576  -46.4604 H         1 UNK         0.0600 
    193 H193       -4.7443  -20.9517  -46.7965 H         1 UNK         0.0600 
    194 H194       -3.9281  -21.1601  -45.2548 H         1 UNK         0.0600 
    195 H195       -3.0464  -23.6500  -44.8384 H         1 UNK         0.3000 
    196 H196       -5.0997  -25.4749  -45.4996 H         1 UNK         0.0600 
    197 H197       -4.3223  -25.0571  -43.1806 H         1 UNK         0.0600 
    198 H198       -2.7610  -25.7888  -43.5430 H         1 UNK         0.0600 
    199 H199       -4.2205  -26.7707  -43.5579 H         1 UNK         0.0600 
    200 H200       -1.5290  -25.7954  -45.8619 H         1 UNK         0.3000 
    201 H201       -1.5522  -28.4423  -46.9150 H         1 UNK         0.0600 
    202 H202        0.4567  -27.4257  -45.8955 H         1 UNK         0.0600 
    203 H203        0.5327  -26.2104  -47.1690 H         1 UNK         0.0600 
    204 H204        0.8074  -27.9066  -47.5486 H         1 UNK         0.0600 
    205 H205       -1.5496  -25.2387  -48.5225 H         1 UNK         0.3000 
    206 H206       -1.4794  -26.2838  -51.2109 H         1 UNK         0.0600 
    207 H207       -1.8584  -23.8912  -51.8048 H         1 UNK         0.0600 
    208 H208       -0.5916  -24.0447  -50.5980 H         1 UNK         0.0600 
    209 H209       -2.2019  -23.5074  -50.1215 H         1 UNK         0.0600 
    210 H210       -4.0257  -26.0273  -48.9522 H         1 UNK         0.3000 
    211 H211       -6.2278  -26.1361  -48.9303 H         1 UNK         0.0600 
    212 H212       -6.1260  -27.2061  -51.8021 H         1 UNK         0.0600 
    213 H213       -7.4666  -27.3533  -50.6754 H         1 UNK         0.0600 
    214 H214       -5.9570  -28.1886  -50.3475 H         1 UNK         0.0600 
    215 H215       -5.0719  -23.7404  -49.3694 H         1 UNK         0.3000 
    216 H216       -5.2174  -21.6288  -50.0282 H         1 UNK         0.0600 
    217 H217       -7.4784  -20.6243  -49.9668 H         1 UNK         0.0600 
    218 H218       -7.3148  -21.8330  -48.7039 H         1 UNK         0.0600 
    219 H219       -8.2212  -22.2068  -50.1696 H         1 UNK         0.0600 
    220 H220       -4.3564  -23.1524  -52.1302 H         1 UNK         0.3000 
    221 H221       -5.3158  -21.6469  -54.4929 H         1 UNK         0.0600 
    222 H222       -5.5482  -23.7510  -55.7842 H         1 UNK         0.0600 
    223 H223       -5.1557  -24.7044  -54.3558 H         1 UNK         0.0600 
    224 H224       -6.6457  -23.7666  -54.4143 H         1 UNK         0.0600 
    225 H225       -2.9990  -21.1484  -53.0092 H         1 UNK         0.3000 
    226 H226       -0.7632  -22.1400  -54.7073 H         1 UNK         0.0600 
    227 H227       -0.3589  -22.1229  -52.2651 H         1 UNK         0.0600 
    228 H228        0.6778  -20.9675  -53.0690 H         1 UNK         0.0600 
    229 H229       -0.7398  -20.4104  -52.1889 H         1 UNK         0.0600 
    230 H230       -0.2779  -18.9994  -53.5542 H         1 UNK         0.3000 
    231 H231        0.0472  -17.9061  -56.1465 H         1 UNK         0.0600 
    232 H232        0.5705  -15.8104  -54.8920 H         1 UNK         0.0600 
    233 H233       -0.0631  -16.5213  -53.4131 H         1 UNK         0.0600 
    234 H234        1.3779  -17.1964  -54.1771 H         1 UNK         0.0600 
    235 H235       -2.5812  -17.5704  -53.7874 H         1 UNK         0.3000 
    236 H236       -4.5852  -16.9609  -55.6492 H         1 UNK         0.0600 
    237 H237       -3.5714  -14.5007  -54.1007 H         1 UNK         0.0600 
    238 H238       -3.6927  -14.6652  -55.8493 H         1 UNK         0.0600 
    239 H239       -5.1476  -14.5946  -54.8783 H         1 UNK         0.0600 
    240 H240       -3.5349  -16.1230  -52.3350 H         1 UNK         0.3000 
    241 H241       -4.1886  -16.6418  -50.3156 H         1 UNK         0.0600 
    242 H242       -7.5596  -14.8978  -50.9826 H         1 UNK         0.3800 
    243 H243       -6.1637  -14.9391  -52.0271 H         1 UNK         0.3800 
    244 H244       -5.6533  -19.0626  -51.4518 H         1 UNK         0.0800 
    245 H245       -5.1871  -18.8508  -49.7868 H         1 UNK         0.0800 
    246 H246       -2.8413  -19.8026  -48.8405 H         1 UNK         0.0800 
    247 H247       -2.6843  -18.1050  -49.2051 H         1 UNK         0.0800 
@<TRIPOS>BOND
     1    1    2 1    
     2    1  127 1    
     3    1  128 1    
     4    1  129 1    
     5    2    3 2    
     6    2    4 am   BACKBONE|DICT|INTERRES
     7    4    5 1    
     8    4  130 1    
     9    5    6 1    
    10    5   65 1    
    11    5  131 1    
    12    6    7 1    
    13    6  132 1    
    14    6  133 1    
    15    7    8 1    
    16    8    9 1    
    17    8  134 1    
    18    8  135 1    
    19    9   10 ar   
    20    9   14 ar   
    21   10   11 ar   
    22   10  136 1    
    23   11   12 ar   
    24   11  126 1    
    25   12   13 ar   
    26   12  137 1    
    27   13   14 ar   
    28   13   15 1    
    29   14  138 1    
    30   15   16 1    
    31   15  139 1    
    32   15  140 1    
    33   16   17 1    
    34   17   18 1    
    35   17  141 1    
    36   17  142 1    
    37   18   19 1    
    38   18   67 1    
    39   18  143 1    
    40   19   20 am   BACKBONE|DICT|INTERRES
    41   19  144 1    
    42   20   21 2    
    43   20   22 1    
    44   22   23 1    
    45   22   24 1    
    46   22  145 1    
    47   23  146 1    
    48   23  147 1    
    49   23  148 1    
    50   24   25 am   BACKBONE|DICT|INTERRES
    51   24  149 1    
    52   25   26 2    
    53   25   27 1    
    54   27   28 1    
    55   27   29 1    
    56   27  150 1    
    57   28  151 1    
    58   28  152 1    
    59   28  153 1    
    60   29   30 am   BACKBONE|DICT|INTERRES
    61   29  154 1    
    62   30   31 2    
    63   30   32 1    
    64   32   33 1    
    65   32   34 1    
    66   32  155 1    
    67   33  156 1    
    68   33  157 1    
    69   33  158 1    
    70   34   35 am   BACKBONE|DICT|INTERRES
    71   34  159 1    
    72   35   36 2    
    73   35   37 1    
    74   37   38 1    
    75   37   39 1    
    76   37  160 1    
    77   38  161 1    
    78   38  162 1    
    79   38  163 1    
    80   39   40 am   BACKBONE|DICT|INTERRES
    81   39  164 1    
    82   40   41 2    
    83   40   42 1    
    84   42   43 1    
    85   42   44 1    
    86   42  165 1    
    87   43  166 1    
    88   43  167 1    
    89   43  168 1    
    90   44   45 am   BACKBONE|DICT|INTERRES
    91   44  169 1    
    92   45   46 2    
    93   45   47 1    
    94   47   48 1    
    95   47   49 1    
    96   47  170 1    
    97   48  171 1    
    98   48  172 1    
    99   48  173 1    
   100   49   50 am   BACKBONE|DICT|INTERRES
   101   49  174 1    
   102   50   51 2    
   103   50   52 1    
   104   52   53 1    
   105   52   54 1    
   106   52  175 1    
   107   53  176 1    
   108   53  177 1    
   109   53  178 1    
   110   54   55 am   BACKBONE|DICT|INTERRES
   111   54  179 1    
   112   55   56 2    
   113   55   57 1    
   114   57   58 1    
   115   57   59 1    
   116   57  180 1    
   117   58  181 1    
   118   58  182 1    
   119   58  183 1    
   120   59   60 am   BACKBONE|DICT|INTERRES
   121   59  184 1    
   122   60   61 2    
   123   60   62 1    
   124   62   63 1    
   125   62   64 1    
   126   62  185 1    
   127   63  186 1    
   128   63  187 1    
   129   63  188 1    
   130   64   65 am   BACKBONE|DICT|INTERRES
   131   64  189 1    
   132   65   66 2    
   133   67   68 2    
   134   67   69 am   BACKBONE|DICT|INTERRES
   135   69   70 1    
   136   69  190 1    
   137   70   71 1    
   138   70   72 1    
   139   70  191 1    
   140   71  192 1    
   141   71  193 1    
   142   71  194 1    
   143   72   73 2    
   144   72   74 am   BACKBONE|DICT|INTERRES
   145   74   75 1    
   146   74  195 1    
   147   75   76 1    
   148   75   77 1    
   149   75  196 1    
   150   76  197 1    
   151   76  198 1    
   152   76  199 1    
   153   77   78 2    
   154   77   79 am   BACKBONE|DICT|INTERRES
   155   79   80 1    
   156   79  200 1    
   157   80   81 1    
   158   80   82 1    
   159   80  201 1    
   160   81  202 1    
   161   81  203 1    
   162   81  204 1    
   163   82   83 2    
   164   82   84 am   BACKBONE|DICT|INTERRES
   165   84   85 1    
   166   84  205 1    
   167   85   86 1    
   168   85   87 1    
   169   85  206 1    
   170   86  207 1    
   171   86  208 1    
   172   86  209 1    
   173   87   88 2    
   174   87   89 am   BACKBONE|DICT|INTERRES
   175   89   90 1    
   176   89  210 1    
   177   90   91 1    
   178   90   92 1    
   179   90  211 1    
   180   91  212 1    
   181   91  213 1    
   182   91  214 1    
   183   92   93 2    
   184   92   94 am   BACKBONE|DICT|INTERRES
   185   94   95 1    
   186   94  215 1    
   187   95   96 1    
   188   95   97 1    
   189   95  216 1    
   190   96  217 1    
   191   96  218 1    
   192   96  219 1    
   193   97   98 2    
   194   97   99 am   BACKBONE|DICT|INTERRES
   195   99  100 1    
   196   99  220 1    
   197  100  101 1    
   198  100  102 1    
   199  100  221 1    
   200  101  222 1    
   201  101  223 1    
   202  101  224 1    
   203  102  103 2    
   204  102  104 am   BACKBONE|DICT|INTERRES
   205  104  105 1    
   206  104  225 1    
   207  105  106 1    
   208  105  107 1    
   209  105  226 1    
   210  106  227 1    
   211  106  228 1    
   212  106  229 1    
   213  107  108 2    
   214  107  109 am   BACKBONE|DICT|INTERRES
   215  109  110 1    
   216  109  230 1    
   217  110  111 1    
   218  110  112 1    
   219  110  231 1    
   220  111  232 1    
   221  111  233 1    
   222  111  234 1    
   223  112  113 2    
   224  112  114 am   BACKBONE|DICT|INTERRES
   225  114  115 1    
   226  114  235 1    
   227  115  116 1    
   228  115  117 1    
   229  115  236 1    
   230  116  237 1    
   231  116  238 1    
   232  116  239 1    
   233  117  118 2    
   234  117  119 am   BACKBONE|DICT|INTERRES
   235  119  120 1    
   236  119  240 1    
   237  120  121 1    
   238  120  124 1    
   239  120  241 1    
   240  121  122 am   BACKBONE|DICT|INTERRES
   241  121  123 2    
   242  122  242 1    
   243  122  243 1    
   244  124  125 1    
   245  124  244 1    
   246  124  245 1    
   247  125  126 1    
   248  126  246 1    
   249  126  247 1    
@<TRIPOS>SUBSTRUCTURE
     1 UNK         1 GROUP             0       ****    0 ROOT    
