@<TRIPOS>MOLECULE
3R540
247   249    1
SMALL
USER_CHARGES


@<TRIPOS>ATOM
      1 CA          2.0797   -9.2819  -50.1814 C.3       0 UNK        -0.1800 
      2 C           2.3611  -10.2519  -49.0431 C.2       0 UNK         0.5000 
      3 O           3.1190   -9.9226  -48.1302 O.2       0 UNK        -0.5000 
      4 N           1.7419  -11.4409  -49.0823 N.am      1 UNK        -0.5000 
      5 CA          1.9076  -12.5103  -48.0863 C.3       1 UNK         0.1400 
      6 C6          1.2942  -13.8501  -48.5671 C.3       23 UNK        -0.0398 
      7 S7          2.1505  -15.3011  -47.8517 S.3       23 UNK        -0.2404 
      8 C8          2.5292  -16.3079  -49.3247 C.3       23 UNK        -0.0205 
      9 C9          1.4251  -17.2921  -49.7093 C.ar      23 UNK        -0.0193 
     10 C10         0.0800  -16.9090  -49.7562 C.ar      23 UNK        -0.1150 
     11 C11        -0.9148  -17.8097  -50.1549 C.ar      23 UNK        -0.0193 
     12 C12        -0.5464  -19.1094  -50.5135 C.ar      23 UNK        -0.1150 
     13 C13         0.7909  -19.5162  -50.4618 C.ar      23 UNK        -0.0193 
     14 C14         1.7674  -18.6008  -50.0606 C.ar      23 UNK        -0.1150 
     15 C15         1.2008  -20.9350  -50.8480 C.3       23 UNK        -0.0205 
     16 S16         0.1730  -22.2375  -50.0903 S.3       23 UNK        -0.2404 
     17 C17         0.1612  -21.7273  -48.3387 C.3       23 UNK        -0.0398 
     18 CA         -0.3231  -22.8346  -47.3770 C.3       11 UNK         0.1400 
     19 N          -0.0219  -22.4904  -45.9860 N.am      11 UNK        -0.5000 
     20 C          -0.1539  -23.3239  -44.9458 C.2       10 UNK         0.5000 
     21 O          -0.5166  -24.4943  -45.0489 O.2       10 UNK        -0.5000 
     22 CA          0.1136  -22.7391  -43.5494 C.3       10 UNK         0.1400 
     23 CB          1.6221  -22.6483  -43.2770 C.3       10 UNK        -0.1800 
     24 N          -0.5091  -21.4276  -43.3657 N.am      10 UNK        -0.5000 
     25 C          -1.8319  -21.2085  -43.3956 C.2       9 UNK         0.5000 
     26 O          -2.6676  -22.1011  -43.5353 O.2       9 UNK        -0.5000 
     27 CA         -2.3016  -19.7457  -43.3003 C.3       9 UNK         0.1400 
     28 CB         -2.2654  -19.2521  -41.8468 C.3       9 UNK        -0.1800 
     29 N          -1.5206  -18.8434  -44.1462 N.am      9 UNK        -0.5000 
     30 C          -1.4475  -18.9195  -45.4832 C.2       8 UNK         0.5000 
     31 O          -2.0539  -19.7481  -46.1595 O.2       8 UNK        -0.5000 
     32 CA         -0.4935  -17.9352  -46.1770 C.3       8 UNK         0.1400 
     33 CB         -1.1434  -16.5480  -46.3036 C.3       8 UNK        -0.1800 
     34 N           0.7851  -17.8352  -45.4735 N.am      8 UNK        -0.5000 
     35 C           1.6607  -18.8443  -45.3550 C.2       7 UNK         0.5000 
     36 O           1.5011  -19.9555  -45.8615 O.2       7 UNK        -0.5000 
     37 CA          2.8943  -18.5845  -44.4740 C.3       7 UNK         0.1400 
     38 CB          3.9605  -17.7948  -45.2479 C.3       7 UNK        -0.1800 
     39 N           2.5491  -17.8762  -43.2401 N.am      7 UNK        -0.5000 
     40 C           1.8304  -18.4114  -42.2405 C.2       6 UNK         0.5000 
     41 O           1.4247  -19.5725  -42.2431 O.2       6 UNK        -0.5000 
     42 CA          1.4600  -17.4939  -41.0568 C.3       6 UNK         0.1400 
     43 CB          2.5474  -17.5488  -39.9740 C.3       6 UNK        -0.1800 
     44 N           1.2428  -16.1017  -41.4485 N.am      6 UNK        -0.5000 
     45 C           0.3357  -15.6873  -42.3427 C.2       5 UNK         0.5000 
     46 O          -0.5090  -16.4297  -42.8440 O.2       5 UNK        -0.5000 
     47 CA          0.4075  -14.2151  -42.7948 C.3       5 UNK         0.1400 
     48 CB         -0.7044  -13.3976  -42.1207 C.3       5 UNK        -0.1800 
     49 N           1.6928  -13.5344  -42.5829 N.am      5 UNK        -0.5000 
     50 C           2.8970  -13.9367  -43.0206 C.2       4 UNK         0.5000 
     51 O           3.1129  -15.0390  -43.5268 O.2       4 UNK        -0.5000 
     52 CA          4.0267  -12.9020  -42.9031 C.3       4 UNK         0.1400 
     53 CB          5.3599  -13.3843  -43.5049 C.3       4 UNK        -0.1800 
     54 N           3.5954  -11.6827  -43.5789 N.am      4 UNK        -0.5000 
     55 C           3.8722  -10.4307  -43.1942 C.2       3 UNK         0.5000 
     56 O           4.5707  -10.1599  -42.2166 O.2       3 UNK        -0.5000 
     57 CA          3.2699   -9.2797  -44.0308 C.3       3 UNK         0.1400 
     58 CB          4.3384   -8.6725  -44.9526 C.3       3 UNK        -0.1800 
     59 N           2.1215   -9.6814  -44.8462 N.am      3 UNK        -0.5000 
     60 C           0.9234  -10.0435  -44.3642 C.2       2 UNK         0.5000 
     61 O           0.6266   -9.9859  -43.1707 O.2       2 UNK        -0.5000 
     62 CA         -0.1058  -10.6016  -45.3717 C.3       2 UNK         0.1400 
     63 CB         -1.1395   -9.5250  -45.7342 C.3       2 UNK        -0.1800 
     64 N           0.4754  -11.1359  -46.6088 N.am      2 UNK        -0.5000 
     65 C           1.3774  -12.1267  -46.6860 C.2       1 UNK         0.5000 
     66 O           1.8223  -12.7028  -45.6969 O.2       1 UNK        -0.5000 
     67 C          -1.8178  -23.1735  -47.5764 C.2       11 UNK         0.5000 
     68 O          -2.1330  -24.1663  -48.2341 O.2       11 UNK        -0.5000 
     69 N          -2.7144  -22.3796  -46.9749 N.am      12 UNK        -0.5000 
     70 CA         -4.1595  -22.6116  -46.9744 C.3       12 UNK         0.1400 
     71 CB         -4.8786  -21.4048  -46.3552 C.3       12 UNK        -0.1800 
     72 C          -4.5632  -23.9161  -46.2636 C.2       12 UNK         0.5000 
     73 O          -5.4801  -24.5941  -46.7251 O.2       12 UNK        -0.5000 
     74 N          -3.8686  -24.2531  -45.1705 N.am      13 UNK        -0.5000 
     75 CA         -4.0840  -25.4785  -44.4076 C.3       13 UNK         0.1400 
     76 CB         -3.4734  -25.3221  -43.0054 C.3       13 UNK        -0.1800 
     77 C          -3.5227  -26.7248  -45.1158 C.2       13 UNK         0.5000 
     78 O          -4.2506  -27.7031  -45.2888 O.2       13 UNK        -0.5000 
     79 N          -2.2344  -26.6844  -45.4794 N.am      14 UNK        -0.5000 
     80 CA         -1.4811  -27.8543  -45.9320 C.3       14 UNK         0.1400 
     81 CB          0.0014  -27.6675  -45.5725 C.3       14 UNK        -0.1800 
     82 C          -1.6237  -28.1441  -47.4340 C.2       14 UNK         0.5000 
     83 O          -1.6235  -29.3151  -47.8166 O.2       14 UNK        -0.5000 
     84 N          -1.7097  -27.0922  -48.2575 N.am      15 UNK        -0.5000 
     85 CA         -1.6674  -27.1819  -49.7201 C.3       15 UNK         0.1400 
     86 CB         -0.4370  -26.4037  -50.2215 C.3       15 UNK        -0.1800 
     87 C          -2.9540  -26.6621  -50.3832 C.2       15 UNK         0.5000 
     88 O          -2.9899  -26.5559  -51.6100 O.2       15 UNK        -0.5000 
     89 N          -3.9702  -26.3073  -49.5800 N.am      16 UNK        -0.5000 
     90 CA         -5.2538  -25.7176  -49.9886 C.3       16 UNK         0.1400 
     91 CB         -6.0953  -26.7481  -50.7708 C.3       16 UNK        -0.1800 
     92 C          -5.0961  -24.3847  -50.7552 C.2       16 UNK         0.5000 
     93 O          -5.9289  -24.0640  -51.6048 O.2       16 UNK        -0.5000 
     94 N          -3.9945  -23.6621  -50.4903 N.am      17 UNK        -0.5000 
     95 CA         -3.5233  -22.4731  -51.2122 C.3       17 UNK         0.1400 
     96 CB         -4.4354  -21.2640  -50.9265 C.3       17 UNK        -0.1800 
     97 C          -3.3186  -22.7348  -52.7226 C.2       17 UNK         0.5000 
     98 O          -3.5814  -21.8592  -53.5492 O.2       17 UNK        -0.5000 
     99 N          -2.9383  -23.9765  -53.0669 N.am      18 UNK        -0.5000 
    100 CA        -2.8306  -24.5346  -54.4214 C.3       18 UNK         0.1400 
    101 CB        -1.6845  -23.8486  -55.1936 C.3       18 UNK        -0.1800 
    102 C         -4.1589  -24.5171  -55.2155 C.2       18 UNK         0.5000 
    103 O         -4.1373  -24.6967  -56.4339 O.2       18 UNK        -0.5000 
    104 N         -5.2821  -24.2739  -54.5189 N.am      19 UNK        -0.5000 
    105 CA        -6.6242  -24.0022  -55.0359 C.3       19 UNK         0.1400 
    106 CB        -7.2309  -25.2770  -55.6580 C.3       19 UNK        -0.1800 
    107 C         -6.6825  -22.7797  -55.9820 C.2       19 UNK         0.5000 
    108 O         -7.5377  -22.7467  -56.8698 O.2       19 UNK        -0.5000 
    109 N         -5.7779  -21.8032  -55.7989 N.am      20 UNK        -0.5000 
    110 CA        -5.6251  -20.6697  -56.7146 C.3       20 UNK         0.1400 
    111 CB        -4.7791  -21.0946  -57.9296 C.3       20 UNK        -0.1800 
    112 C         -5.0310  -19.4079  -56.0686 C.2       20 UNK         0.5000 
    113 O         -5.4001  -18.3066  -56.4817 O.2       20 UNK        -0.5000 
    114 N         -4.1115  -19.5542  -55.1047 N.am      21 UNK        -0.5000 
    115 CA        -3.4275  -18.4260  -54.4725 C.3       21 UNK         0.1400 
    116 CB        -2.1514  -18.9212  -53.7741 C.3       21 UNK        -0.1800 
    117 C         -4.3418  -17.6901  -53.4789 C.2       21 UNK         0.5000 
    118 O         -5.1466  -18.3246  -52.7939 O.2       21 UNK        -0.5000 
    119 N         -4.1699  -16.3654  -53.4041 N.am      22 UNK        -0.5000 
    120 CA        -4.8551  -15.4487  -52.4726 C.3       22 UNK         0.1400 
    121 C         -6.3908  -15.2910  -52.7041 C.2       22 UNK         0.5000 
    122 N         -6.9399  -15.7219  -53.8335 N.am      22 UNK        -0.7600 
    123 O         -7.0950  -14.7357  -51.8650 O.2       22 UNK        -0.5000 
    124 C124       -4.5000  -15.7179  -50.9811 C.3       23 UNK        -0.0398 
    125 S125       -2.6981  -15.6914  -50.6778 S.3       23 UNK        -0.2404 
    126 C126       -2.3916  -17.4195  -50.1755 C.3       23 UNK        -0.0205 
    127 H127        1.6458   -8.3615  -49.7909 H         1 UNK         0.0600 
    128 H128        1.3872   -9.7021  -50.9111 H         1 UNK         0.0600 
    129 H129        3.0065   -9.0311  -50.6972 H         1 UNK         0.0600 
    130 H130        1.1235  -11.6469  -49.8543 H         1 UNK         0.3000 
    131 H131        2.9857  -12.6519  -47.9799 H         1 UNK         0.0600 
    132 H132        0.2293  -13.9056  -48.3338 H         1 UNK         0.0800 
    133 H133        1.3587  -13.9169  -49.6535 H         1 UNK         0.0800 
    134 H134        2.7569  -15.6671  -50.1769 H         1 UNK         0.0800 
    135 H135        3.4485  -16.8542  -49.1084 H         1 UNK         0.0800 
    136 H136       -0.1984  -15.9054  -49.4795 H         1 UNK         0.1150 
    137 H137       -1.3045  -19.8160  -50.8188 H         1 UNK         0.1150 
    138 H138        2.8039  -18.9067  -50.0315 H         1 UNK         0.1150 
    139 H139        1.1468  -21.0321  -51.9329 H         1 UNK         0.0800 
    140 H140        2.2403  -21.1208  -50.5733 H         1 UNK         0.0800 
    141 H141       -0.4452  -20.8273  -48.2242 H         1 UNK         0.0800 
    142 H142        1.1809  -21.4393  -48.0792 H         1 UNK         0.0800 
    143 H143        0.2425  -23.7414  -47.6029 H         1 UNK         0.0600 
    144 H144        0.3138  -21.5467  -45.8171 H         1 UNK         0.3000 
    145 H145       -0.3222  -23.4208  -42.8161 H         1 UNK         0.0600 
    146 H146        1.8178  -22.3338  -42.2518 H         1 UNK         0.0600 
    147 H147        2.1043  -23.6166  -43.4171 H         1 UNK         0.0600 
    148 H148        2.1107  -21.9369  -43.9437 H         1 UNK         0.0600 
    149 H149        0.1192  -20.6483  -43.1919 H         1 UNK         0.3000 
    150 H150       -3.3365  -19.7060  -43.6458 H         1 UNK         0.0600 
    151 H151       -2.8904  -19.8770  -41.2078 H         1 UNK         0.0600 
    152 H152       -2.6360  -18.2299  -41.7672 H         1 UNK         0.0600 
    153 H153       -1.2549  -19.2744  -41.4395 H         1 UNK         0.0600 
    154 H154       -1.0172  -18.0964  -43.6754 H         1 UNK         0.3000 
    155 H155       -0.2939  -18.3130  -47.1818 H         1 UNK         0.0600 
    156 H156       -2.0772  -16.6084  -46.8638 H         1 UNK         0.0600 
    157 H157       -0.4972  -15.8518  -46.8340 H         1 UNK         0.0600 
    158 H158       -1.3737  -16.1132  -45.3313 H         1 UNK         0.0600 
    159 H159        0.9835  -16.9644  -45.0038 H         1 UNK         0.3000 
    160 H160        3.3209  -19.5524  -44.2024 H         1 UNK         0.0600 
    161 H161        3.5986  -16.8091  -45.5421 H         1 UNK         0.0600 
    162 H162        4.2518  -18.3208  -46.1579 H         1 UNK         0.0600 
    163 H163        4.8600  -17.6544  -44.6485 H         1 UNK         0.0600 
    164 H164        2.8090  -16.8937  -43.1951 H         1 UNK         0.3000 
    165 H165        0.5288  -17.8658  -40.6260 H         1 UNK         0.0600 
    166 H166        2.2605  -16.9696  -39.0962 H         1 UNK         0.0600 
    167 H167        2.7177  -18.5745  -39.6440 H         1 UNK         0.0600 
    168 H168        3.4985  -17.1588  -40.3391 H         1 UNK         0.0600 
    169 H169        1.9043  -15.4239  -41.1007 H         1 UNK         0.3000 
    170 H170        0.2244  -14.2116  -43.8712 H         1 UNK         0.0600 
    171 H171       -1.6822  -13.8510  -42.2892 H         1 UNK         0.0600 
    172 H172       -0.5543  -13.3307  -41.0425 H         1 UNK         0.0600 
    173 H173       -0.7475  -12.3834  -42.5169 H         1 UNK         0.0600 
    174 H174        1.6309  -12.6059  -42.1902 H         1 UNK         0.3000 
    175 H175        4.1724  -12.7099  -41.8382 H         1 UNK         0.0600 
    176 H176        5.2633  -13.5977  -44.5703 H         1 UNK         0.0600 
    177 H177        6.1419  -12.6348  -43.3827 H         1 UNK         0.0600 
    178 H178        5.7036  -14.2961  -43.0149 H         1 UNK         0.0600 
    179 H179        2.9823  -11.8352  -44.3761 H         1 UNK         0.3000 
    180 H180        2.9384   -8.5071  -43.3341 H         1 UNK         0.0600 
    181 H181        4.6977   -9.3992  -45.6826 H         1 UNK         0.0600 
    182 H182        5.2002   -8.3270  -44.3802 H         1 UNK         0.0600 
    183 H183        3.9469   -7.8145  -45.4995 H         1 UNK         0.0600 
    184 H184        2.2852   -9.7663  -45.8411 H         1 UNK         0.3000 
    185 H185       -0.6264  -11.4235  -44.8764 H         1 UNK         0.0600 
    186 H186       -1.6172   -9.1235  -44.8394 H         1 UNK         0.0600 
    187 H187       -0.6799   -8.6897  -46.2641 H         1 UNK         0.0600 
    188 H188       -1.9291   -9.9317  -46.3664 H         1 UNK         0.0600 
    189 H189        0.1769  -10.7013  -47.4696 H         1 UNK         0.3000 
    190 H190       -2.3920  -21.5418  -46.4953 H         1 UNK         0.3000 
    191 H191       -4.4855  -22.6927  -48.0110 H         1 UNK         0.0600 
    192 H192       -4.6693  -20.4930  -46.9150 H         1 UNK         0.0600 
    193 H193       -5.9597  -21.5485  -46.3605 H         1 UNK         0.0600 
    194 H194       -4.5733  -21.2407  -45.3218 H         1 UNK         0.0600 
    195 H195       -3.1710  -23.6075  -44.8153 H         1 UNK         0.3000 
    196 H196       -5.1596  -25.6227  -44.2845 H         1 UNK         0.0600 
    197 H197       -3.6187  -26.2255  -42.4118 H         1 UNK         0.0600 
    198 H198       -3.9401  -24.4987  -42.4645 H         1 UNK         0.0600 
    199 H199       -2.4018  -25.1248  -43.0487 H         1 UNK         0.0600 
    200 H200       -1.6941  -25.8366  -45.3118 H         1 UNK         0.3000 
    201 H201       -1.8403  -28.7330  -45.3915 H         1 UNK         0.0600 
    202 H202        0.1303  -27.4979  -44.5033 H         1 UNK         0.0600 
    203 H203        0.4407  -26.8206  -46.1011 H         1 UNK         0.0600 
    204 H204        0.5816  -28.5533  -45.8341 H         1 UNK         0.0600 
    205 H205       -1.7353  -26.1529  -47.8746 H         1 UNK         0.3000 
    206 H206       -1.5581  -28.2190  -50.0424 H         1 UNK         0.0600 
    207 H207        0.4790  -26.7813  -49.7671 H         1 UNK         0.0600 
    208 H208       -0.3228  -26.4982  -51.3021 H         1 UNK         0.0600 
    209 H209       -0.5090  -25.3404  -49.9928 H         1 UNK         0.0600 
    210 H210       -3.8310  -26.4067  -48.5843 H         1 UNK         0.3000 
    211 H211       -5.7990  -25.4823  -49.0764 H         1 UNK         0.0600 
    212 H212       -5.6576  -26.9763  -51.7432 H         1 UNK         0.0600 
    213 H213       -7.1049  -26.3757  -50.9480 H         1 UNK         0.0600 
    214 H214       -6.1891  -27.6822  -50.2171 H         1 UNK         0.0600 
    215 H215       -3.3637  -24.0125  -49.7743 H         1 UNK         0.3000 
    216 H216       -2.5413  -22.2389  -50.8083 H         1 UNK         0.0600 
    217 H217       -4.0180  -20.3522  -51.3522 H         1 UNK         0.0600 
    218 H218       -4.5463  -21.0942  -49.8561 H         1 UNK         0.0600 
    219 H219       -5.4302  -21.3952  -51.3529 H         1 UNK         0.0600 
    220 H220       -2.8231  -24.6624  -52.3277 H         1 UNK         0.3000 
    221 H221       -2.5668  -25.5854  -54.2955 H         1 UNK         0.0600 
    222 H222       -1.9170  -22.8091  -55.4267 H         1 UNK         0.0600 
    223 H223       -0.7579  -23.8648  -54.6199 H         1 UNK         0.0600 
    224 H224       -1.4883  -24.3575  -56.1379 H         1 UNK         0.0600 
    225 H225       -5.1972  -24.1603  -53.5142 H         1 UNK         0.3000 
    226 H226       -7.2314  -23.7383  -54.1691 H         1 UNK         0.0600 
    227 H227       -7.1809  -26.1156  -54.9635 H         1 UNK         0.0600 
    228 H228       -8.2816  -25.1292  -55.9097 H         1 UNK         0.0600 
    229 H229       -6.7130  -25.5669  -56.5727 H         1 UNK         0.0600 
    230 H230       -5.1193  -21.8762  -55.0321 H         1 UNK         0.3000 
    231 H231       -6.6137  -20.3775  -57.0756 H         1 UNK         0.0600 
    232 H232       -3.7953  -21.4528  -57.6239 H         1 UNK         0.0600 
    233 H233       -4.6287  -20.2607  -58.6166 H         1 UNK         0.0600 
    234 H234       -5.2639  -21.8924  -58.4924 H         1 UNK         0.0600 
    235 H235       -3.8868  -20.4703  -54.7272 H         1 UNK         0.3000 
    236 H236       -3.1268  -17.7273  -55.2565 H         1 UNK         0.0600 
    237 H237       -1.4957  -19.4449  -54.4698 H         1 UNK         0.0600 
    238 H238       -1.5856  -18.0872  -53.3568 H         1 UNK         0.0600 
    239 H239       -2.3790  -19.6006  -52.9543 H         1 UNK         0.0600 
    240 H240       -3.4891  -15.9298  -54.0095 H         1 UNK         0.3000 
    241 H241       -4.4559  -14.4627  -52.7124 H         1 UNK         0.0600 
    242 H242       -7.9302  -15.6052  -53.9805 H         1 UNK         0.3800 
    243 H243       -6.3796  -16.1851  -54.5322 H         1 UNK         0.3800 
    244 H244       -4.9426  -14.9529  -50.3413 H         1 UNK         0.0800 
    245 H245       -4.9246  -16.6664  -50.6494 H         1 UNK         0.0800 
    246 H246       -2.8108  -17.5820  -49.1818 H         1 UNK         0.0800 
    247 H247       -2.9344  -18.0792  -50.8531 H         1 UNK         0.0800 
@<TRIPOS>BOND
     1    1    2 1    
     2    1  127 1    
     3    1  128 1    
     4    1  129 1    
     5    2    3 2    
     6    2    4 am   BACKBONE|DICT|INTERRES
     7    4    5 1    
     8    4  130 1    
     9    5    6 1    
    10    5   65 1    
    11    5  131 1    
    12    6    7 1    
    13    6  132 1    
    14    6  133 1    
    15    7    8 1    
    16    8    9 1    
    17    8  134 1    
    18    8  135 1    
    19    9   10 ar   
    20    9   14 ar   
    21   10   11 ar   
    22   10  136 1    
    23   11   12 ar   
    24   11  126 1    
    25   12   13 ar   
    26   12  137 1    
    27   13   14 ar   
    28   13   15 1    
    29   14  138 1    
    30   15   16 1    
    31   15  139 1    
    32   15  140 1    
    33   16   17 1    
    34   17   18 1    
    35   17  141 1    
    36   17  142 1    
    37   18   19 1    
    38   18   67 1    
    39   18  143 1    
    40   19   20 am   BACKBONE|DICT|INTERRES
    41   19  144 1    
    42   20   21 2    
    43   20   22 1    
    44   22   23 1    
    45   22   24 1    
    46   22  145 1    
    47   23  146 1    
    48   23  147 1    
    49   23  148 1    
    50   24   25 am   BACKBONE|DICT|INTERRES
    51   24  149 1    
    52   25   26 2    
    53   25   27 1    
    54   27   28 1    
    55   27   29 1    
    56   27  150 1    
    57   28  151 1    
    58   28  152 1    
    59   28  153 1    
    60   29   30 am   BACKBONE|DICT|INTERRES
    61   29  154 1    
    62   30   31 2    
    63   30   32 1    
    64   32   33 1    
    65   32   34 1    
    66   32  155 1    
    67   33  156 1    
    68   33  157 1    
    69   33  158 1    
    70   34   35 am   BACKBONE|DICT|INTERRES
    71   34  159 1    
    72   35   36 2    
    73   35   37 1    
    74   37   38 1    
    75   37   39 1    
    76   37  160 1    
    77   38  161 1    
    78   38  162 1    
    79   38  163 1    
    80   39   40 am   BACKBONE|DICT|INTERRES
    81   39  164 1    
    82   40   41 2    
    83   40   42 1    
    84   42   43 1    
    85   42   44 1    
    86   42  165 1    
    87   43  166 1    
    88   43  167 1    
    89   43  168 1    
    90   44   45 am   BACKBONE|DICT|INTERRES
    91   44  169 1    
    92   45   46 2    
    93   45   47 1    
    94   47   48 1    
    95   47   49 1    
    96   47  170 1    
    97   48  171 1    
    98   48  172 1    
    99   48  173 1    
   100   49   50 am   BACKBONE|DICT|INTERRES
   101   49  174 1    
   102   50   51 2    
   103   50   52 1    
   104   52   53 1    
   105   52   54 1    
   106   52  175 1    
   107   53  176 1    
   108   53  177 1    
   109   53  178 1    
   110   54   55 am   BACKBONE|DICT|INTERRES
   111   54  179 1    
   112   55   56 2    
   113   55   57 1    
   114   57   58 1    
   115   57   59 1    
   116   57  180 1    
   117   58  181 1    
   118   58  182 1    
   119   58  183 1    
   120   59   60 am   BACKBONE|DICT|INTERRES
   121   59  184 1    
   122   60   61 2    
   123   60   62 1    
   124   62   63 1    
   125   62   64 1    
   126   62  185 1    
   127   63  186 1    
   128   63  187 1    
   129   63  188 1    
   130   64   65 am   BACKBONE|DICT|INTERRES
   131   64  189 1    
   132   65   66 2    
   133   67   68 2    
   134   67   69 am   BACKBONE|DICT|INTERRES
   135   69   70 1    
   136   69  190 1    
   137   70   71 1    
   138   70   72 1    
   139   70  191 1    
   140   71  192 1    
   141   71  193 1    
   142   71  194 1    
   143   72   73 2    
   144   72   74 am   BACKBONE|DICT|INTERRES
   145   74   75 1    
   146   74  195 1    
   147   75   76 1    
   148   75   77 1    
   149   75  196 1    
   150   76  197 1    
   151   76  198 1    
   152   76  199 1    
   153   77   78 2    
   154   77   79 am   BACKBONE|DICT|INTERRES
   155   79   80 1    
   156   79  200 1    
   157   80   81 1    
   158   80   82 1    
   159   80  201 1    
   160   81  202 1    
   161   81  203 1    
   162   81  204 1    
   163   82   83 2    
   164   82   84 am   BACKBONE|DICT|INTERRES
   165   84   85 1    
   166   84  205 1    
   167   85   86 1    
   168   85   87 1    
   169   85  206 1    
   170   86  207 1    
   171   86  208 1    
   172   86  209 1    
   173   87   88 2    
   174   87   89 am   BACKBONE|DICT|INTERRES
   175   89   90 1    
   176   89  210 1    
   177   90   91 1    
   178   90   92 1    
   179   90  211 1    
   180   91  212 1    
   181   91  213 1    
   182   91  214 1    
   183   92   93 2    
   184   92   94 am   BACKBONE|DICT|INTERRES
   185   94   95 1    
   186   94  215 1    
   187   95   96 1    
   188   95   97 1    
   189   95  216 1    
   190   96  217 1    
   191   96  218 1    
   192   96  219 1    
   193   97   98 2    
   194   97   99 am   BACKBONE|DICT|INTERRES
   195   99  100 1    
   196   99  220 1    
   197  100  101 1    
   198  100  102 1    
   199  100  221 1    
   200  101  222 1    
   201  101  223 1    
   202  101  224 1    
   203  102  103 2    
   204  102  104 am   BACKBONE|DICT|INTERRES
   205  104  105 1    
   206  104  225 1    
   207  105  106 1    
   208  105  107 1    
   209  105  226 1    
   210  106  227 1    
   211  106  228 1    
   212  106  229 1    
   213  107  108 2    
   214  107  109 am   BACKBONE|DICT|INTERRES
   215  109  110 1    
   216  109  230 1    
   217  110  111 1    
   218  110  112 1    
   219  110  231 1    
   220  111  232 1    
   221  111  233 1    
   222  111  234 1    
   223  112  113 2    
   224  112  114 am   BACKBONE|DICT|INTERRES
   225  114  115 1    
   226  114  235 1    
   227  115  116 1    
   228  115  117 1    
   229  115  236 1    
   230  116  237 1    
   231  116  238 1    
   232  116  239 1    
   233  117  118 2    
   234  117  119 am   BACKBONE|DICT|INTERRES
   235  119  120 1    
   236  119  240 1    
   237  120  121 1    
   238  120  124 1    
   239  120  241 1    
   240  121  122 am   BACKBONE|DICT|INTERRES
   241  121  123 2    
   242  122  242 1    
   243  122  243 1    
   244  124  125 1    
   245  124  244 1    
   246  124  245 1    
   247  125  126 1    
   248  126  246 1    
   249  126  247 1    
@<TRIPOS>SUBSTRUCTURE
     1 UNK         1 GROUP             0       ****    0 ROOT    
