@<TRIPOS>MOLECULE
3R540
247   249    1
SMALL
USER_CHARGES


@<TRIPOS>ATOM
      1 CA          3.8879  -13.1784  -46.4200 C.3       0 UNK        -0.1800 
      2 C           2.5693  -13.1587  -45.6629 C.2       0 UNK         0.5000 
      3 O           2.5717  -13.0727  -44.4346 O.2       0 UNK        -0.5000 
      4 N           1.4421  -13.2377  -46.3846 N.am      1 UNK        -0.5000 
      5 CA          0.0854  -13.2267  -45.8184 C.3       1 UNK         0.1400 
      6 C6         -1.0034  -13.5658  -46.8668 C.3       23 UNK        -0.0398 
      7 S7         -0.8968  -15.2774  -47.4935 S.3       23 UNK        -0.2404 
      8 C8         -0.2708  -15.0168  -49.1816 C.3       23 UNK        -0.0205 
      9 C9         -0.3556  -16.2875  -50.0156 C.ar      23 UNK        -0.0193 
     10 C10        -1.3965  -16.4562  -50.9374 C.ar      23 UNK        -0.1150 
     11 C11        -1.4601  -17.6051  -51.7314 C.ar      23 UNK        -0.0193 
     12 C12        -0.4782  -18.5851  -51.5934 C.ar      23 UNK        -0.1150 
     13 C13         0.5633  -18.4363  -50.6769 C.ar      23 UNK        -0.0193 
     14 C14         0.6198  -17.2835  -49.8864 C.ar      23 UNK        -0.1150 
     15 C15         1.6358  -19.5125  -50.5799 C.3       23 UNK        -0.0205 
     16 S16         0.9686  -21.1069  -50.0025 S.3       23 UNK        -0.2404 
     17 C17         0.7950  -20.7695  -48.2233 C.3       23 UNK        -0.0398 
     18 CA         -0.2674  -21.6568  -47.5307 C.3       11 UNK         0.1400 
     19 N          -0.0013  -21.7836  -46.0937 N.am      11 UNK        -0.5000 
     20 C          -0.6778  -22.5691  -45.2440 C.2       10 UNK         0.5000 
     21 O          -1.5792  -23.3311  -45.5902 O.2       10 UNK        -0.5000 
     22 CA         -0.3304  -22.4364  -43.7489 C.3       10 UNK         0.1400 
     23 CB          0.9350  -23.2331  -43.3993 C.3       10 UNK        -0.1800 
     24 N          -0.1669  -21.0395  -43.3426 N.am      10 UNK        -0.5000 
     25 C          -1.1573  -20.1348  -43.3501 C.2       9 UNK         0.5000 
     26 O          -2.3287  -20.4111  -43.6086 O.2       9 UNK        -0.5000 
     27 CA         -0.7654  -18.6688  -43.0835 C.3       9 UNK         0.1400 
     28 CB         -0.6635  -18.3889  -41.5770 C.3       9 UNK        -0.1800 
     29 N           0.4889  -18.2974  -43.7396 N.am      9 UNK        -0.5000 
     30 C           0.6799  -18.2858  -45.0657 C.2       8 UNK         0.5000 
     31 O          -0.2062  -18.5262  -45.8797 O.2       8 UNK        -0.5000 
     32 CA          2.1078  -18.0283  -45.5718 C.3       8 UNK         0.1400 
     33 CB          2.3956  -16.5294  -45.6739 C.3       8 UNK        -0.1800 
     34 N           3.1124  -18.6648  -44.7242 N.am      8 UNK        -0.5000 
     35 C           3.3257  -19.9862  -44.6784 C.2       7 UNK         0.5000 
     36 O           2.7104  -20.8002  -45.3661 O.2       7 UNK        -0.5000 
     37 CA          4.3731  -20.4792  -43.6647 C.3       7 UNK         0.1400 
     38 CB          5.7870  -20.3859  -44.2570 C.3       7 UNK        -0.1800 
     39 N           4.3220  -19.7336  -42.4063 N.am      7 UNK        -0.5000 
     40 C           3.2990  -19.7886  -41.5426 C.2       6 UNK         0.5000 
     41 O           2.3068  -20.5003  -41.7027 O.2       6 UNK        -0.5000 
     42 CA          3.3806  -18.8558  -40.3199 C.3       6 UNK         0.1400 
     43 CB          4.2131  -19.5014  -39.2022 C.3       6 UNK        -0.1800 
     44 N           3.9195  -17.5244  -40.6233 N.am      6 UNK        -0.5000 
     45 C           3.3537  -16.6525  -41.4684 C.2       5 UNK         0.5000 
     46 O           2.3723  -16.9184  -42.1636 O.2       5 UNK        -0.5000 
     47 CA          3.9986  -15.2590  -41.5778 C.3       5 UNK         0.1400 
     48 CB          4.9266  -15.1863  -42.7999 C.3       5 UNK        -0.1800 
     49 N           2.9800  -14.2150  -41.6907 N.am      5 UNK        -0.5000 
     50 C           2.1261  -13.8786  -40.7126 C.2       4 UNK         0.5000 
     51 O           2.1662  -14.3608  -39.5784 O.2       4 UNK        -0.5000 
     52 CA          1.0600  -12.8216  -41.0692 C.3       4 UNK         0.1400 
     53 CB          0.3131  -12.2620  -39.8405 C.3       4 UNK        -0.1800 
     54 N           1.6012  -11.7392  -41.8933 N.am      4 UNK        -0.5000 
     55 C           2.5710  -10.8665  -41.5791 C.2       3 UNK         0.5000 
     56 O           3.1108  -10.8026  -40.4740 O.2       3 UNK        -0.5000 
     57 CA          3.0335   -9.9091  -42.6965 C.3       3 UNK         0.1400 
     58 CB          4.4404  -10.2931  -43.1839 C.3       3 UNK        -0.1800 
     59 N           2.1253   -9.9034  -43.8454 N.am      3 UNK        -0.5000 
     60 C           0.9972   -9.1849  -43.9283 C.2       2 UNK         0.5000 
     61 O           0.6330   -8.3810  -43.0698 O.2       2 UNK        -0.5000 
     62 CA          0.1183   -9.4195  -45.1729 C.3       2 UNK         0.1400 
     63 CB          0.4614   -8.4034  -46.2728 C.3       2 UNK        -0.1800 
     64 N           0.2465  -10.7747  -45.7167 N.am      2 UNK        -0.5000 
     65 C          -0.2342  -11.8819  -45.1308 C.2       1 UNK         0.5000 
     66 O          -0.8631  -11.8752  -44.0728 O.2       1 UNK        -0.5000 
     67 C          -1.7043  -21.1625  -47.8106 C.2       11 UNK         0.5000 
     68 O          -2.4060  -21.7618  -48.6252 O.2       11 UNK        -0.5000 
     69 N          -2.1308  -20.1210  -47.0822 N.am      12 UNK        -0.5000 
     70 CA         -3.4722  -19.5408  -47.1251 C.3       12 UNK         0.1400 
     71 CB         -3.5195  -18.2830  -46.2453 C.3       12 UNK        -0.1800 
     72 C          -4.5807  -20.5316  -46.7195 C.2       12 UNK         0.5000 
     73 O          -5.6659  -20.4996  -47.2999 O.2       12 UNK        -0.5000 
     74 N          -4.2896  -21.3936  -45.7372 N.am      13 UNK        -0.5000 
     75 CA         -5.1959  -22.4375  -45.2652 C.3       13 UNK         0.1400 
     76 CB         -4.7495  -22.9017  -43.8700 C.3       13 UNK        -0.1800 
     77 C          -5.2899  -23.6337  -46.2311 C.2       13 UNK         0.5000 
     78 O          -6.3816  -24.1746  -46.4094 O.2       13 UNK        -0.5000 
     79 N          -4.1511  -24.0408  -46.8066 N.am      14 UNK        -0.5000 
     80 CA         -4.0206  -25.2274  -47.6477 C.3       14 UNK         0.1400 
     81 CB         -2.7542  -26.0004  -47.2293 C.3       14 UNK        -0.1800 
     82 C          -4.0308  -24.8595  -49.1417 C.2       14 UNK         0.5000 
     83 O          -5.0985  -24.8231  -49.7538 O.2       14 UNK        -0.5000 
     84 N          -2.8429  -24.6349  -49.7186 N.am      15 UNK        -0.5000 
     85 CA         -2.5975  -24.5136  -51.1578 C.3       15 UNK         0.1400 
     86 CB         -1.0852  -24.4395  -51.4016 C.3       15 UNK        -0.1800 
     87 C          -3.3157  -23.3484  -51.8630 C.2       15 UNK         0.5000 
     88 O          -3.5250  -23.4275  -53.0745 O.2       15 UNK        -0.5000 
     89 N          -3.6874  -22.2977  -51.1251 N.am      16 UNK        -0.5000 
     90 CA         -4.5012  -21.1938  -51.6346 C.3       16 UNK         0.1400 
     91 CB         -4.3376  -19.9838  -50.7112 C.3       16 UNK        -0.1800 
     92 C          -5.9950  -21.5508  -51.7339 C.2       16 UNK         0.5000 
     93 O          -6.6913  -20.9877  -52.5772 O.2       16 UNK        -0.5000 
     94 N          -6.4638  -22.4535  -50.8629 N.am      17 UNK        -0.5000 
     95 CA         -7.8605  -22.8804  -50.7775 C.3       17 UNK         0.1400 
     96 CB         -8.1899  -23.2069  -49.3128 C.3       17 UNK        -0.1800 
     97 C          -8.1542  -24.0927  -51.6780 C.2       17 UNK         0.5000 
     98 O          -9.3064  -24.2844  -52.0673 O.2       17 UNK        -0.5000 
     99 N          -7.1133  -24.8827  -51.9796 N.am      18 UNK        -0.5000 
    100 CA        -7.1352  -26.0873  -52.8120 C.3       18 UNK         0.1400 
    101 CB        -5.7120  -26.6584  -52.9407 C.3       18 UNK        -0.1800 
    102 C         -7.8412  -25.9561  -54.1860 C.2       18 UNK         0.5000 
    103 O         -8.6919  -26.7960  -54.4767 O.2       18 UNK        -0.5000 
    104 N         -7.5738  -24.9447  -55.0273 N.am      19 UNK        -0.5000 
    105 CA        -6.4584  -24.0008  -55.0099 C.3       19 UNK         0.1400 
    106 CB        -6.9709  -22.6177  -55.4369 C.3       19 UNK        -0.1800 
    107 C         -5.3858  -24.4947  -55.9914 C.2       19 UNK         0.5000 
    108 O         -5.7238  -24.9615  -57.0821 O.2       19 UNK        -0.5000 
    109 N         -4.1208  -24.3781  -55.5841 N.am      20 UNK        -0.5000 
    110 CA        -2.9492  -24.8160  -56.3375 C.3       20 UNK         0.1400 
    111 CB        -2.3615  -26.0699  -55.6692 C.3       20 UNK        -0.1800 
    112 C         -1.8957  -23.7024  -56.4218 C.2       20 UNK         0.5000 
    113 O         -1.2974  -23.5223  -57.4827 O.2       20 UNK        -0.5000 
    114 N         -1.6886  -22.9672  -55.3192 N.am      21 UNK        -0.5000 
    115 CA        -0.6776  -21.9100  -55.2297 C.3       21 UNK         0.1400 
    116 CB        -0.2808  -21.7049  -53.7624 C.3       21 UNK        -0.1800 
    117 C         -1.1319  -20.5857  -55.8703 C.2       21 UNK         0.5000 
    118 O         -0.3023  -19.8830  -56.4490 O.2       21 UNK        -0.5000 
    119 N         -2.4339  -20.2877  -55.7764 N.am      22 UNK        -0.5000 
    120 CA        -3.0898  -19.1216  -56.3989 C.3       22 UNK         0.1400 
    121 C         -4.2678  -19.5352  -57.3317 C.2       22 UNK         0.5000 
    122 N         -4.3957  -20.7989  -57.7204 N.am      22 UNK        -0.7600 
    123 O         -5.0745  -18.6984  -57.7280 O.2       22 UNK        -0.5000 
    124 C124       -3.5194  -18.0480  -55.3586 C.3       23 UNK        -0.0398 
    125 S125       -2.1218  -17.3420  -54.4138 S.3       23 UNK        -0.2404 
    126 C126       -2.5908  -17.8174  -52.7254 C.3       23 UNK        -0.0205 
    127 H127        4.4111  -12.2321  -46.2838 H         1 UNK         0.0600 
    128 H128        4.5245  -13.9776  -46.0407 H         1 UNK         0.0600 
    129 H129        3.7399  -13.3387  -47.4881 H         1 UNK         0.0600 
    130 H130        1.5011  -13.3187  -47.3886 H         1 UNK         0.3000 
    131 H131        0.0523  -13.9942  -45.0413 H         1 UNK         0.0600 
    132 H132       -0.9727  -12.8597  -47.6982 H         1 UNK         0.0800 
    133 H133       -1.9963  -13.4614  -46.4250 H         1 UNK         0.0800 
    134 H134       -0.8397  -14.2199  -49.6630 H         1 UNK         0.0800 
    135 H135        0.7640  -14.6752  -49.1370 H         1 UNK         0.0800 
    136 H136       -2.1542  -15.6922  -51.0406 H         1 UNK         0.1150 
    137 H137       -0.5271  -19.4716  -52.2029 H         1 UNK         0.1150 
    138 H138        1.4245  -17.1539  -49.1764 H         1 UNK         0.1150 
    139 H139        2.0761  -19.6565  -51.5675 H         1 UNK         0.0800 
    140 H140        2.4501  -19.1985  -49.9250 H         1 UNK         0.0800 
    141 H141        1.7770  -20.9502  -47.7863 H         1 UNK         0.0800 
    142 H142        0.5867  -19.7107  -48.0668 H         1 UNK         0.0800 
    143 H143       -0.1875  -22.6657  -47.9412 H         1 UNK         0.0600 
    144 H144        0.7611  -21.2240  -45.7268 H         1 UNK         0.3000 
    145 H145       -1.1610  -22.8561  -43.1775 H         1 UNK         0.0600 
    146 H146        1.1456  -23.1871  -42.3306 H         1 UNK         0.0600 
    147 H147        0.8182  -24.2847  -43.6639 H         1 UNK         0.0600 
    148 H148        1.8111  -22.8574  -43.9273 H         1 UNK         0.0600 
    149 H149        0.7620  -20.7472  -43.0586 H         1 UNK         0.3000 
    150 H150       -1.5532  -18.0338  -43.4932 H         1 UNK         0.0600 
    151 H151       -1.6050  -18.6135  -41.0746 H         1 UNK         0.0600 
    152 H152       -0.4329  -17.3406  -41.3856 H         1 UNK         0.0600 
    153 H153        0.1121  -18.9925  -41.1060 H         1 UNK         0.0600 
    154 H154        1.2542  -18.0071  -43.1351 H         1 UNK         0.3000 
    155 H155        2.1913  -18.4520  -46.5747 H         1 UNK         0.0600 
    156 H156        3.4183  -16.3422  -46.0007 H         1 UNK         0.0600 
    157 H157        2.2429  -16.0221  -44.7210 H         1 UNK         0.0600 
    158 H158        1.7329  -16.0659  -46.4034 H         1 UNK         0.0600 
    159 H159        3.6121  -18.0681  -44.0825 H         1 UNK         0.3000 
    160 H160        4.1605  -21.5287  -43.4499 H         1 UNK         0.0600 
    161 H161        6.0682  -19.3543  -44.4727 H         1 UNK         0.0600 
    162 H162        5.8563  -20.9471  -45.1899 H         1 UNK         0.0600 
    163 H163        6.5284  -20.8005  -43.5739 H         1 UNK         0.0600 
    164 H164        5.0981  -19.1221  -42.1997 H         1 UNK         0.3000 
    165 H165        2.3633  -18.7198  -39.9469 H         1 UNK         0.0600 
    166 H166        5.2557  -19.6278  -39.4967 H         1 UNK         0.0600 
    167 H167        4.1908  -18.8977  -38.2948 H         1 UNK         0.0600 
    168 H168        3.8229  -20.4870  -38.9443 H         1 UNK         0.0600 
    169 H169        4.7309  -17.2380  -40.0946 H         1 UNK         0.3000 
    170 H170        4.5878  -15.0669  -40.6789 H         1 UNK         0.0600 
    171 H171        5.7162  -15.9363  -42.7391 H         1 UNK         0.0600 
    172 H172        4.3832  -15.3544  -43.7296 H         1 UNK         0.0600 
    173 H173        5.4084  -14.2108  -42.8699 H         1 UNK         0.0600 
    174 H174        2.8611  -13.7922  -42.6068 H         1 UNK         0.3000 
    175 H175        0.3259  -13.3349  -41.6920 H         1 UNK         0.0600 
    176 H176       -0.4370  -11.5288  -40.1370 H         1 UNK         0.0600 
    177 H177       -0.2059  -13.0574  -39.3046 H         1 UNK         0.0600 
    178 H178        0.9915  -11.7822  -39.1348 H         1 UNK         0.0600 
    179 H179        1.2577  -11.7172  -42.8435 H         1 UNK         0.3000 
    180 H180        3.0823   -8.9041  -42.2721 H         1 UNK         0.0600 
    181 H181        4.7917   -9.6088  -43.9563 H         1 UNK         0.0600 
    182 H182        5.1607  -10.2552  -42.3657 H         1 UNK         0.0600 
    183 H183        4.4653  -11.3037  -43.5931 H         1 UNK         0.0600 
    184 H184        2.3364  -10.5575  -44.5847 H         1 UNK         0.3000 
    185 H185       -0.9217   -9.2650  -44.8773 H         1 UNK         0.0600 
    186 H186       -0.2007   -8.5132  -47.1318 H         1 UNK         0.0600 
    187 H187        0.3513   -7.3813  -45.9080 H         1 UNK         0.0600 
    188 H188        1.4883   -8.5183  -46.6222 H         1 UNK         0.0600 
    189 H189        0.7618  -10.8701  -46.5798 H         1 UNK         0.3000 
    190 H190       -1.4596  -19.6463  -46.4802 H         1 UNK         0.3000 
    191 H191       -3.6514  -19.2196  -48.1488 H         1 UNK         0.0600 
    192 H192       -4.4954  -17.8003  -46.3075 H         1 UNK         0.0600 
    193 H193       -2.7753  -17.5525  -46.5624 H         1 UNK         0.0600 
    194 H194       -3.3350  -18.5151  -45.1971 H         1 UNK         0.0600 
    195 H195       -3.3931  -21.3165  -45.2711 H         1 UNK         0.3000 
    196 H196       -6.1956  -22.0082  -45.1699 H         1 UNK         0.0600 
    197 H197       -5.4243  -23.6631  -43.4770 H         1 UNK         0.0600 
    198 H198       -4.7456  -22.0727  -43.1620 H         1 UNK         0.0600 
    199 H199       -3.7465  -23.3289  -43.8881 H         1 UNK         0.0600 
    200 H200       -3.2901  -23.5529  -46.5787 H         1 UNK         0.3000 
    201 H201       -4.8685  -25.8960  -47.4849 H         1 UNK         0.0600 
    202 H202       -2.8353  -26.3461  -46.1986 H         1 UNK         0.0600 
    203 H203       -1.8529  -25.3908  -47.2977 H         1 UNK         0.0600 
    204 H204       -2.6079  -26.8824  -47.8543 H         1 UNK         0.0600 
    205 H205       -2.0248  -24.6345  -49.1286 H         1 UNK         0.3000 
    206 H206       -2.9652  -25.4320  -51.6198 H         1 UNK         0.0600 
    207 H207       -0.5664  -25.2804  -50.9413 H         1 UNK         0.0600 
    208 H208       -0.8636  -24.4736  -52.4686 H         1 UNK         0.0600 
    209 H209       -0.6592  -23.5196  -50.9996 H         1 UNK         0.0600 
    210 H210       -3.3952  -22.2521  -50.1507 H         1 UNK         0.3000 
    211 H211       -4.1458  -20.9226  -52.6307 H         1 UNK         0.0600 
    212 H212       -4.8263  -20.1671  -49.7569 H         1 UNK         0.0600 
    213 H213       -4.7992  -19.0951  -51.1424 H         1 UNK         0.0600 
    214 H214       -3.2880  -19.7597  -50.5201 H         1 UNK         0.0600 
    215 H215       -5.8157  -22.9152  -50.2356 H         1 UNK         0.3000 
    216 H216       -8.5117  -22.0631  -51.0948 H         1 UNK         0.0600 
    217 H217       -9.2420  -23.4704  -49.1982 H         1 UNK         0.0600 
    218 H218       -7.9944  -22.3530  -48.6634 H         1 UNK         0.0600 
    219 H219       -7.5999  -24.0469  -48.9445 H         1 UNK         0.0600 
    220 H220       -6.2375  -24.6801  -51.5132 H         1 UNK         0.3000 
    221 H221       -7.7152  -26.8202  -52.2476 H         1 UNK         0.0600 
    222 H222       -5.0065  -25.9306  -53.3375 H         1 UNK         0.0600 
    223 H223       -5.3346  -26.9820  -51.9703 H         1 UNK         0.0600 
    224 H224       -5.6942  -27.5272  -53.6000 H         1 UNK         0.0600 
    225 H225       -8.0795  -24.9429  -55.9007 H         1 UNK         0.3000 
    226 H226       -6.0204  -23.9034  -54.0199 H         1 UNK         0.0600 
    227 H227       -7.7656  -22.2729  -54.7751 H         1 UNK         0.0600 
    228 H228       -6.1714  -21.8767  -55.3971 H         1 UNK         0.0600 
    229 H229       -7.3637  -22.6245  -56.4545 H         1 UNK         0.0600 
    230 H230       -3.9391  -23.9821  -54.6626 H         1 UNK         0.3000 
    231 H231       -3.2272  -25.0723  -57.3620 H         1 UNK         0.0600 
    232 H232       -1.4747  -26.4181  -56.2002 H         1 UNK         0.0600 
    233 H233       -3.0826  -26.8875  -55.6682 H         1 UNK         0.0600 
    234 H234       -2.0737  -25.8784  -54.6345 H         1 UNK         0.0600 
    235 H235       -2.2264  -23.1607  -54.4816 H         1 UNK         0.3000 
    236 H236        0.2172  -22.2363  -55.7648 H         1 UNK         0.0600 
    237 H237       -1.1434  -21.4682  -53.1389 H         1 UNK         0.0600 
    238 H238        0.4415  -20.8935  -53.6674 H         1 UNK         0.0600 
    239 H239        0.1961  -22.5961  -53.3576 H         1 UNK         0.0600 
    240 H240       -3.0433  -20.9315  -55.2949 H         1 UNK         0.3000 
    241 H241       -2.3845  -18.6381  -57.0767 H         1 UNK         0.0600 
    242 H242       -5.1553  -21.0477  -58.3344 H         1 UNK         0.3800 
    243 H243       -3.7018  -21.4858  -57.4772 H         1 UNK         0.3800 
    244 H244       -4.2635  -18.4635  -54.6773 H         1 UNK         0.0800 
    245 H245       -4.0092  -17.2104  -55.8578 H         1 UNK         0.0800 
    246 H246       -2.8606  -18.8723  -52.7361 H         1 UNK         0.0800 
    247 H247       -3.4802  -17.2640  -52.4206 H         1 UNK         0.0800 
@<TRIPOS>BOND
     1    1    2 1    
     2    1  127 1    
     3    1  128 1    
     4    1  129 1    
     5    2    3 2    
     6    2    4 am   BACKBONE|DICT|INTERRES
     7    4    5 1    
     8    4  130 1    
     9    5    6 1    
    10    5   65 1    
    11    5  131 1    
    12    6    7 1    
    13    6  132 1    
    14    6  133 1    
    15    7    8 1    
    16    8    9 1    
    17    8  134 1    
    18    8  135 1    
    19    9   10 ar   
    20    9   14 ar   
    21   10   11 ar   
    22   10  136 1    
    23   11   12 ar   
    24   11  126 1    
    25   12   13 ar   
    26   12  137 1    
    27   13   14 ar   
    28   13   15 1    
    29   14  138 1    
    30   15   16 1    
    31   15  139 1    
    32   15  140 1    
    33   16   17 1    
    34   17   18 1    
    35   17  141 1    
    36   17  142 1    
    37   18   19 1    
    38   18   67 1    
    39   18  143 1    
    40   19   20 am   BACKBONE|DICT|INTERRES
    41   19  144 1    
    42   20   21 2    
    43   20   22 1    
    44   22   23 1    
    45   22   24 1    
    46   22  145 1    
    47   23  146 1    
    48   23  147 1    
    49   23  148 1    
    50   24   25 am   BACKBONE|DICT|INTERRES
    51   24  149 1    
    52   25   26 2    
    53   25   27 1    
    54   27   28 1    
    55   27   29 1    
    56   27  150 1    
    57   28  151 1    
    58   28  152 1    
    59   28  153 1    
    60   29   30 am   BACKBONE|DICT|INTERRES
    61   29  154 1    
    62   30   31 2    
    63   30   32 1    
    64   32   33 1    
    65   32   34 1    
    66   32  155 1    
    67   33  156 1    
    68   33  157 1    
    69   33  158 1    
    70   34   35 am   BACKBONE|DICT|INTERRES
    71   34  159 1    
    72   35   36 2    
    73   35   37 1    
    74   37   38 1    
    75   37   39 1    
    76   37  160 1    
    77   38  161 1    
    78   38  162 1    
    79   38  163 1    
    80   39   40 am   BACKBONE|DICT|INTERRES
    81   39  164 1    
    82   40   41 2    
    83   40   42 1    
    84   42   43 1    
    85   42   44 1    
    86   42  165 1    
    87   43  166 1    
    88   43  167 1    
    89   43  168 1    
    90   44   45 am   BACKBONE|DICT|INTERRES
    91   44  169 1    
    92   45   46 2    
    93   45   47 1    
    94   47   48 1    
    95   47   49 1    
    96   47  170 1    
    97   48  171 1    
    98   48  172 1    
    99   48  173 1    
   100   49   50 am   BACKBONE|DICT|INTERRES
   101   49  174 1    
   102   50   51 2    
   103   50   52 1    
   104   52   53 1    
   105   52   54 1    
   106   52  175 1    
   107   53  176 1    
   108   53  177 1    
   109   53  178 1    
   110   54   55 am   BACKBONE|DICT|INTERRES
   111   54  179 1    
   112   55   56 2    
   113   55   57 1    
   114   57   58 1    
   115   57   59 1    
   116   57  180 1    
   117   58  181 1    
   118   58  182 1    
   119   58  183 1    
   120   59   60 am   BACKBONE|DICT|INTERRES
   121   59  184 1    
   122   60   61 2    
   123   60   62 1    
   124   62   63 1    
   125   62   64 1    
   126   62  185 1    
   127   63  186 1    
   128   63  187 1    
   129   63  188 1    
   130   64   65 am   BACKBONE|DICT|INTERRES
   131   64  189 1    
   132   65   66 2    
   133   67   68 2    
   134   67   69 am   BACKBONE|DICT|INTERRES
   135   69   70 1    
   136   69  190 1    
   137   70   71 1    
   138   70   72 1    
   139   70  191 1    
   140   71  192 1    
   141   71  193 1    
   142   71  194 1    
   143   72   73 2    
   144   72   74 am   BACKBONE|DICT|INTERRES
   145   74   75 1    
   146   74  195 1    
   147   75   76 1    
   148   75   77 1    
   149   75  196 1    
   150   76  197 1    
   151   76  198 1    
   152   76  199 1    
   153   77   78 2    
   154   77   79 am   BACKBONE|DICT|INTERRES
   155   79   80 1    
   156   79  200 1    
   157   80   81 1    
   158   80   82 1    
   159   80  201 1    
   160   81  202 1    
   161   81  203 1    
   162   81  204 1    
   163   82   83 2    
   164   82   84 am   BACKBONE|DICT|INTERRES
   165   84   85 1    
   166   84  205 1    
   167   85   86 1    
   168   85   87 1    
   169   85  206 1    
   170   86  207 1    
   171   86  208 1    
   172   86  209 1    
   173   87   88 2    
   174   87   89 am   BACKBONE|DICT|INTERRES
   175   89   90 1    
   176   89  210 1    
   177   90   91 1    
   178   90   92 1    
   179   90  211 1    
   180   91  212 1    
   181   91  213 1    
   182   91  214 1    
   183   92   93 2    
   184   92   94 am   BACKBONE|DICT|INTERRES
   185   94   95 1    
   186   94  215 1    
   187   95   96 1    
   188   95   97 1    
   189   95  216 1    
   190   96  217 1    
   191   96  218 1    
   192   96  219 1    
   193   97   98 2    
   194   97   99 am   BACKBONE|DICT|INTERRES
   195   99  100 1    
   196   99  220 1    
   197  100  101 1    
   198  100  102 1    
   199  100  221 1    
   200  101  222 1    
   201  101  223 1    
   202  101  224 1    
   203  102  103 2    
   204  102  104 am   BACKBONE|DICT|INTERRES
   205  104  105 1    
   206  104  225 1    
   207  105  106 1    
   208  105  107 1    
   209  105  226 1    
   210  106  227 1    
   211  106  228 1    
   212  106  229 1    
   213  107  108 2    
   214  107  109 am   BACKBONE|DICT|INTERRES
   215  109  110 1    
   216  109  230 1    
   217  110  111 1    
   218  110  112 1    
   219  110  231 1    
   220  111  232 1    
   221  111  233 1    
   222  111  234 1    
   223  112  113 2    
   224  112  114 am   BACKBONE|DICT|INTERRES
   225  114  115 1    
   226  114  235 1    
   227  115  116 1    
   228  115  117 1    
   229  115  236 1    
   230  116  237 1    
   231  116  238 1    
   232  116  239 1    
   233  117  118 2    
   234  117  119 am   BACKBONE|DICT|INTERRES
   235  119  120 1    
   236  119  240 1    
   237  120  121 1    
   238  120  124 1    
   239  120  241 1    
   240  121  122 am   BACKBONE|DICT|INTERRES
   241  121  123 2    
   242  122  242 1    
   243  122  243 1    
   244  124  125 1    
   245  124  244 1    
   246  124  245 1    
   247  125  126 1    
   248  126  246 1    
   249  126  247 1    
@<TRIPOS>SUBSTRUCTURE
     1 UNK         1 GROUP             0       ****    0 ROOT    
