@<TRIPOS>MOLECULE
3R540
247   249    1
SMALL
USER_CHARGES


@<TRIPOS>ATOM
      1 CA         -1.5708  -11.5726  -52.5391 C.3       0 UNK        -0.1800 
      2 C          -0.8055  -12.0835  -51.3269 C.2       0 UNK         0.5000 
      3 O          -0.9225  -11.5108  -50.2439 O.2       0 UNK        -0.5000 
      4 N          -0.0348  -13.1676  -51.5003 N.am      1 UNK        -0.5000 
      5 CA          0.8112  -13.7923  -50.4701 C.3       1 UNK         0.1400 
      6 C6          1.6841  -14.9286  -51.0690 C.3       23 UNK        -0.0398 
      7 S7          3.3360  -15.1043  -50.3002 S.3       23 UNK        -0.2404 
      8 C8          3.0913  -16.2277  -48.8809 C.3       23 UNK        -0.0205 
      9 C9          2.6056  -17.6151  -49.2718 C.ar      23 UNK        -0.0193 
     10 C10         1.2384  -17.8695  -49.4030 C.ar      23 UNK        -0.1150 
     11 C11         0.7762  -19.1442  -49.7286 C.ar      23 UNK        -0.0193 
     12 C12         1.6943  -20.1873  -49.8739 C.ar      23 UNK        -0.1150 
     13 C13         3.0647  -19.9555  -49.7233 C.ar      23 UNK        -0.0193 
     14 C14         3.5160  -18.6609  -49.4455 C.ar      23 UNK        -0.1150 
     15 C15         4.0462  -21.1168  -49.8265 C.3       23 UNK        -0.0205 
     16 S16         5.0773  -21.3265  -48.3321 S.3       23 UNK        -0.2404 
     17 C17         3.8493  -21.3152  -46.9779 C.3       23 UNK        -0.0398 
     18 CA          3.5307  -22.7056  -46.3823 C.3       11 UNK         0.1400 
     19 N           2.8117  -22.5737  -45.1139 N.am      11 UNK        -0.5000 
     20 C           2.5938  -23.5561  -44.2292 C.2       10 UNK         0.5000 
     21 O           2.9896  -24.7127  -44.3762 O.2       10 UNK        -0.5000 
     22 CA          1.8162  -23.1767  -42.9550 C.3       10 UNK         0.1400 
     23 CB          2.7629  -22.5901  -41.8966 C.3       10 UNK        -0.1800 
     24 N           0.7471  -22.2185  -43.2340 N.am      10 UNK        -0.5000 
     25 C          -0.4471  -22.5514  -43.7421 C.2       9 UNK         0.5000 
     26 O          -0.8183  -23.7130  -43.9005 O.2       9 UNK        -0.5000 
     27 CA         -1.3937  -21.4029  -44.1407 C.3       9 UNK         0.1400 
     28 CB         -2.3858  -21.0997  -43.0087 C.3       9 UNK        -0.1800 
     29 N          -0.7014  -20.1712  -44.5169 N.am      9 UNK        -0.5000 
     30 C           0.0872  -20.0281  -45.5905 C.2       8 UNK         0.5000 
     31 O           0.3229  -20.9262  -46.3996 O.2       8 UNK        -0.5000 
     32 CA          0.7777  -18.6609  -45.7420 C.3       8 UNK         0.1400 
     33 CB         -0.1864  -17.6161  -46.3225 C.3       8 UNK        -0.1800 
     34 N           1.3191  -18.1731  -44.4725 N.am      8 UNK        -0.5000 
     35 C           2.3209  -18.7574  -43.8012 C.2       7 UNK         0.5000 
     36 O           2.9222  -19.7517  -44.2043 O.2       7 UNK        -0.5000 
     37 CA          2.6681  -18.1689  -42.4228 C.3       7 UNK         0.1400 
     38 CB          3.5947  -16.9537  -42.5577 C.3       7 UNK        -0.1800 
     39 N           1.4706  -17.7954  -41.6698 N.am      7 UNK        -0.5000 
     40 C           0.6240  -18.6877  -41.1357 C.2       6 UNK         0.5000 
     41 O           0.7932  -19.9052  -41.1926 O.2       6 UNK        -0.5000 
     42 CA         -0.6441  -18.1357  -40.4584 C.3       6 UNK         0.1400 
     43 CB         -0.3785  -17.8437  -38.9743 C.3       6 UNK        -0.1800 
     44 N          -1.1780  -16.9321  -41.0982 N.am      6 UNK        -0.5000 
     45 C          -1.5882  -16.8512  -42.3711 C.2       5 UNK         0.5000 
     46 O          -1.5439  -17.7954  -43.1589 O.2       5 UNK        -0.5000 
     47 CA         -2.1281  -15.4940  -42.8586 C.3       5 UNK         0.1400 
     48 CB         -2.5695  -14.5515  -41.7171 C.3       5 UNK        -0.1800 
     49 N          -1.1972  -14.7983  -43.7503 N.am      5 UNK        -0.5000 
     50 C           0.0671  -14.4227  -43.4928 C.2       4 UNK         0.5000 
     51 O           0.6921  -14.7762  -42.4915 O.2       4 UNK        -0.5000 
     52 CA          0.7550  -13.4794  -44.5085 C.3       4 UNK         0.1400 
     53 CB          1.9447  -14.1711  -45.1918 C.3       4 UNK        -0.1800 
     54 N          -0.1493  -12.9601  -45.5386 N.am      4 UNK        -0.5000 
     55 C          -1.1167  -12.0513  -45.3319 C.2       3 UNK         0.5000 
     56 O          -1.2747  -11.4641  -44.2612 O.2       3 UNK        -0.5000 
     57 CA         -2.1013  -11.7742  -46.4913 C.3       3 UNK         0.1400 
     58 CB         -1.7694  -10.4356  -47.1669 C.3       3 UNK        -0.1800 
     59 N          -2.1361  -12.8264  -47.5116 N.am      3 UNK        -0.5000 
     60 C          -2.4735  -14.1076  -47.2953 C.2       2 UNK         0.5000 
     61 O          -2.9097  -14.5180  -46.2193 O.2       2 UNK        -0.5000 
     62 CA         -2.2094  -15.1190  -48.4322 C.3       2 UNK         0.1400 
     63 CB         -3.5211  -15.5465  -49.1018 C.3       2 UNK        -0.1800 
     64 N          -1.2629  -14.6699  -49.4608 N.am      2 UNK        -0.5000 
     65 C           0.0035  -14.2793  -49.2447 C.2       1 UNK         0.5000 
     66 O           0.5106  -14.2427  -48.1246 O.2       1 UNK        -0.5000 
     67 C           2.7783  -23.6110  -47.3798 C.2       11 UNK         0.5000 
     68 O           3.3723  -24.5512  -47.9111 O.2       11 UNK        -0.5000 
     69 N           1.4875  -23.3308  -47.6067 N.am      12 UNK        -0.5000 
     70 CA          0.6148  -24.1603  -48.4348 C.3       12 UNK         0.1400 
     71 CB         -0.6165  -23.3494  -48.8666 C.3       12 UNK        -0.1800 
     72 C           0.1868  -25.4245  -47.6743 C.2       12 UNK         0.5000 
     73 O          -0.3851  -25.3126  -46.5906 O.2       12 UNK        -0.5000 
     74 N           0.4133  -26.6022  -48.2711 N.am      13 UNK        -0.5000 
     75 CA          0.0447  -27.9047  -47.7012 C.3       13 UNK         0.1400 
     76 CB          0.6446  -29.0210  -48.5695 C.3       13 UNK        -0.1800 
     77 C          -1.4775  -28.1021  -47.5437 C.2       13 UNK         0.5000 
     78 O          -1.9096  -28.8184  -46.6404 O.2       13 UNK        -0.5000 
     79 N          -2.2542  -27.4410  -48.4112 N.am      14 UNK        -0.5000 
     80 CA         -3.7173  -27.4063  -48.3921 C.3       14 UNK         0.1400 
     81 CB         -4.2189  -27.5367  -49.8412 C.3       14 UNK        -0.1800 
     82 C          -4.2637  -26.1223  -47.7306 C.2       14 UNK         0.5000 
     83 O          -5.4549  -25.8409  -47.8631 O.2       14 UNK        -0.5000 
     84 N          -3.3922  -25.3324  -47.0832 N.am      15 UNK        -0.5000 
     85 CA         -3.6199  -24.0364  -46.4236 C.3       15 UNK         0.1400 
     86 CB         -4.6444  -24.1530  -45.2799 C.3       15 UNK        -0.1800 
     87 C          -3.9694  -22.8642  -47.3656 C.2       15 UNK         0.5000 
     88 O          -3.6679  -21.7201  -47.0249 O.2       15 UNK        -0.5000 
     89 N          -4.5680  -23.1566  -48.5282 N.am      16 UNK        -0.5000 
     90 CA         -4.9302  -22.2751  -49.6458 C.3       16 UNK         0.1400 
     91 CB         -3.6889  -21.5677  -50.2191 C.3       16 UNK        -0.1800 
     92 C          -6.0482  -21.2633  -49.3323 C.2       16 UNK         0.5000 
     93 O          -7.0055  -21.1701  -50.1007 O.2       16 UNK        -0.5000 
     94 N          -5.9062  -20.5246  -48.2243 N.am      17 UNK        -0.5000 
     95 CA         -6.7691  -19.4657  -47.6827 C.3       17 UNK         0.1400 
     96 CB         -8.1765  -19.9988  -47.3548 C.3       17 UNK        -0.1800 
     97 C          -6.8415  -18.1880  -48.5449 C.2       17 UNK         0.5000 
     98 O          -6.7427  -17.0896  -47.9975 O.2       17 UNK        -0.5000 
     99 N          -6.9958  -18.3454  -49.8623 N.am      18 UNK        -0.5000 
    100 CA        -6.9521  -17.2863  -50.8635 C.3       18 UNK         0.1400 
    101 CB        -8.1466  -17.4556  -51.8149 C.3       18 UNK        -0.1800 
    102 C         -5.6381  -17.3934  -51.6482 C.2       18 UNK         0.5000 
    103 O         -5.1605  -18.5033  -51.8948 O.2       18 UNK        -0.5000 
    104 N         -5.1004  -16.2424  -52.0744 N.am      19 UNK        -0.5000 
    105 CA        -3.8462  -16.1425  -52.8299 C.3       19 UNK         0.1400 
    106 CB        -3.4507  -14.6653  -52.9705 C.3       19 UNK        -0.1800 
    107 C         -3.9034  -16.8227  -54.2102 C.2       19 UNK         0.5000 
    108 O         -2.8816  -17.3090  -54.6921 O.2       19 UNK        -0.5000 
    109 N         -5.1039  -16.8999  -54.7998 N.am      20 UNK        -0.5000 
    110 CA        -5.3809  -17.5935  -56.0599 C.3       20 UNK         0.1400 
    111 CB        -6.8353  -17.3117  -56.4672 C.3       20 UNK        -0.1800 
    112 C         -5.1210  -19.1147  -56.0114 C.2       20 UNK         0.5000 
    113 O         -4.9275  -19.7232  -57.0643 O.2       20 UNK        -0.5000 
    114 N         -5.1129  -19.6981  -54.8047 N.am      21 UNK        -0.5000 
    115 CA        -4.8606  -21.1170  -54.5632 C.3       21 UNK         0.1400 
    116 CB        -5.8141  -21.6020  -53.4581 C.3       21 UNK        -0.1800 
    117 C         -3.3855  -21.4248  -54.2267 C.2       21 UNK         0.5000 
    118 O         -3.0743  -22.5881  -53.9655 O.2       21 UNK        -0.5000 
    119 N         -2.4983  -20.4190  -54.2443 N.am      22 UNK        -0.5000 
    120 CA        -1.0588  -20.5892  -53.9728 C.3       22 UNK         0.1400 
    121 C         -0.1095  -19.6877  -54.8110 C.2       22 UNK         0.5000 
    122 N         -0.5596  -18.5977  -55.4169 N.am      22 UNK        -0.7600 
    123 O          1.0684  -20.0076  -54.9476 O.2       22 UNK        -0.5000 
    124 C124       -0.7203  -20.5586  -52.4596 C.3       23 UNK        -0.0398 
    125 S125       -1.2608  -19.0376  -51.6049 S.3       23 UNK        -0.2404 
    126 C126       -0.7149  -19.3851  -49.9050 C.3       23 UNK        -0.0205 
    127 H127       -1.2897  -10.5412  -52.7514 H         1 UNK         0.0600 
    128 H128       -2.6430  -11.6012  -52.3450 H         1 UNK         0.0600 
    129 H129       -1.3692  -12.1696  -53.4287 H         1 UNK         0.0600 
    130 H130        0.0156  -13.5844  -52.4190 H         1 UNK         0.3000 
    131 H131        1.4760  -13.0030  -50.1124 H         1 UNK         0.0600 
    132 H132        1.8989  -14.6977  -52.1133 H         1 UNK         0.0800 
    133 H133        1.1555  -15.8791  -51.1131 H         1 UNK         0.0800 
    134 H134        4.0441  -16.3151  -48.3568 H         1 UNK         0.0800 
    135 H135        2.4126  -15.7876  -48.1544 H         1 UNK         0.0800 
    136 H136        0.5254  -17.0737  -49.2526 H         1 UNK         0.1150 
    137 H137        1.3429  -21.1829  -50.0979 H         1 UNK         0.1150 
    138 H138        4.5748  -18.4779  -49.3267 H         1 UNK         0.1150 
    139 H139        3.5183  -22.0526  -50.0165 H         1 UNK         0.0800 
    140 H140        4.6980  -20.9532  -50.6854 H         1 UNK         0.0800 
    141 H141        2.9329  -20.8064  -47.2740 H         1 UNK         0.0800 
    142 H142        4.2847  -20.6871  -46.2006 H         1 UNK         0.0800 
    143 H143        4.4811  -23.1932  -46.1545 H         1 UNK         0.0600 
    144 H144        2.4980  -21.6388  -44.8788 H         1 UNK         0.3000 
    145 H145        1.3785  -24.0892  -42.5444 H         1 UNK         0.0600 
    146 H146        2.2313  -22.3770  -40.9690 H         1 UNK         0.0600 
    147 H147        3.5647  -23.2903  -41.6588 H         1 UNK         0.0600 
    148 H148        3.2258  -21.6631  -42.2359 H         1 UNK         0.0600 
    149 H149        0.9457  -21.2431  -43.0539 H         1 UNK         0.3000 
    150 H150       -1.9608  -21.7346  -45.0101 H         1 UNK         0.0600 
    151 H151       -2.9558  -21.9900  -42.7402 H         1 UNK         0.0600 
    152 H152       -3.1009  -20.3325  -43.3061 H         1 UNK         0.0600 
    153 H153       -1.8736  -20.7524  -42.1112 H         1 UNK         0.0600 
    154 H154       -0.8770  -19.3558  -43.9342 H         1 UNK         0.3000 
    155 H155        1.6050  -18.7866  -46.4438 H         1 UNK         0.0600 
    156 H156        0.3487  -16.7297  -46.6598 H         1 UNK         0.0600 
    157 H157       -0.9395  -17.2988  -45.6031 H         1 UNK         0.0600 
    158 H158       -0.7194  -18.0186  -47.1811 H         1 UNK         0.0600 
    159 H159        0.8297  -17.4070  -44.0345 H         1 UNK         0.3000 
    160 H160        3.2037  -18.9373  -41.8608 H         1 UNK         0.0600 
    161 H161        3.0992  -16.1282  -43.0651 H         1 UNK         0.0600 
    162 H162        4.4898  -17.2041  -43.1287 H         1 UNK         0.0600 
    163 H163        3.9203  -16.5972  -41.5804 H         1 UNK         0.0600 
    164 H164        1.2441  -16.8092  -41.6171 H         1 UNK         0.3000 
    165 H165       -1.4120  -18.9091  -40.5209 H         1 UNK         0.0600 
    166 H166       -1.2918  -17.5409  -38.4617 H         1 UNK         0.0600 
    167 H167        0.0006  -18.7300  -38.4637 H         1 UNK         0.0600 
    168 H168        0.3587  -17.0500  -38.8460 H         1 UNK         0.0600 
    169 H169       -1.2196  -16.0987  -40.5301 H         1 UNK         0.3000 
    170 H170       -3.0123  -15.7193  -43.4569 H         1 UNK         0.0600 
    171 H171       -3.2901  -15.0388  -41.0589 H         1 UNK         0.0600 
    172 H172       -1.7302  -14.2171  -41.1064 H         1 UNK         0.0600 
    173 H173       -3.0545  -13.6614  -42.1186 H         1 UNK         0.0600 
    174 H174       -1.6044  -14.5121  -44.6341 H         1 UNK         0.3000 
    175 H175        1.1418  -12.6281  -43.9450 H         1 UNK         0.0600 
    176 H176        1.6547  -15.1109  -45.6597 H         1 UNK         0.0600 
    177 H177        2.3834  -13.5368  -45.9624 H         1 UNK         0.0600 
    178 H178        2.7331  -14.3875  -44.4724 H         1 UNK         0.0600 
    179 H179       -0.0583  -13.3787  -46.4604 H         1 UNK         0.3000 
    180 H180       -3.1007  -11.7019  -46.0579 H         1 UNK         0.0600 
    181 H181       -2.4922  -10.1962  -47.9471 H         1 UNK         0.0600 
    182 H182       -0.7784  -10.4525  -47.6223 H         1 UNK         0.0600 
    183 H183       -1.7862   -9.6173  -46.4459 H         1 UNK         0.0600 
    184 H184       -1.7658  -12.5737  -48.4199 H         1 UNK         0.3000 
    185 H185       -1.7758  -16.0027  -47.9649 H         1 UNK         0.0600 
    186 H186       -3.9803  -14.7252  -49.6522 H         1 UNK         0.0600 
    187 H187       -3.3530  -16.3734  -49.7911 H         1 UNK         0.0600 
    188 H188       -4.2449  -15.8903  -48.3618 H         1 UNK         0.0600 
    189 H189       -1.6104  -14.6349  -50.4068 H         1 UNK         0.3000 
    190 H190        1.0516  -22.5548  -47.1139 H         1 UNK         0.3000 
    191 H191        1.1538  -24.4557  -49.3376 H         1 UNK         0.0600 
    192 H192       -1.3798  -23.9888  -49.3122 H         1 UNK         0.0600 
    193 H193       -0.3495  -22.6081  -49.6157 H         1 UNK         0.0600 
    194 H194       -1.0716  -22.8287  -48.0237 H         1 UNK         0.0600 
    195 H195        0.8925  -26.6203  -49.1601 H         1 UNK         0.3000 
    196 H196        0.4877  -27.9710  -46.7052 H         1 UNK         0.0600 
    197 H197        0.2572  -28.9910  -49.5887 H         1 UNK         0.0600 
    198 H198        1.7307  -28.9418  -48.6195 H         1 UNK         0.0600 
    199 H199        0.4108  -30.0040  -48.1584 H         1 UNK         0.0600 
    200 H200       -1.8024  -26.8836  -49.1213 H         1 UNK         0.3000 
    201 H201       -4.1064  -28.2521  -47.8218 H         1 UNK         0.0600 
    202 H202       -3.9077  -26.6893  -50.4533 H         1 UNK         0.0600 
    203 H203       -5.3078  -27.5884  -49.8796 H         1 UNK         0.0600 
    204 H204       -3.8389  -28.4454  -50.3086 H         1 UNK         0.0600 
    205 H205       -2.4297  -25.6468  -47.0322 H         1 UNK         0.3000 
    206 H206       -2.6602  -23.7822  -45.9736 H         1 UNK         0.0600 
    207 H207       -4.3590  -24.9336  -44.5748 H         1 UNK         0.0600 
    208 H208       -4.7075  -23.2187  -44.7204 H         1 UNK         0.0600 
    209 H209       -5.6453  -24.3791  -45.6480 H         1 UNK         0.0600 
    210 H210       -4.8639  -24.1214  -48.6326 H         1 UNK         0.3000 
    211 H211       -5.3159  -22.9336  -50.4257 H         1 UNK         0.0600 
    212 H212       -3.9392  -20.9628  -51.0900 H         1 UNK         0.0600 
    213 H213       -2.9354  -22.2895  -50.5315 H         1 UNK         0.0600 
    214 H214       -3.2359  -20.8963  -49.4911 H         1 UNK         0.0600 
    215 H215       -5.0632  -20.7108  -47.6844 H         1 UNK         0.3000 
    216 H216       -6.3059  -19.1751  -46.7384 H         1 UNK         0.0600 
    217 H217       -8.7716  -19.2365  -46.8505 H         1 UNK         0.0600 
    218 H218       -8.7217  -20.2944  -48.2514 H         1 UNK         0.0600 
    219 H219       -8.1259  -20.8629  -46.6924 H         1 UNK         0.0600 
    220 H220       -7.0172  -19.2974  -50.2192 H         1 UNK         0.3000 
    221 H221       -7.0105  -16.3037  -50.3909 H         1 UNK         0.0600 
    222 H222       -9.0910  -17.3921  -51.2739 H         1 UNK         0.0600 
    223 H223       -8.1201  -18.4182  -52.3281 H         1 UNK         0.0600 
    224 H224       -8.1558  -16.6757  -52.5773 H         1 UNK         0.0600 
    225 H225       -5.5652  -15.3725  -51.8577 H         1 UNK         0.3000 
    226 H226       -3.0693  -16.6490  -52.2542 H         1 UNK         0.0600 
    227 H227       -4.1974  -14.1001  -53.5295 H         1 UNK         0.0600 
    228 H228       -3.3320  -14.1913  -51.9968 H         1 UNK         0.0600 
    229 H229       -2.5014  -14.5655  -53.4982 H         1 UNK         0.0600 
    230 H230       -5.8926  -16.4803  -54.3310 H         1 UNK         0.3000 
    231 H231       -4.7220  -17.1751  -56.8235 H         1 UNK         0.0600 
    232 H232       -7.5403  -17.6885  -55.7250 H         1 UNK         0.0600 
    233 H233       -7.0748  -17.7879  -57.4190 H         1 UNK         0.0600 
    234 H234       -7.0121  -16.2427  -56.5876 H         1 UNK         0.0600 
    235 H235       -5.2432  -19.1268  -53.9775 H         1 UNK         0.3000 
    236 H236       -5.0935  -21.6900  -55.4629 H         1 UNK         0.0600 
    237 H237       -5.6415  -22.6497  -53.2094 H         1 UNK         0.0600 
    238 H238       -5.6999  -21.0221  -52.5445 H         1 UNK         0.0600 
    239 H239       -6.8537  -21.5131  -53.7736 H         1 UNK         0.0600 
    240 H240       -2.8087  -19.4801  -54.4553 H         1 UNK         0.3000 
    241 H241       -0.7934  -21.5907  -54.3177 H         1 UNK         0.0600 
    242 H242        0.0841  -18.0544  -55.9687 H         1 UNK         0.3800 
    243 H243       -1.4849  -18.2168  -55.2280 H         1 UNK         0.3800 
    244 H244        0.3520  -20.6901  -52.3105 H         1 UNK         0.0800 
    245 H245       -1.1929  -21.4096  -51.9693 H         1 UNK         0.0800 
    246 H246       -0.9698  -20.4057  -49.6248 H         1 UNK         0.0800 
    247 H247       -1.2819  -18.7405  -49.2344 H         1 UNK         0.0800 
@<TRIPOS>BOND
     1    1    2 1    
     2    1  127 1    
     3    1  128 1    
     4    1  129 1    
     5    2    3 2    
     6    2    4 am   BACKBONE|DICT|INTERRES
     7    4    5 1    
     8    4  130 1    
     9    5    6 1    
    10    5   65 1    
    11    5  131 1    
    12    6    7 1    
    13    6  132 1    
    14    6  133 1    
    15    7    8 1    
    16    8    9 1    
    17    8  134 1    
    18    8  135 1    
    19    9   10 ar   
    20    9   14 ar   
    21   10   11 ar   
    22   10  136 1    
    23   11   12 ar   
    24   11  126 1    
    25   12   13 ar   
    26   12  137 1    
    27   13   14 ar   
    28   13   15 1    
    29   14  138 1    
    30   15   16 1    
    31   15  139 1    
    32   15  140 1    
    33   16   17 1    
    34   17   18 1    
    35   17  141 1    
    36   17  142 1    
    37   18   19 1    
    38   18   67 1    
    39   18  143 1    
    40   19   20 am   BACKBONE|DICT|INTERRES
    41   19  144 1    
    42   20   21 2    
    43   20   22 1    
    44   22   23 1    
    45   22   24 1    
    46   22  145 1    
    47   23  146 1    
    48   23  147 1    
    49   23  148 1    
    50   24   25 am   BACKBONE|DICT|INTERRES
    51   24  149 1    
    52   25   26 2    
    53   25   27 1    
    54   27   28 1    
    55   27   29 1    
    56   27  150 1    
    57   28  151 1    
    58   28  152 1    
    59   28  153 1    
    60   29   30 am   BACKBONE|DICT|INTERRES
    61   29  154 1    
    62   30   31 2    
    63   30   32 1    
    64   32   33 1    
    65   32   34 1    
    66   32  155 1    
    67   33  156 1    
    68   33  157 1    
    69   33  158 1    
    70   34   35 am   BACKBONE|DICT|INTERRES
    71   34  159 1    
    72   35   36 2    
    73   35   37 1    
    74   37   38 1    
    75   37   39 1    
    76   37  160 1    
    77   38  161 1    
    78   38  162 1    
    79   38  163 1    
    80   39   40 am   BACKBONE|DICT|INTERRES
    81   39  164 1    
    82   40   41 2    
    83   40   42 1    
    84   42   43 1    
    85   42   44 1    
    86   42  165 1    
    87   43  166 1    
    88   43  167 1    
    89   43  168 1    
    90   44   45 am   BACKBONE|DICT|INTERRES
    91   44  169 1    
    92   45   46 2    
    93   45   47 1    
    94   47   48 1    
    95   47   49 1    
    96   47  170 1    
    97   48  171 1    
    98   48  172 1    
    99   48  173 1    
   100   49   50 am   BACKBONE|DICT|INTERRES
   101   49  174 1    
   102   50   51 2    
   103   50   52 1    
   104   52   53 1    
   105   52   54 1    
   106   52  175 1    
   107   53  176 1    
   108   53  177 1    
   109   53  178 1    
   110   54   55 am   BACKBONE|DICT|INTERRES
   111   54  179 1    
   112   55   56 2    
   113   55   57 1    
   114   57   58 1    
   115   57   59 1    
   116   57  180 1    
   117   58  181 1    
   118   58  182 1    
   119   58  183 1    
   120   59   60 am   BACKBONE|DICT|INTERRES
   121   59  184 1    
   122   60   61 2    
   123   60   62 1    
   124   62   63 1    
   125   62   64 1    
   126   62  185 1    
   127   63  186 1    
   128   63  187 1    
   129   63  188 1    
   130   64   65 am   BACKBONE|DICT|INTERRES
   131   64  189 1    
   132   65   66 2    
   133   67   68 2    
   134   67   69 am   BACKBONE|DICT|INTERRES
   135   69   70 1    
   136   69  190 1    
   137   70   71 1    
   138   70   72 1    
   139   70  191 1    
   140   71  192 1    
   141   71  193 1    
   142   71  194 1    
   143   72   73 2    
   144   72   74 am   BACKBONE|DICT|INTERRES
   145   74   75 1    
   146   74  195 1    
   147   75   76 1    
   148   75   77 1    
   149   75  196 1    
   150   76  197 1    
   151   76  198 1    
   152   76  199 1    
   153   77   78 2    
   154   77   79 am   BACKBONE|DICT|INTERRES
   155   79   80 1    
   156   79  200 1    
   157   80   81 1    
   158   80   82 1    
   159   80  201 1    
   160   81  202 1    
   161   81  203 1    
   162   81  204 1    
   163   82   83 2    
   164   82   84 am   BACKBONE|DICT|INTERRES
   165   84   85 1    
   166   84  205 1    
   167   85   86 1    
   168   85   87 1    
   169   85  206 1    
   170   86  207 1    
   171   86  208 1    
   172   86  209 1    
   173   87   88 2    
   174   87   89 am   BACKBONE|DICT|INTERRES
   175   89   90 1    
   176   89  210 1    
   177   90   91 1    
   178   90   92 1    
   179   90  211 1    
   180   91  212 1    
   181   91  213 1    
   182   91  214 1    
   183   92   93 2    
   184   92   94 am   BACKBONE|DICT|INTERRES
   185   94   95 1    
   186   94  215 1    
   187   95   96 1    
   188   95   97 1    
   189   95  216 1    
   190   96  217 1    
   191   96  218 1    
   192   96  219 1    
   193   97   98 2    
   194   97   99 am   BACKBONE|DICT|INTERRES
   195   99  100 1    
   196   99  220 1    
   197  100  101 1    
   198  100  102 1    
   199  100  221 1    
   200  101  222 1    
   201  101  223 1    
   202  101  224 1    
   203  102  103 2    
   204  102  104 am   BACKBONE|DICT|INTERRES
   205  104  105 1    
   206  104  225 1    
   207  105  106 1    
   208  105  107 1    
   209  105  226 1    
   210  106  227 1    
   211  106  228 1    
   212  106  229 1    
   213  107  108 2    
   214  107  109 am   BACKBONE|DICT|INTERRES
   215  109  110 1    
   216  109  230 1    
   217  110  111 1    
   218  110  112 1    
   219  110  231 1    
   220  111  232 1    
   221  111  233 1    
   222  111  234 1    
   223  112  113 2    
   224  112  114 am   BACKBONE|DICT|INTERRES
   225  114  115 1    
   226  114  235 1    
   227  115  116 1    
   228  115  117 1    
   229  115  236 1    
   230  116  237 1    
   231  116  238 1    
   232  116  239 1    
   233  117  118 2    
   234  117  119 am   BACKBONE|DICT|INTERRES
   235  119  120 1    
   236  119  240 1    
   237  120  121 1    
   238  120  124 1    
   239  120  241 1    
   240  121  122 am   BACKBONE|DICT|INTERRES
   241  121  123 2    
   242  122  242 1    
   243  122  243 1    
   244  124  125 1    
   245  124  244 1    
   246  124  245 1    
   247  125  126 1    
   248  126  246 1    
   249  126  247 1    
@<TRIPOS>SUBSTRUCTURE
     1 UNK         1 GROUP             0       ****    0 ROOT    
