@<TRIPOS>MOLECULE
3R540
247   249    1
SMALL
USER_CHARGES


@<TRIPOS>ATOM
      1 CA          6.4430  -10.7953  -47.9233 C.3       0 UNK        -0.1800 
      2 C           5.2808  -11.6631  -47.4606 C.2       0 UNK         0.5000 
      3 O           5.0045  -11.7285  -46.2626 O.2       0 UNK        -0.5000 
      4 N           4.6080  -12.3349  -48.4026 N.am      1 UNK        -0.5000 
      5 CA          3.4341  -13.1762  -48.1554 C.3       1 UNK         0.1400 
      6 C6          3.0709  -14.0400  -49.3870 C.3       23 UNK        -0.0398 
      7 S7          4.3073  -15.3430  -49.7043 S.3       23 UNK        -0.2404 
      8 C8          3.5795  -16.7425  -48.7916 C.3       23 UNK        -0.0205 
      9 C9          2.7968  -17.7043  -49.6794 C.ar      23 UNK        -0.0193 
     10 C10         1.6788  -17.2770  -50.4056 C.ar      23 UNK        -0.1150 
     11 C11         0.9421  -18.1799  -51.1777 C.ar      23 UNK        -0.0193 
     12 C12         1.3325  -19.5196  -51.2275 C.ar      23 UNK        -0.1150 
     13 C13         2.4390  -19.9637  -50.5000 C.ar      23 UNK        -0.0193 
     14 C14         3.1679  -19.0513  -49.7321 C.ar      23 UNK        -0.1150 
     15 C15         2.8274  -21.4358  -50.5143 C.3       23 UNK        -0.0205 
     16 S16         1.5118  -22.5073  -49.8477 S.3       23 UNK        -0.2404 
     17 C17         1.1057  -21.6521  -48.2855 C.3       23 UNK        -0.0398 
     18 CA          0.3427  -22.5391  -47.2785 C.3       11 UNK         0.1400 
     19 N           0.2976  -21.9321  -45.9473 N.am      11 UNK        -0.5000 
     20 C          -0.1332  -22.5532  -44.8400 C.2       10 UNK         0.5000 
     21 O          -0.5052  -23.7258  -44.8140 O.2       10 UNK        -0.5000 
     22 CA         -0.2186  -21.7050  -43.5591 C.3       10 UNK         0.1400 
     23 CB          1.1723  -21.4894  -42.9444 C.3       10 UNK        -0.1800 
     24 N          -0.8562  -20.4112  -43.7975 N.am      10 UNK        -0.5000 
     25 C          -2.1194  -20.2500  -44.2165 C.2       9 UNK         0.5000 
     26 O          -2.9099  -21.1787  -44.3863 O.2       9 UNK        -0.5000 
     27 CA         -2.5520  -18.8127  -44.5530 C.3       9 UNK         0.1400 
     28 CB         -2.9715  -18.0505  -43.2877 C.3       9 UNK        -0.1800 
     29 N          -1.4979  -18.0749  -45.2503 N.am      9 UNK        -0.5000 
     30 C          -1.0967  -18.3377  -46.5022 C.2       8 UNK         0.5000 
     31 O          -1.5896  -19.2132  -47.2108 O.2       8 UNK        -0.5000 
     32 CA          0.0844  -17.5134  -47.0367 C.3       8 UNK         0.1400 
     33 CB         -0.4004  -16.1638  -47.5842 C.3       8 UNK        -0.1800 
     34 N           1.1181  -17.3078  -46.0192 N.am      8 UNK        -0.5000 
     35 C           1.9193  -18.2948  -45.5885 C.2       7 UNK         0.5000 
     36 O           1.8507  -19.4530  -45.9982 O.2       7 UNK        -0.5000 
     37 CA          2.9492  -17.9510  -44.4969 C.3       7 UNK         0.1400 
     38 CB          4.2333  -17.3962  -45.1314 C.3       7 UNK        -0.1800 
     39 N           2.4749  -17.0102  -43.4808 N.am      7 UNK        -0.5000 
     40 C           1.3704  -17.1464  -42.7348 C.2       6 UNK         0.5000 
     41 O           0.5765  -18.0797  -42.8602 O.2       6 UNK        -0.5000 
     42 CA          1.1214  -16.0521  -41.6826 C.3       6 UNK         0.1400 
     43 CB          0.1496  -16.5147  -40.5825 C.3       6 UNK        -0.1800 
     44 N           2.3748  -15.6502  -41.0350 N.am      6 UNK        -0.5000 
     45 C           3.0990  -14.5197  -41.0994 C.2       5 UNK         0.5000 
     46 O           4.1572  -14.4381  -40.4784 O.2       5 UNK        -0.5000 
     47 CA          2.6751  -13.2944  -41.9453 C.3       5 UNK         0.1400 
     48 CB          3.1425  -13.4511  -43.4015 C.3       5 UNK        -0.1800 
     49 N           1.2594  -12.9261  -41.8995 N.am      5 UNK        -0.5000 
     50 C           0.5831  -12.5660  -40.7983 C.2       4 UNK         0.5000 
     51 O           1.0930  -12.4948  -39.6799 O.2       4 UNK        -0.5000 
     52 CA         -0.9068  -12.2003  -40.9672 C.3       4 UNK         0.1400 
     53 CB         -1.1099  -10.6895  -40.7685 C.3       4 UNK        -0.1800 
     54 N          -1.4412  -12.5688  -42.2804 N.am      4 UNK        -0.5000 
     55 C          -2.0098  -13.7450  -42.5806 C.2       3 UNK         0.5000 
     56 O          -2.1968  -14.6421  -41.7617 O.2       3 UNK        -0.5000 
     57 CA         -2.4228  -13.9659  -44.0502 C.3       3 UNK         0.1400 
     58 CB         -3.9274  -13.7207  -44.2338 C.3       3 UNK        -0.1800 
     59 N          -1.6771  -13.1191  -44.9862 N.am      3 UNK        -0.5000 
     60 C          -0.3873  -13.3009  -45.2893 C.2       2 UNK         0.5000 
     61 O           0.2895  -14.2397  -44.8553 O.2       2 UNK        -0.5000 
     62 CA          0.2600  -12.2422  -46.1912 C.3       2 UNK         0.1400 
     63 CB          0.5251  -10.9442  -45.4034 C.3       2 UNK        -0.1800 
     64 N           1.5060  -12.7956  -46.7053 N.am      2 UNK        -0.5000 
     65 C           2.2187  -12.3266  -47.7333 C.2       1 UNK         0.5000 
     66 O           1.9314  -11.3084  -48.3673 O.2       1 UNK        -0.5000 
     67 C          -1.0655  -22.9150  -47.7840 C.2       11 UNK         0.5000 
     68 O          -1.2472  -24.0344  -48.2586 O.2       11 UNK        -0.5000 
     69 N          -2.0457  -22.0116  -47.6300 N.am      12 UNK        -0.5000 
     70 CA         -3.4510  -22.2431  -47.9748 C.3       12 UNK         0.1400 
     71 CB         -4.2672  -20.9667  -47.7262 C.3       12 UNK        -0.1800 
     72 C          -4.0690  -23.4442  -47.2387 C.2       12 UNK         0.5000 
     73 O          -4.7807  -24.2299  -47.8624 O.2       12 UNK        -0.5000 
     74 N          -3.7543  -23.5891  -45.9453 N.am      13 UNK        -0.5000 
     75 CA         -4.1574  -24.7320  -45.1294 C.3       13 UNK         0.1400 
     76 CB         -3.9074  -24.4132  -43.6472 C.3       13 UNK        -0.1800 
     77 C          -3.4480  -26.0380  -45.5379 C.2       13 UNK         0.5000 
     78 O          -4.1030  -27.0764  -45.6342 O.2       13 UNK        -0.5000 
     79 N          -2.1276  -25.9686  -45.7540 N.am      14 UNK        -0.5000 
     80 CA         -1.2760  -27.1228  -46.0404 C.3       14 UNK         0.1400 
     81 CB          0.1918  -26.7519  -45.7755 C.3       14 UNK        -0.1800 
     82 C          -1.4408  -27.6766  -47.4663 C.2       14 UNK         0.5000 
     83 O          -1.5989  -28.8871  -47.6312 O.2       14 UNK        -0.5000 
     84 N          -1.3665  -26.7944  -48.4704 N.am      15 UNK        -0.5000 
     85 CA         -1.3453  -27.1604  -49.8878 C.3       15 UNK         0.1400 
     86 CB         -0.5241  -26.1167  -50.6636 C.3       15 UNK        -0.1800 
     87 C          -2.7490  -27.2838  -50.5005 C.2       15 UNK         0.5000 
     88 O          -2.8806  -27.8883  -51.5658 O.2       15 UNK        -0.5000 
     89 N          -3.7585  -26.6835  -49.8522 N.am      16 UNK        -0.5000 
     90 CA         -5.1705  -26.5746  -50.2460 C.3       16 UNK         0.1400 
     91 CB         -5.8301  -27.9575  -50.4078 C.3       16 UNK        -0.1800 
     92 C          -5.4049  -25.6889  -51.4856 C.2       16 UNK         0.5000 
     93 O          -6.2389  -24.7865  -51.4357 O.2       16 UNK        -0.5000 
     94 N          -4.6527  -25.9313  -52.5664 N.am      17 UNK        -0.5000 
     95 CA         -4.7241  -25.2082  -53.8387 C.3       17 UNK         0.1400 
     96 CB         -3.8089  -25.8994  -54.8599 C.3       17 UNK        -0.1800 
     97 C          -4.3674  -23.7148  -53.7187 C.2       17 UNK         0.5000 
     98 O          -4.9424  -22.8926  -54.4309 O.2       17 UNK        -0.5000 
     99 N          -3.4603  -23.3830  -52.7891 N.am      18 UNK        -0.5000 
    100 CA        -3.0381  -22.0139  -52.4849 C.3       18 UNK         0.1400 
    101 CB        -1.7941  -22.0562  -51.5840 C.3       18 UNK        -0.1800 
    102 C         -4.1476  -21.1369  -51.8675 C.2       18 UNK         0.5000 
    103 O         -4.0395  -19.9115  -51.9236 O.2       18 UNK        -0.5000 
    104 N         -5.2087  -21.7578  -51.3266 N.am      19 UNK        -0.5000 
    105 CA        -6.3874  -21.0642  -50.8017 C.3       19 UNK         0.1400 
    106 CB        -7.2534  -22.0501  -50.0034 C.3       19 UNK        -0.1800 
    107 C         -7.2272  -20.3841  -51.9001 C.2       19 UNK         0.5000 
    108 O         -7.9326  -19.4179  -51.6061 O.2       19 UNK        -0.5000 
    109 N         -7.1191  -20.8614  -53.1491 N.am      20 UNK        -0.5000 
    110 CA        -7.7624  -20.2867  -54.3307 C.3       20 UNK         0.1400 
    111 CB        -7.9303  -21.3860  -55.3947 C.3       20 UNK        -0.1800 
    112 C         -6.9741  -19.0661  -54.8497 C.2       20 UNK         0.5000 
    113 O         -6.4791  -19.0783  -55.9785 O.2       20 UNK        -0.5000 
    114 N         -6.8422  -18.0459  -53.9892 N.am      21 UNK        -0.5000 
    115 CA        -6.1812  -16.7550  -54.2187 C.3       21 UNK         0.1400 
    116 CB        -7.0425  -15.8843  -55.1568 C.3       21 UNK        -0.1800 
    117 C         -4.7178  -16.8810  -54.6987 C.2       21 UNK         0.5000 
    118 O         -4.2773  -16.1009  -55.5451 O.2       21 UNK        -0.5000 
    119 N         -3.9955  -17.8737  -54.1605 N.am      22 UNK        -0.5000 
    120 CA        -2.6270  -18.2497  -54.5520 C.3       22 UNK         0.1400 
    121 C         -2.5085  -18.9207  -55.9579 C.2       22 UNK         0.5000 
    122 N         -3.5979  -19.3072  -56.6125 N.am      22 UNK        -0.7600 
    123 O         -1.4077  -19.1277  -56.4602 O.2       22 UNK        -0.5000 
    124 C124       -1.6090  -17.0924  -54.3249 C.3       23 UNK        -0.0398 
    125 S125        0.0152  -17.6680  -53.7292 S.3       23 UNK        -0.2404 
    126 C126       -0.2913  -17.7201  -51.9373 C.3       23 UNK        -0.0205 
    127 H127        6.5789  -10.8418  -49.0041 H         1 UNK         0.0600 
    128 H128        7.3682  -11.1238  -47.4498 H         1 UNK         0.0600 
    129 H129        6.2677   -9.7556  -47.6470 H         1 UNK         0.0600 
    130 H130        4.8768  -12.2340  -49.3707 H         1 UNK         0.3000 
    131 H131        3.6793  -13.8469  -47.3283 H         1 UNK         0.0600 
    132 H132        2.9848  -13.4187  -50.2803 H         1 UNK         0.0800 
    133 H133        2.0939  -14.5035  -49.2559 H         1 UNK         0.0800 
    134 H134        2.9327  -16.3786  -47.9939 H         1 UNK         0.0800 
    135 H135        4.3951  -17.2698  -48.2950 H         1 UNK         0.0800 
    136 H136        1.3696  -16.2446  -50.3672 H         1 UNK         0.1150 
    137 H137        0.7634  -20.2227  -51.8192 H         1 UNK         0.1150 
    138 H138        4.0170  -19.3959  -49.1587 H         1 UNK         0.1150 
    139 H139        3.0486  -21.7388  -51.5385 H         1 UNK         0.0800 
    140 H140        3.7397  -21.6018  -49.9395 H         1 UNK         0.0800 
    141 H141        0.5434  -20.7425  -48.5051 H         1 UNK         0.0800 
    142 H142        2.0468  -21.3280  -47.8397 H         1 UNK         0.0800 
    143 H143        0.9037  -23.4703  -47.1731 H         1 UNK         0.0600 
    144 H144        0.6266  -20.9735  -45.8790 H         1 UNK         0.3000 
    145 H145       -0.8301  -22.2503  -42.8373 H         1 UNK         0.0600 
    146 H146        1.1077  -20.9308  -42.0104 H         1 UNK         0.0600 
    147 H147        1.8300  -20.9388  -43.6169 H         1 UNK         0.0600 
    148 H148        1.6524  -22.4431  -42.7225 H         1 UNK         0.0600 
    149 H149       -0.2900  -19.5831  -43.6311 H         1 UNK         0.3000 
    150 H150       -3.4199  -18.8702  -45.2126 H         1 UNK         0.0600 
    151 H151       -3.7637  -18.5815  -42.7586 H         1 UNK         0.0600 
    152 H152       -3.3534  -17.0592  -43.5302 H         1 UNK         0.0600 
    153 H153       -2.1398  -17.9302  -42.5944 H         1 UNK         0.0600 
    154 H154       -0.9849  -17.3938  -44.7102 H         1 UNK         0.3000 
    155 H155        0.5295  -18.0712  -47.8631 H         1 UNK         0.0600 
    156 H156       -1.0171  -16.3100  -48.4719 H         1 UNK         0.0600 
    157 H157        0.4330  -15.5234  -47.8686 H         1 UNK         0.0600 
    158 H158       -1.0074  -15.6284  -46.8553 H         1 UNK         0.0600 
    159 H159        1.1838  -16.3911  -45.5981 H         1 UNK         0.3000 
    160 H160        3.1990  -18.8811  -43.9830 H         1 UNK         0.0600 
    161 H161        4.0613  -16.4352  -45.6178 H         1 UNK         0.0600 
    162 H162        4.6255  -18.0821  -45.8836 H         1 UNK         0.0600 
    163 H163        5.0147  -17.2579  -44.3840 H         1 UNK         0.0600 
    164 H164        3.0812  -16.2288  -43.2858 H         1 UNK         0.3000 
    165 H165        0.6491  -15.2474  -42.2343 H         1 UNK         0.0600 
    166 H166       -0.0487  -15.7109  -39.8732 H         1 UNK         0.0600 
    167 H167       -0.8111  -16.8154  -40.9993 H         1 UNK         0.0600 
    168 H168        0.5452  -17.3649  -40.0258 H         1 UNK         0.0600 
    169 H169        2.7706  -16.3837  -40.4653 H         1 UNK         0.3000 
    170 H170        3.2171  -12.4397  -41.5347 H         1 UNK         0.0600 
    171 H171        4.2124  -13.6594  -43.4469 H         1 UNK         0.0600 
    172 H172        2.6342  -14.2671  -43.9095 H         1 UNK         0.0600 
    173 H173        2.9750  -12.5397  -43.9743 H         1 UNK         0.0600 
    174 H174        0.7535  -12.9906  -42.7697 H         1 UNK         0.3000 
    175 H175       -1.4625  -12.7234  -40.1860 H         1 UNK         0.0600 
    176 H176       -0.5667  -10.1080  -41.5145 H         1 UNK         0.0600 
    177 H177       -2.1645  -10.4217  -40.8362 H         1 UNK         0.0600 
    178 H178       -0.7590  -10.3722  -39.7856 H         1 UNK         0.0600 
    179 H179       -1.3595  -11.8768  -43.0101 H         1 UNK         0.3000 
    180 H180       -2.2165  -15.0101  -44.2944 H         1 UNK         0.0600 
    181 H181       -4.2412  -13.9430  -45.2539 H         1 UNK         0.0600 
    182 H182       -4.1972  -12.6867  -44.0157 H         1 UNK         0.0600 
    183 H183       -4.5108  -14.3598  -43.5696 H         1 UNK         0.0600 
    184 H184       -2.1772  -12.3378  -45.3865 H         1 UNK         0.3000 
    185 H185       -0.4117  -12.0403  -47.0280 H         1 UNK         0.0600 
    186 H186        1.1781  -11.1147  -44.5476 H         1 UNK         0.0600 
    187 H187        0.9933  -10.1853  -46.0301 H         1 UNK         0.0600 
    188 H188       -0.4036  -10.5144  -45.0266 H         1 UNK         0.0600 
    189 H189        1.7837  -13.6463  -46.2330 H         1 UNK         0.3000 
    190 H190       -1.8186  -21.0866  -47.2739 H         1 UNK         0.3000 
    191 H191       -3.4999  -22.4665  -49.0403 H         1 UNK         0.0600 
    192 H192       -3.9412  -20.1586  -48.3814 H         1 UNK         0.0600 
    193 H193       -4.1736  -20.6239  -46.6969 H         1 UNK         0.0600 
    194 H194       -5.3275  -21.1317  -47.9142 H         1 UNK         0.0600 
    195 H195       -3.1993  -22.8709  -45.4908 H         1 UNK         0.3000 
    196 H196       -5.2309  -24.8812  -45.2637 H         1 UNK         0.0600 
    197 H197       -4.4720  -23.5348  -43.3337 H         1 UNK         0.0600 
    198 H198       -2.8532  -24.2189  -43.4475 H         1 UNK         0.0600 
    199 H199       -4.2158  -25.2436  -43.0110 H         1 UNK         0.0600 
    200 H200       -1.6540  -25.0799  -45.6174 H         1 UNK         0.3000 
    201 H201       -1.5445  -27.9209  -45.3448 H         1 UNK         0.0600 
    202 H202        0.3417  -26.4586  -44.7363 H         1 UNK         0.0600 
    203 H203        0.5182  -25.9238  -46.4058 H         1 UNK         0.0600 
    204 H204        0.8523  -27.5970  -45.9733 H         1 UNK         0.0600 
    205 H205       -1.2687  -25.8005  -48.2621 H         1 UNK         0.3000 
    206 H206       -0.8496  -28.1268  -50.0019 H         1 UNK         0.0600 
    207 H207       -1.0015  -25.1365  -50.6552 H         1 UNK         0.0600 
    208 H208        0.4745  -26.0043  -50.2411 H         1 UNK         0.0600 
    209 H209       -0.4044  -26.4110  -51.7070 H         1 UNK         0.0600 
    210 H210       -3.5229  -26.1904  -49.0011 H         1 UNK         0.3000 
    211 H211       -5.6744  -26.0836  -49.4134 H         1 UNK         0.0600 
    212 H212       -5.4195  -28.5161  -51.2491 H         1 UNK         0.0600 
    213 H213       -6.9021  -27.8556  -50.5806 H         1 UNK         0.0600 
    214 H214       -5.7018  -28.5612  -49.5094 H         1 UNK         0.0600 
    215 H215       -3.9821  -26.6931  -52.5010 H         1 UNK         0.3000 
    216 H216       -5.7525  -25.2717  -54.2000 H         1 UNK         0.0600 
    217 H217       -3.8513  -25.3967  -55.8270 H         1 UNK         0.0600 
    218 H218       -4.1084  -26.9354  -55.0194 H         1 UNK         0.0600 
    219 H219       -2.7682  -25.8980  -54.5328 H         1 UNK         0.0600 
    220 H220       -3.0452  -24.1223  -52.2424 H         1 UNK         0.3000 
    221 H221       -2.7529  -21.5369  -53.4249 H         1 UNK         0.0600 
    222 H222       -1.9504  -22.6791  -50.7050 H         1 UNK         0.0600 
    223 H223       -0.9356  -22.4592  -52.1217 H         1 UNK         0.0600 
    224 H224       -1.5181  -21.0597  -51.2363 H         1 UNK         0.0600 
    225 H225       -5.2578  -22.7689  -51.3509 H         1 UNK         0.3000 
    226 H226       -6.0418  -20.2832  -50.1218 H         1 UNK         0.0600 
    227 H227       -6.6645  -22.6059  -49.2741 H         1 UNK         0.0600 
    228 H228       -8.0368  -21.5228  -49.4578 H         1 UNK         0.0600 
    229 H229       -7.7439  -22.7732  -50.6555 H         1 UNK         0.0600 
    230 H230       -6.4769  -21.6246  -53.3228 H         1 UNK         0.3000 
    231 H231       -8.7611  -19.9380  -54.0594 H         1 UNK         0.0600 
    232 H232       -8.4673  -21.0065  -56.2648 H         1 UNK         0.0600 
    233 H233       -8.4994  -22.2298  -55.0046 H         1 UNK         0.0600 
    234 H234       -6.9686  -21.7630  -55.7434 H         1 UNK         0.0600 
    235 H235       -7.2530  -18.1729  -53.0696 H         1 UNK         0.3000 
    236 H236       -6.1386  -16.2554  -53.2500 H         1 UNK         0.0600 
    237 H237       -7.0950  -16.3054  -56.1614 H         1 UNK         0.0600 
    238 H238       -8.0609  -15.7878  -54.7804 H         1 UNK         0.0600 
    239 H239       -6.6346  -14.8766  -55.2437 H         1 UNK         0.0600 
    240 H240       -4.4184  -18.4688  -53.4574 H         1 UNK         0.3000 
    241 H241       -2.3727  -19.0498  -53.8576 H         1 UNK         0.0600 
    242 H242       -3.4960  -19.7480  -57.5125 H         1 UNK         0.3800 
    243 H243       -4.5299  -19.1464  -56.2436 H         1 UNK         0.3800 
    244 H244       -1.9928  -16.3810  -53.5925 H         1 UNK         0.0800 
    245 H245       -1.4667  -16.5134  -55.2389 H         1 UNK         0.0800 
    246 H246       -1.1193  -18.3993  -51.7272 H         1 UNK         0.0800 
    247 H247       -0.6054  -16.7333  -51.5937 H         1 UNK         0.0800 
@<TRIPOS>BOND
     1    1    2 1    
     2    1  127 1    
     3    1  128 1    
     4    1  129 1    
     5    2    3 2    
     6    2    4 am   BACKBONE|DICT|INTERRES
     7    4    5 1    
     8    4  130 1    
     9    5    6 1    
    10    5   65 1    
    11    5  131 1    
    12    6    7 1    
    13    6  132 1    
    14    6  133 1    
    15    7    8 1    
    16    8    9 1    
    17    8  134 1    
    18    8  135 1    
    19    9   10 ar   
    20    9   14 ar   
    21   10   11 ar   
    22   10  136 1    
    23   11   12 ar   
    24   11  126 1    
    25   12   13 ar   
    26   12  137 1    
    27   13   14 ar   
    28   13   15 1    
    29   14  138 1    
    30   15   16 1    
    31   15  139 1    
    32   15  140 1    
    33   16   17 1    
    34   17   18 1    
    35   17  141 1    
    36   17  142 1    
    37   18   19 1    
    38   18   67 1    
    39   18  143 1    
    40   19   20 am   BACKBONE|DICT|INTERRES
    41   19  144 1    
    42   20   21 2    
    43   20   22 1    
    44   22   23 1    
    45   22   24 1    
    46   22  145 1    
    47   23  146 1    
    48   23  147 1    
    49   23  148 1    
    50   24   25 am   BACKBONE|DICT|INTERRES
    51   24  149 1    
    52   25   26 2    
    53   25   27 1    
    54   27   28 1    
    55   27   29 1    
    56   27  150 1    
    57   28  151 1    
    58   28  152 1    
    59   28  153 1    
    60   29   30 am   BACKBONE|DICT|INTERRES
    61   29  154 1    
    62   30   31 2    
    63   30   32 1    
    64   32   33 1    
    65   32   34 1    
    66   32  155 1    
    67   33  156 1    
    68   33  157 1    
    69   33  158 1    
    70   34   35 am   BACKBONE|DICT|INTERRES
    71   34  159 1    
    72   35   36 2    
    73   35   37 1    
    74   37   38 1    
    75   37   39 1    
    76   37  160 1    
    77   38  161 1    
    78   38  162 1    
    79   38  163 1    
    80   39   40 am   BACKBONE|DICT|INTERRES
    81   39  164 1    
    82   40   41 2    
    83   40   42 1    
    84   42   43 1    
    85   42   44 1    
    86   42  165 1    
    87   43  166 1    
    88   43  167 1    
    89   43  168 1    
    90   44   45 am   BACKBONE|DICT|INTERRES
    91   44  169 1    
    92   45   46 2    
    93   45   47 1    
    94   47   48 1    
    95   47   49 1    
    96   47  170 1    
    97   48  171 1    
    98   48  172 1    
    99   48  173 1    
   100   49   50 am   BACKBONE|DICT|INTERRES
   101   49  174 1    
   102   50   51 2    
   103   50   52 1    
   104   52   53 1    
   105   52   54 1    
   106   52  175 1    
   107   53  176 1    
   108   53  177 1    
   109   53  178 1    
   110   54   55 am   BACKBONE|DICT|INTERRES
   111   54  179 1    
   112   55   56 2    
   113   55   57 1    
   114   57   58 1    
   115   57   59 1    
   116   57  180 1    
   117   58  181 1    
   118   58  182 1    
   119   58  183 1    
   120   59   60 am   BACKBONE|DICT|INTERRES
   121   59  184 1    
   122   60   61 2    
   123   60   62 1    
   124   62   63 1    
   125   62   64 1    
   126   62  185 1    
   127   63  186 1    
   128   63  187 1    
   129   63  188 1    
   130   64   65 am   BACKBONE|DICT|INTERRES
   131   64  189 1    
   132   65   66 2    
   133   67   68 2    
   134   67   69 am   BACKBONE|DICT|INTERRES
   135   69   70 1    
   136   69  190 1    
   137   70   71 1    
   138   70   72 1    
   139   70  191 1    
   140   71  192 1    
   141   71  193 1    
   142   71  194 1    
   143   72   73 2    
   144   72   74 am   BACKBONE|DICT|INTERRES
   145   74   75 1    
   146   74  195 1    
   147   75   76 1    
   148   75   77 1    
   149   75  196 1    
   150   76  197 1    
   151   76  198 1    
   152   76  199 1    
   153   77   78 2    
   154   77   79 am   BACKBONE|DICT|INTERRES
   155   79   80 1    
   156   79  200 1    
   157   80   81 1    
   158   80   82 1    
   159   80  201 1    
   160   81  202 1    
   161   81  203 1    
   162   81  204 1    
   163   82   83 2    
   164   82   84 am   BACKBONE|DICT|INTERRES
   165   84   85 1    
   166   84  205 1    
   167   85   86 1    
   168   85   87 1    
   169   85  206 1    
   170   86  207 1    
   171   86  208 1    
   172   86  209 1    
   173   87   88 2    
   174   87   89 am   BACKBONE|DICT|INTERRES
   175   89   90 1    
   176   89  210 1    
   177   90   91 1    
   178   90   92 1    
   179   90  211 1    
   180   91  212 1    
   181   91  213 1    
   182   91  214 1    
   183   92   93 2    
   184   92   94 am   BACKBONE|DICT|INTERRES
   185   94   95 1    
   186   94  215 1    
   187   95   96 1    
   188   95   97 1    
   189   95  216 1    
   190   96  217 1    
   191   96  218 1    
   192   96  219 1    
   193   97   98 2    
   194   97   99 am   BACKBONE|DICT|INTERRES
   195   99  100 1    
   196   99  220 1    
   197  100  101 1    
   198  100  102 1    
   199  100  221 1    
   200  101  222 1    
   201  101  223 1    
   202  101  224 1    
   203  102  103 2    
   204  102  104 am   BACKBONE|DICT|INTERRES
   205  104  105 1    
   206  104  225 1    
   207  105  106 1    
   208  105  107 1    
   209  105  226 1    
   210  106  227 1    
   211  106  228 1    
   212  106  229 1    
   213  107  108 2    
   214  107  109 am   BACKBONE|DICT|INTERRES
   215  109  110 1    
   216  109  230 1    
   217  110  111 1    
   218  110  112 1    
   219  110  231 1    
   220  111  232 1    
   221  111  233 1    
   222  111  234 1    
   223  112  113 2    
   224  112  114 am   BACKBONE|DICT|INTERRES
   225  114  115 1    
   226  114  235 1    
   227  115  116 1    
   228  115  117 1    
   229  115  236 1    
   230  116  237 1    
   231  116  238 1    
   232  116  239 1    
   233  117  118 2    
   234  117  119 am   BACKBONE|DICT|INTERRES
   235  119  120 1    
   236  119  240 1    
   237  120  121 1    
   238  120  124 1    
   239  120  241 1    
   240  121  122 am   BACKBONE|DICT|INTERRES
   241  121  123 2    
   242  122  242 1    
   243  122  243 1    
   244  124  125 1    
   245  124  244 1    
   246  124  245 1    
   247  125  126 1    
   248  126  246 1    
   249  126  247 1    
@<TRIPOS>SUBSTRUCTURE
     1 UNK         1 GROUP             0       ****    0 ROOT    
