@<TRIPOS>MOLECULE
3R540
247   249    1
SMALL
USER_CHARGES


@<TRIPOS>ATOM
      1 CA          7.0706  -11.1231  -48.1295 C.3       0 UNK        -0.1800 
      2 C           6.2371  -12.1329  -47.3546 C.2       0 UNK         0.5000 
      3 O           6.1589  -12.0536  -46.1286 O.2       0 UNK        -0.5000 
      4 N           5.5933  -13.0717  -48.0619 N.am      1 UNK        -0.5000 
      5 CA          4.7652  -14.1450  -47.4914 C.3       1 UNK         0.1400 
      6 C6          4.4419  -15.2458  -48.5305 C.3       23 UNK        -0.0398 
      7 S7          3.5025  -14.6609  -49.9888 S.3       23 UNK        -0.2404 
      8 C8          1.8889  -15.4715  -49.7492 C.3       23 UNK        -0.0205 
      9 C9          1.8548  -16.8786  -50.3349 C.ar      23 UNK        -0.0193 
     10 C10         1.3045  -17.1026  -51.6010 C.ar      23 UNK        -0.1150 
     11 C11         1.2490  -18.3946  -52.1325 C.ar      23 UNK        -0.0193 
     12 C12         1.7564  -19.4652  -51.3911 C.ar      23 UNK        -0.1150 
     13 C13         2.2943  -19.2649  -50.1166 C.ar      23 UNK        -0.0193 
     14 C14         2.3434  -17.9636  -49.6015 C.ar      23 UNK        -0.1150 
     15 C15         2.8193  -20.4712  -49.3366 C.3       23 UNK        -0.0205 
     16 S16         2.7272  -20.2900  -47.5219 S.3       23 UNK        -0.2404 
     17 C17         2.7572  -22.0307  -46.9581 C.3       23 UNK        -0.0398 
     18 CA          1.3710  -22.5689  -46.5104 C.3       11 UNK         0.1400 
     19 N           0.6874  -21.6583  -45.5862 N.am      11 UNK        -0.5000 
     20 C           0.8583  -21.6729  -44.2568 C.2       10 UNK         0.5000 
     21 O           1.4974  -22.5445  -43.6654 O.2       10 UNK        -0.5000 
     22 CA          0.2544  -20.5125  -43.4354 C.3       10 UNK         0.1400 
     23 CB          1.3596  -19.5019  -43.0885 C.3       10 UNK        -0.1800 
     24 N          -0.8323  -19.8020  -44.1081 N.am      10 UNK        -0.5000 
     25 C          -2.0195  -20.3314  -44.4350 C.2       9 UNK         0.5000 
     26 O          -2.3686  -21.4660  -44.1097 O.2       9 UNK        -0.5000 
     27 CA         -2.9618  -19.4807  -45.3152 C.3       9 UNK         0.1400 
     28 CB         -4.1300  -18.9330  -44.4849 C.3       9 UNK        -0.1800 
     29 N          -2.3128  -18.3704  -46.0215 N.am      9 UNK        -0.5000 
     30 C          -1.3016  -18.4938  -46.8943 C.2       8 UNK         0.5000 
     31 O          -0.7748  -19.5706  -47.1664 O.2       8 UNK        -0.5000 
     32 CA         -0.7417  -17.2109  -47.5320 C.3       8 UNK         0.1400 
     33 CB         -1.3821  -16.9775  -48.9062 C.3       8 UNK        -0.1800 
     34 N          -0.9051  -16.0059  -46.7192 N.am      8 UNK        -0.5000 
     35 C          -0.4142  -15.8305  -45.4851 C.2       7 UNK         0.5000 
     36 O           0.1920  -16.7047  -44.8640 O.2       7 UNK        -0.5000 
     37 CA         -0.6469  -14.4573  -44.8243 C.3       7 UNK         0.1400 
     38 CB         -1.4216  -13.4432  -45.6994 C.3       7 UNK        -0.1800 
     39 N          -1.2834  -14.5970  -43.5154 N.am      7 UNK        -0.5000 
     40 C          -2.4756  -15.1501  -43.2429 C.2       6 UNK         0.5000 
     41 O          -3.2362  -15.5984  -44.1034 O.2       6 UNK        -0.5000 
     42 CA         -2.8779  -15.1873  -41.7506 C.3       6 UNK         0.1400 
     43 CB         -4.0269  -16.1705  -41.4412 C.3       6 UNK        -0.1800 
     44 N          -1.7332  -15.4093  -40.8589 N.am      6 UNK        -0.5000 
     45 C          -0.9350  -16.4864  -40.8315 C.2       5 UNK         0.5000 
     46 O          -1.1218  -17.5056  -41.4965 O.2       5 UNK        -0.5000 
     47 CA          0.3065  -16.3830  -39.9231 C.3       5 UNK         0.1400 
     48 CB          0.4784  -17.6495  -39.0677 C.3       5 UNK        -0.1800 
     49 N           1.5397  -16.1530  -40.6812 N.am      5 UNK        -0.5000 
     50 C           1.7821  -15.1229  -41.5041 C.2       4 UNK         0.5000 
     51 O           0.9683  -14.2236  -41.7332 O.2       4 UNK        -0.5000 
     52 CA          3.1753  -15.1032  -42.1688 C.3       4 UNK         0.1400 
     53 CB          3.3173  -16.2272  -43.2064 C.3       4 UNK        -0.1800 
     54 N           3.4684  -13.8231  -42.8169 N.am      4 UNK        -0.5000 
     55 C           3.7557  -12.6887  -42.1605 C.2       3 UNK         0.5000 
     56 O           3.8643  -12.6273  -40.9344 O.2       3 UNK        -0.5000 
     57 CA          3.9862  -11.4085  -42.9917 C.3       3 UNK         0.1400 
     58 CB          5.4696  -11.0074  -42.9597 C.3       3 UNK        -0.1800 
     59 N           3.5618  -11.5262  -44.3877 N.am      3 UNK        -0.5000 
     60 C           2.2887  -11.4674  -44.8068 C.2       2 UNK         0.5000 
     61 O           1.3347  -11.2637  -44.0567 O.2       2 UNK        -0.5000 
     62 CA          2.0254  -11.6820  -46.3129 C.3       2 UNK         0.1400 
     63 CB          1.7743  -10.3392  -47.0146 C.3       2 UNK        -0.1800 
     64 N           3.1014  -12.3863  -47.0109 N.am      2 UNK        -0.5000 
     65 C           3.4975  -13.6423  -46.7608 C.2       1 UNK         0.5000 
     66 O           2.9308  -14.3766  -45.9525 O.2       1 UNK        -0.5000 
     67 C           0.4880  -22.9597  -47.7087 C.2       11 UNK         0.5000 
     68 O           0.4566  -24.1339  -48.0762 O.2       11 UNK        -0.5000 
     69 N          -0.2279  -21.9947  -48.2977 N.am      12 UNK        -0.5000 
     70 CA         -1.0282  -22.1681  -49.5102 C.3       12 UNK         0.1400 
     71 CB         -1.4575  -20.7905  -50.0212 C.3       12 UNK        -0.1800 
     72 C          -2.2611  -23.0586  -49.2988 C.2       12 UNK         0.5000 
     73 O          -2.6636  -23.7668  -50.2212 O.2       12 UNK        -0.5000 
     74 N          -2.8212  -23.0251  -48.0825 N.am      13 UNK        -0.5000 
     75 CA         -3.9344  -23.8759  -47.6663 C.3       13 UNK         0.1400 
     76 CB         -4.5564  -23.3059  -46.3832 C.3       13 UNK        -0.1800 
     77 C          -3.4978  -25.3387  -47.4637 C.2       13 UNK         0.5000 
     78 O          -4.2585  -26.2481  -47.7931 O.2       13 UNK        -0.5000 
     79 N          -2.2704  -25.5378  -46.9605 N.am      14 UNK        -0.5000 
     80 CA         -1.6480  -26.8510  -46.7806 C.3       14 UNK         0.1400 
     81 CB         -0.4614  -26.7286  -45.8119 C.3       14 UNK        -0.1800 
     82 C          -1.2055  -27.4635  -48.1216 C.2       14 UNK         0.5000 
     83 O          -1.3809  -28.6639  -48.3320 O.2       14 UNK        -0.5000 
     84 N          -0.6760  -26.6176  -49.0168 N.am      15 UNK        -0.5000 
     85 CA         -0.3144  -26.9643  -50.3931 C.3       15 UNK         0.1400 
     86 CB          0.5605  -25.8403  -50.9703 C.3       15 UNK        -0.1800 
     87 C          -1.5348  -27.2069  -51.3054 C.2       15 UNK         0.5000 
     88 O          -1.3809  -27.8245  -52.3596 O.2       15 UNK        -0.5000 
     89 N          -2.7081  -26.7076  -50.8881 N.am      16 UNK        -0.5000 
     90 CA         -3.9926  -26.7154  -51.5916 C.3       16 UNK         0.1400 
     91 CB         -4.5251  -28.1532  -51.7618 C.3       16 UNK        -0.1800 
     92 C          -3.9313  -25.9219  -52.9119 C.2       16 UNK         0.5000 
     93 O          -4.4034  -26.3916  -53.9503 O.2       16 UNK        -0.5000 
     94 N          -3.3431  -24.7201  -52.8460 N.am      17 UNK        -0.5000 
     95 CA         -3.2010  -23.7741  -53.9531 C.3       17 UNK         0.1400 
     96 CB         -2.0495  -22.8111  -53.6297 C.3       17 UNK        -0.1800 
     97 C          -4.5324  -23.0458  -54.2315 C.2       17 UNK         0.5000 
     98 O          -4.6573  -21.8447  -53.9753 O.2       17 UNK        -0.5000 
     99 N          -5.5083  -23.8273  -54.7156 N.am      18 UNK        -0.5000 
    100 CA        -6.9290  -23.5197  -54.9019 C.3       18 UNK         0.1400 
    101 CB        -7.1237  -22.2911  -55.8159 C.3       18 UNK        -0.1800 
    102 C         -7.6769  -23.3553  -53.5637 C.2       18 UNK         0.5000 
    103 O         -7.0620  -23.2559  -52.4991 O.2       18 UNK        -0.5000 
    104 N         -9.0133  -23.2957  -53.6408 N.am      19 UNK        -0.5000 
    105 CA        -9.9001  -23.0440  -52.4973 C.3       19 UNK         0.1400 
    106 CB       -11.3581  -23.2397  -52.9403 C.3       19 UNK        -0.1800 
    107 C         -9.7059  -21.6452  -51.8746 C.2       19 UNK         0.5000 
    108 O        -10.0028  -21.4529  -50.6954 O.2       19 UNK        -0.5000 
    109 N         -9.1878  -20.7061  -52.6774 N.am      20 UNK        -0.5000 
    110 CA        -8.8053  -19.3582  -52.2681 C.3       20 UNK         0.1400 
    111 CB        -8.6948  -18.4815  -53.5263 C.3       20 UNK        -0.1800 
    112 C         -7.4880  -19.3032  -51.4682 C.2       20 UNK         0.5000 
    113 O         -7.2259  -18.2678  -50.8559 O.2       20 UNK        -0.5000 
    114 N         -6.6718  -20.3728  -51.5107 N.am      21 UNK        -0.5000 
    115 CA        -5.3461  -20.5004  -50.8867 C.3       21 UNK         0.1400 
    116 CB        -5.4887  -20.6654  -49.3590 C.3       21 UNK        -0.1800 
    117 C         -4.4115  -19.3374  -51.2841 C.2       21 UNK         0.5000 
    118 O         -3.9741  -18.5704  -50.4262 O.2       21 UNK        -0.5000 
    119 N         -4.1994  -19.1895  -52.5977 N.am      22 UNK        -0.5000 
    120 CA        -3.5116  -18.0622  -53.2600 C.3       22 UNK         0.1400 
    121 C         -4.2414  -16.6835  -53.1722 C.2       22 UNK         0.5000 
    122 N         -5.3904  -16.5509  -52.5207 N.am      22 UNK        -0.7600 
    123 O         -3.7727  -15.7072  -53.7513 O.2       22 UNK        -0.5000 
    124 C124       -2.0078  -17.9322  -52.8771 C.3       23 UNK        -0.0398 
    125 S125       -1.0175  -19.3655  -53.4119 S.3       23 UNK        -0.2404 
    126 C126        0.6522  -18.6432  -53.5104 C.3       23 UNK        -0.0205 
    127 H127        7.0352  -11.3074  -49.2035 H         1 UNK         0.0600 
    128 H128        8.1113  -11.1727  -47.8095 H         1 UNK         0.0600 
    129 H129        6.7035  -10.1136  -47.9446 H         1 UNK         0.0600 
    130 H130        5.6729  -13.0772  -49.0694 H         1 UNK         0.3000 
    131 H131        5.3730  -14.6187  -46.7173 H         1 UNK         0.0600 
    132 H132        5.3723  -15.6844  -48.8934 H         1 UNK         0.0800 
    133 H133        3.9148  -16.0620  -48.0393 H         1 UNK         0.0800 
    134 H134        1.1236  -14.8564  -50.2247 H         1 UNK         0.0800 
    135 H135        1.6354  -15.4939  -48.6883 H         1 UNK         0.0800 
    136 H136        0.9156  -16.2709  -52.1716 H         1 UNK         0.1150 
    137 H137        1.7127  -20.4630  -51.8048 H         1 UNK         0.1150 
    138 H138        2.7531  -17.7946  -48.6189 H         1 UNK         0.1150 
    139 H139        2.2556  -21.3577  -49.6298 H         1 UNK         0.0800 
    140 H140        3.8560  -20.6527  -49.6219 H         1 UNK         0.0800 
    141 H141        3.4421  -22.0783  -46.1106 H         1 UNK         0.0800 
    142 H142        3.2024  -22.6686  -47.7239 H         1 UNK         0.0800 
    143 H143        1.5507  -23.5114  -45.9884 H         1 UNK         0.0600 
    144 H144        0.1647  -20.8955  -46.0039 H         1 UNK         0.3000 
    145 H145       -0.1394  -20.9302  -42.5068 H         1 UNK         0.0600 
    146 H146        0.9846  -18.7029  -42.4510 H         1 UNK         0.0600 
    147 H147        1.7752  -19.0422  -43.9865 H         1 UNK         0.0600 
    148 H148        2.1801  -19.9825  -42.5543 H         1 UNK         0.0600 
    149 H149       -0.6329  -18.8519  -44.3978 H         1 UNK         0.3000 
    150 H150       -3.3718  -20.1473  -46.0765 H         1 UNK         0.0600 
    151 H151       -3.7774  -18.2542  -43.7095 H         1 UNK         0.0600 
    152 H152       -4.6750  -19.7398  -43.9931 H         1 UNK         0.0600 
    153 H153       -4.8418  -18.3916  -45.1083 H         1 UNK         0.0600 
    154 H154       -2.6488  -17.4415  -45.8046 H         1 UNK         0.3000 
    155 H155        0.3292  -17.3663  -47.6693 H         1 UNK         0.0600 
    156 H156       -1.1997  -17.8284  -49.5623 H         1 UNK         0.0600 
    157 H157       -0.9720  -16.0967  -49.3985 H         1 UNK         0.0600 
    158 H158       -2.4623  -16.8468  -48.8305 H         1 UNK         0.0600 
    159 H159       -1.4236  -15.2487  -47.1393 H         1 UNK         0.3000 
    160 H160        0.3461  -14.0457  -44.6380 H         1 UNK         0.0600 
    161 H161       -2.4471  -13.7601  -45.8910 H         1 UNK         0.0600 
    162 H162       -0.9387  -13.2930  -46.6651 H         1 UNK         0.0600 
    163 H163       -1.4649  -12.4693  -45.2114 H         1 UNK         0.0600 
    164 H164       -0.6885  -14.3386  -42.7326 H         1 UNK         0.3000 
    165 H165       -3.2453  -14.1853  -41.5251 H         1 UNK         0.0600 
    166 H166       -4.3328  -16.0978  -40.3977 H         1 UNK         0.0600 
    167 H167       -4.9052  -15.9541  -42.0503 H         1 UNK         0.0600 
    168 H168       -3.7434  -17.2048  -41.6318 H         1 UNK         0.0600 
    169 H169       -1.4680  -14.6130  -40.2956 H         1 UNK         0.3000 
    170 H170        0.1726  -15.5383  -39.2444 H         1 UNK         0.0600 
    171 H171        0.6808  -18.5278  -39.6824 H         1 UNK         0.0600 
    172 H172        1.2993  -17.5395  -38.3589 H         1 UNK         0.0600 
    173 H173       -0.4236  -17.8547  -38.4898 H         1 UNK         0.0600 
    174 H174        2.2560  -16.8549  -40.5692 H         1 UNK         0.3000 
    175 H175        3.9203  -15.2666  -41.3872 H         1 UNK         0.0600 
    176 H176        2.5672  -16.1445  -43.9914 H         1 UNK         0.0600 
    177 H177        4.2984  -16.2065  -43.6810 H         1 UNK         0.0600 
    178 H178        3.2029  -17.2084  -42.7459 H         1 UNK         0.0600 
    179 H179        3.3528  -13.7919  -43.8216 H         1 UNK         0.3000 
    180 H180        3.4107  -10.6085  -42.5214 H         1 UNK         0.0600 
    181 H181        5.6434  -10.0875  -43.5183 H         1 UNK         0.0600 
    182 H182        6.1045  -11.7846  -43.3868 H         1 UNK         0.0600 
    183 H183        5.8068  -10.8345  -41.9369 H         1 UNK         0.0600 
    184 H184        4.2961  -11.6975  -45.0656 H         1 UNK         0.3000 
    185 H185        1.1245  -12.2877  -46.4024 H         1 UNK         0.0600 
    186 H186        2.6548   -9.6964  -46.9784 H         1 UNK         0.0600 
    187 H187        1.5058  -10.4846  -48.0612 H         1 UNK         0.0600 
    188 H188        0.9530   -9.7987  -46.5422 H         1 UNK         0.0600 
    189 H189        3.6267  -11.8535  -47.6886 H         1 UNK         0.3000 
    190 H190       -0.2063  -21.0477  -47.9220 H         1 UNK         0.3000 
    191 H191       -0.3982  -22.6339  -50.2701 H         1 UNK         0.0600 
    192 H192       -0.6018  -20.1340  -50.1656 H         1 UNK         0.0600 
    193 H193       -2.1379  -20.2977  -49.3274 H         1 UNK         0.0600 
    194 H194       -1.9690  -20.8699  -50.9775 H         1 UNK         0.0600 
    195 H195       -2.4202  -22.4135  -47.3873 H         1 UNK         0.3000 
    196 H196       -4.6948  -23.8579  -48.4504 H         1 UNK         0.0600 
    197 H197       -4.9085  -22.2853  -46.5340 H         1 UNK         0.0600 
    198 H198       -3.8432  -23.2972  -45.5583 H         1 UNK         0.0600 
    199 H199       -5.4140  -23.9018  -46.0685 H         1 UNK         0.0600 
    200 H200       -1.6980  -24.7344  -46.7495 H         1 UNK         0.3000 
    201 H201       -2.3830  -27.5227  -46.3316 H         1 UNK         0.0600 
    202 H202       -0.7800  -26.3370  -44.8458 H         1 UNK         0.0600 
    203 H203        0.3158  -26.0702  -46.2005 H         1 UNK         0.0600 
    204 H204       -0.0046  -27.7027  -45.6327 H         1 UNK         0.0600 
    205 H205       -0.4818  -25.6630  -48.7267 H         1 UNK         0.3000 
    206 H206        0.2736  -27.8841  -50.3726 H         1 UNK         0.0600 
    207 H207        1.4470  -25.6740  -50.3579 H         1 UNK         0.0600 
    208 H208        0.0131  -24.8995  -51.0312 H         1 UNK         0.0600 
    209 H209        0.9013  -26.0867  -51.9766 H         1 UNK         0.0600 
    210 H210       -2.6957  -26.1775  -50.0280 H         1 UNK         0.3000 
    211 H211       -4.6932  -26.1806  -50.9484 H         1 UNK         0.0600 
    212 H212       -3.9049  -28.7411  -52.4389 H         1 UNK         0.0600 
    213 H213       -5.5367  -28.1473  -52.1691 H         1 UNK         0.0600 
    214 H214       -4.5637  -28.6734  -50.8047 H         1 UNK         0.0600 
    215 H215       -3.0284  -24.3936  -51.9347 H         1 UNK         0.3000 
    216 H216       -2.9277  -24.3247  -54.8557 H         1 UNK         0.0600 
    217 H217       -1.8821  -22.1158  -54.4528 H         1 UNK         0.0600 
    218 H218       -1.1164  -23.3487  -53.4603 H         1 UNK         0.0600 
    219 H219       -2.2635  -22.2232  -52.7390 H         1 UNK         0.0600 
    220 H220       -5.2766  -24.8131  -54.7931 H         1 UNK         0.3000 
    221 H221       -7.3579  -24.3883  -55.4037 H         1 UNK         0.0600 
    222 H222       -6.8369  -21.3620  -55.3224 H         1 UNK         0.0600 
    223 H223       -6.5334  -22.3811  -56.7278 H         1 UNK         0.0600 
    224 H224       -8.1659  -22.1867  -56.1186 H         1 UNK         0.0600 
    225 H225       -9.4601  -23.3968  -54.5411 H         1 UNK         0.3000 
    226 H226       -9.6735  -23.7813  -51.7243 H         1 UNK         0.0600 
    227 H227      -11.5254  -24.2504  -53.3132 H         1 UNK         0.0600 
    228 H228      -12.0438  -23.0854  -52.1060 H         1 UNK         0.0600 
    229 H229      -11.6371  -22.5391  -53.7283 H         1 UNK         0.0600 
    230 H230       -8.9941  -20.9574  -53.6350 H         1 UNK         0.3000 
    231 H231       -9.5941  -18.9500  -51.6326 H         1 UNK         0.0600 
    232 H232       -8.4503  -17.4507  -53.2659 H         1 UNK         0.0600 
    233 H233       -7.9166  -18.8416  -54.2008 H         1 UNK         0.0600 
    234 H234       -9.6352  -18.4604  -54.0774 H         1 UNK         0.0600 
    235 H235       -6.9703  -21.1869  -52.0353 H         1 UNK         0.3000 
    236 H236       -4.8959  -21.4154  -51.2753 H         1 UNK         0.0600 
    237 H237       -5.9555  -19.7944  -48.8981 H         1 UNK         0.0600 
    238 H238       -6.0925  -21.5390  -49.1135 H         1 UNK         0.0600 
    239 H239       -4.5159  -20.8000  -48.8866 H         1 UNK         0.0600 
    240 H240       -4.5670  -19.9036  -53.2185 H         1 UNK         0.3000 
    241 H241       -3.5490  -18.3078  -54.3219 H         1 UNK         0.0600 
    242 H242       -5.8361  -15.6479  -52.5004 H         1 UNK         0.3800 
    243 H243       -5.7840  -17.3099  -51.9779 H         1 UNK         0.3800 
    244 H244       -1.8861  -17.7981  -51.8032 H         1 UNK         0.0800 
    245 H245       -1.5716  -17.0456  -53.3398 H         1 UNK         0.0800 
    246 H246        0.6252  -17.7232  -54.0962 H         1 UNK         0.0800 
    247 H247        1.2970  -19.3309  -54.0595 H         1 UNK         0.0800 
@<TRIPOS>BOND
     1    1    2 1    
     2    1  127 1    
     3    1  128 1    
     4    1  129 1    
     5    2    3 2    
     6    2    4 am   BACKBONE|DICT|INTERRES
     7    4    5 1    
     8    4  130 1    
     9    5    6 1    
    10    5   65 1    
    11    5  131 1    
    12    6    7 1    
    13    6  132 1    
    14    6  133 1    
    15    7    8 1    
    16    8    9 1    
    17    8  134 1    
    18    8  135 1    
    19    9   10 ar   
    20    9   14 ar   
    21   10   11 ar   
    22   10  136 1    
    23   11   12 ar   
    24   11  126 1    
    25   12   13 ar   
    26   12  137 1    
    27   13   14 ar   
    28   13   15 1    
    29   14  138 1    
    30   15   16 1    
    31   15  139 1    
    32   15  140 1    
    33   16   17 1    
    34   17   18 1    
    35   17  141 1    
    36   17  142 1    
    37   18   19 1    
    38   18   67 1    
    39   18  143 1    
    40   19   20 am   BACKBONE|DICT|INTERRES
    41   19  144 1    
    42   20   21 2    
    43   20   22 1    
    44   22   23 1    
    45   22   24 1    
    46   22  145 1    
    47   23  146 1    
    48   23  147 1    
    49   23  148 1    
    50   24   25 am   BACKBONE|DICT|INTERRES
    51   24  149 1    
    52   25   26 2    
    53   25   27 1    
    54   27   28 1    
    55   27   29 1    
    56   27  150 1    
    57   28  151 1    
    58   28  152 1    
    59   28  153 1    
    60   29   30 am   BACKBONE|DICT|INTERRES
    61   29  154 1    
    62   30   31 2    
    63   30   32 1    
    64   32   33 1    
    65   32   34 1    
    66   32  155 1    
    67   33  156 1    
    68   33  157 1    
    69   33  158 1    
    70   34   35 am   BACKBONE|DICT|INTERRES
    71   34  159 1    
    72   35   36 2    
    73   35   37 1    
    74   37   38 1    
    75   37   39 1    
    76   37  160 1    
    77   38  161 1    
    78   38  162 1    
    79   38  163 1    
    80   39   40 am   BACKBONE|DICT|INTERRES
    81   39  164 1    
    82   40   41 2    
    83   40   42 1    
    84   42   43 1    
    85   42   44 1    
    86   42  165 1    
    87   43  166 1    
    88   43  167 1    
    89   43  168 1    
    90   44   45 am   BACKBONE|DICT|INTERRES
    91   44  169 1    
    92   45   46 2    
    93   45   47 1    
    94   47   48 1    
    95   47   49 1    
    96   47  170 1    
    97   48  171 1    
    98   48  172 1    
    99   48  173 1    
   100   49   50 am   BACKBONE|DICT|INTERRES
   101   49  174 1    
   102   50   51 2    
   103   50   52 1    
   104   52   53 1    
   105   52   54 1    
   106   52  175 1    
   107   53  176 1    
   108   53  177 1    
   109   53  178 1    
   110   54   55 am   BACKBONE|DICT|INTERRES
   111   54  179 1    
   112   55   56 2    
   113   55   57 1    
   114   57   58 1    
   115   57   59 1    
   116   57  180 1    
   117   58  181 1    
   118   58  182 1    
   119   58  183 1    
   120   59   60 am   BACKBONE|DICT|INTERRES
   121   59  184 1    
   122   60   61 2    
   123   60   62 1    
   124   62   63 1    
   125   62   64 1    
   126   62  185 1    
   127   63  186 1    
   128   63  187 1    
   129   63  188 1    
   130   64   65 am   BACKBONE|DICT|INTERRES
   131   64  189 1    
   132   65   66 2    
   133   67   68 2    
   134   67   69 am   BACKBONE|DICT|INTERRES
   135   69   70 1    
   136   69  190 1    
   137   70   71 1    
   138   70   72 1    
   139   70  191 1    
   140   71  192 1    
   141   71  193 1    
   142   71  194 1    
   143   72   73 2    
   144   72   74 am   BACKBONE|DICT|INTERRES
   145   74   75 1    
   146   74  195 1    
   147   75   76 1    
   148   75   77 1    
   149   75  196 1    
   150   76  197 1    
   151   76  198 1    
   152   76  199 1    
   153   77   78 2    
   154   77   79 am   BACKBONE|DICT|INTERRES
   155   79   80 1    
   156   79  200 1    
   157   80   81 1    
   158   80   82 1    
   159   80  201 1    
   160   81  202 1    
   161   81  203 1    
   162   81  204 1    
   163   82   83 2    
   164   82   84 am   BACKBONE|DICT|INTERRES
   165   84   85 1    
   166   84  205 1    
   167   85   86 1    
   168   85   87 1    
   169   85  206 1    
   170   86  207 1    
   171   86  208 1    
   172   86  209 1    
   173   87   88 2    
   174   87   89 am   BACKBONE|DICT|INTERRES
   175   89   90 1    
   176   89  210 1    
   177   90   91 1    
   178   90   92 1    
   179   90  211 1    
   180   91  212 1    
   181   91  213 1    
   182   91  214 1    
   183   92   93 2    
   184   92   94 am   BACKBONE|DICT|INTERRES
   185   94   95 1    
   186   94  215 1    
   187   95   96 1    
   188   95   97 1    
   189   95  216 1    
   190   96  217 1    
   191   96  218 1    
   192   96  219 1    
   193   97   98 2    
   194   97   99 am   BACKBONE|DICT|INTERRES
   195   99  100 1    
   196   99  220 1    
   197  100  101 1    
   198  100  102 1    
   199  100  221 1    
   200  101  222 1    
   201  101  223 1    
   202  101  224 1    
   203  102  103 2    
   204  102  104 am   BACKBONE|DICT|INTERRES
   205  104  105 1    
   206  104  225 1    
   207  105  106 1    
   208  105  107 1    
   209  105  226 1    
   210  106  227 1    
   211  106  228 1    
   212  106  229 1    
   213  107  108 2    
   214  107  109 am   BACKBONE|DICT|INTERRES
   215  109  110 1    
   216  109  230 1    
   217  110  111 1    
   218  110  112 1    
   219  110  231 1    
   220  111  232 1    
   221  111  233 1    
   222  111  234 1    
   223  112  113 2    
   224  112  114 am   BACKBONE|DICT|INTERRES
   225  114  115 1    
   226  114  235 1    
   227  115  116 1    
   228  115  117 1    
   229  115  236 1    
   230  116  237 1    
   231  116  238 1    
   232  116  239 1    
   233  117  118 2    
   234  117  119 am   BACKBONE|DICT|INTERRES
   235  119  120 1    
   236  119  240 1    
   237  120  121 1    
   238  120  124 1    
   239  120  241 1    
   240  121  122 am   BACKBONE|DICT|INTERRES
   241  121  123 2    
   242  122  242 1    
   243  122  243 1    
   244  124  125 1    
   245  124  244 1    
   246  124  245 1    
   247  125  126 1    
   248  126  246 1    
   249  126  247 1    
@<TRIPOS>SUBSTRUCTURE
     1 UNK         1 GROUP             0       ****    0 ROOT    
