@<TRIPOS>MOLECULE
3R540
247   249    1
SMALL
USER_CHARGES


@<TRIPOS>ATOM
      1 CA          8.0182  -11.0360  -46.6883 C.3       0 UNK        -0.1800 
      2 C           7.3477  -12.2547  -47.3066 C.2       0 UNK         0.5000 
      3 O           7.8648  -13.3655  -47.1857 O.2       0 UNK        -0.5000 
      4 N           6.2024  -12.0511  -47.9697 N.am      1 UNK        -0.5000 
      5 CA          5.3652  -13.1089  -48.5422 C.3       1 UNK         0.1400 
      6 C6          4.3367  -12.5187  -49.5368 C.3       23 UNK        -0.0398 
      7 S7          3.6574  -13.7754  -50.6706 S.3       23 UNK        -0.2404 
      8 C8          1.9469  -13.8765  -50.0648 C.3       23 UNK        -0.0205 
      9 C9          1.2843  -15.1845  -50.4661 C.ar      23 UNK        -0.0193 
     10 C10         0.2016  -15.1983  -51.3503 C.ar      23 UNK        -0.1150 
     11 C11        -0.4353  -16.3989  -51.6847 C.ar      23 UNK        -0.0193 
     12 C12         0.0347  -17.5949  -51.1248 C.ar      23 UNK        -0.1150 
     13 C13         1.1049  -17.5914  -50.2279 C.ar      23 UNK        -0.0193 
     14 C14         1.7339  -16.3860  -49.9156 C.ar      23 UNK        -0.1150 
     15 C15         1.5755  -18.8789  -49.5730 C.3       23 UNK        -0.0205 
     16 S16         0.9071  -19.0283  -47.8852 S.3       23 UNK        -0.2404 
     17 C17        -0.7481  -19.7297  -48.2028 C.3       23 UNK        -0.0398 
     18 CA         -0.8652  -21.1569  -47.6195 C.3       11 UNK         0.1400 
     19 N          -0.7685  -21.1582  -46.1567 N.am      11 UNK        -0.5000 
     20 C          -0.5984  -22.2476  -45.3971 C.2       10 UNK         0.5000 
     21 O          -0.4902  -23.3874  -45.8462 O.2       10 UNK        -0.5000 
     22 CA         -0.6068  -22.0247  -43.8755 C.3       10 UNK         0.1400 
     23 CB          0.7427  -21.4692  -43.3947 C.3       10 UNK        -0.1800 
     24 N          -1.6867  -21.1253  -43.4672 N.am      10 UNK        -0.5000 
     25 C          -2.9889  -21.4434  -43.5346 C.2       9 UNK         0.5000 
     26 O          -3.4028  -22.5396  -43.9094 O.2       9 UNK        -0.5000 
     27 CA         -4.0058  -20.3466  -43.1653 C.3       9 UNK         0.1400 
     28 CB         -4.3127  -20.3852  -41.6611 C.3       9 UNK        -0.1800 
     29 N          -3.5680  -19.0000  -43.5293 N.am      9 UNK        -0.5000 
     30 C          -3.2589  -18.5874  -44.7670 C.2       8 UNK         0.5000 
     31 O          -3.3586  -19.2934  -45.7694 O.2       8 UNK        -0.5000 
     32 CA         -2.6912  -17.1626  -44.8975 C.3       8 UNK         0.1400 
     33 CB         -3.7993  -16.1787  -45.2953 C.3       8 UNK        -0.1800 
     34 N          -2.0376  -16.6780  -43.6776 N.am      8 UNK        -0.5000 
     35 C          -0.9471  -17.2209  -43.1223 C.2       7 UNK         0.5000 
     36 O          -0.3679  -18.2130  -43.5720 O.2       7 UNK        -0.5000 
     37 CA         -0.4566  -16.5797  -41.8218 C.3       7 UNK         0.1400 
     38 CB         -1.1175  -17.2579  -40.6073 C.3       7 UNK        -0.1800 
     39 N           0.9922  -16.7174  -41.7537 N.am      7 UNK        -0.5000 
     40 C           1.8019  -15.9827  -40.9852 C.2       6 UNK         0.5000 
     41 O           1.4013  -15.1135  -40.2093 O.2       6 UNK        -0.5000 
     42 CA          3.3122  -16.2336  -41.1092 C.3       6 UNK         0.1400 
     43 CB          3.6756  -17.6478  -41.6067 C.3       6 UNK        -0.1800 
     44 N           3.8469  -15.2366  -42.0294 N.am      6 UNK        -0.5000 
     45 C           4.6230  -14.2035  -41.6802 C.2       5 UNK         0.5000 
     46 O           5.0726  -14.0328  -40.5460 O.2       5 UNK        -0.5000 
     47 CA          4.9474  -13.1740  -42.7784 C.3       5 UNK         0.1400 
     48 CB          6.1520  -13.6282  -43.6159 C.3       5 UNK        -0.1800 
     49 N           3.8179  -12.8938  -43.6662 N.am      5 UNK        -0.5000 
     50 C           2.7098  -12.2286  -43.3081 C.2       4 UNK         0.5000 
     51 O           2.5012  -11.8076  -42.1701 O.2       4 UNK        -0.5000 
     52 CA          1.6647  -11.9775  -44.4082 C.3       4 UNK         0.1400 
     53 CB          2.0665  -10.7689  -45.2690 C.3       4 UNK        -0.1800 
     54 N           1.5122  -13.1484  -45.2685 N.am      4 UNK        -0.5000 
     55 C           0.5640  -14.0829  -45.1196 C.2       3 UNK         0.5000 
     56 O          -0.3343  -14.0173  -44.2806 O.2       3 UNK        -0.5000 
     57 CA          0.6291  -15.3064  -46.0574 C.3       3 UNK         0.1400 
     58 CB         -0.3436  -15.1416  -47.2351 C.3       3 UNK        -0.1800 
     59 N           1.9751  -15.5901  -46.5611 N.am      3 UNK        -0.5000 
     60 C           2.9881  -16.0013  -45.7867 C.2       2 UNK         0.5000 
     61 O           2.8874  -16.1702  -44.5726 O.2       2 UNK        -0.5000 
     62 CA          4.3592  -16.2047  -46.4578 C.3       2 UNK         0.1400 
     63 CB          4.4947  -17.6384  -46.9880 C.3       2 UNK        -0.1800 
     64 N           4.6998  -15.2520  -47.5230 N.am      2 UNK        -0.5000 
     65 C           4.6956  -13.9159  -47.4075 C.2       1 UNK         0.5000 
     66 O           4.2018  -13.3137  -46.4512 O.2       1 UNK        -0.5000 
     67 C          -2.1465  -21.8635  -48.1056 C.2       11 UNK         0.5000 
     68 O          -2.0952  -22.5985  -49.0927 O.2       11 UNK        -0.5000 
     69 N          -3.2564  -21.6677  -47.3809 N.am      12 UNK        -0.5000 
     70 CA         -4.5309  -22.3448  -47.6087 C.3       12 UNK         0.1400 
     71 CB         -5.6142  -21.7090  -46.7248 C.3       12 UNK        -0.1800 
     72 C          -4.4464  -23.8616  -47.3655 C.2       12 UNK         0.5000 
     73 O          -4.9256  -24.6316  -48.1985 O.2       12 UNK        -0.5000 
     74 N          -3.8121  -24.2624  -46.2530 N.am      13 UNK        -0.5000 
     75 CA         -3.5766  -25.6602  -45.8812 C.3       13 UNK         0.1400 
     76 CB         -3.0583  -25.7299  -44.4370 C.3       13 UNK        -0.1800 
     77 C          -2.6102  -26.3817  -46.8378 C.2       13 UNK         0.5000 
     78 O          -2.8313  -27.5502  -47.1571 O.2       13 UNK        -0.5000 
     79 N          -1.5782  -25.6651  -47.3044 N.am      14 UNK        -0.5000 
     80 CA         -0.6294  -26.1264  -48.3210 C.3       14 UNK         0.1400 
     81 CB          0.5926  -25.1944  -48.3210 C.3       14 UNK        -0.1800 
     82 C          -1.2354  -26.2069  -49.7373 C.2       14 UNK         0.5000 
     83 O          -0.6313  -26.8321  -50.6096 O.2       14 UNK        -0.5000 
     84 N          -2.3984  -25.5689  -49.9377 N.am      15 UNK        -0.5000 
     85 CA         -3.1335  -25.4153  -51.1932 C.3       15 UNK         0.1400 
     86 CB         -3.6747  -26.7723  -51.6902 C.3       15 UNK        -0.1800 
     87 C          -2.3106  -24.6529  -52.2500 C.2       15 UNK         0.5000 
     88 O          -2.1718  -25.1120  -53.3864 O.2       15 UNK        -0.5000 
     89 N          -1.7615  -23.5006  -51.8397 N.am      16 UNK        -0.5000 
     90 CA         -1.0506  -22.5580  -52.7009 C.3       16 UNK         0.1400 
     91 CB         -0.4607  -21.4351  -51.8363 C.3       16 UNK        -0.1800 
     92 C          -1.9940  -21.9875  -53.7753 C.2       16 UNK         0.5000 
     93 O          -3.0347  -21.4289  -53.4292 O.2       16 UNK        -0.5000 
     94 N          -1.6312  -22.1809  -55.0499 N.am      17 UNK        -0.5000 
     95 CA         -2.4029  -21.9067  -56.2708 C.3       17 UNK         0.1400 
     96 CB         -2.8543  -20.4350  -56.3649 C.3       17 UNK        -0.1800 
     97 C          -3.5808  -22.8806  -56.4850 C.2       17 UNK         0.5000 
     98 O          -3.7066  -23.4364  -57.5771 O.2       17 UNK        -0.5000 
     99 N          -4.3964  -23.0978  -55.4493 N.am      18 UNK        -0.5000 
    100 CA        -5.5049  -24.0468  -55.3937 C.3       18 UNK         0.1400 
    101 CB        -6.6979  -23.5338  -56.2273 C.3       18 UNK        -0.1800 
    102 C         -5.8870  -24.2735  -53.9212 C.2       18 UNK         0.5000 
    103 O         -5.3036  -23.6509  -53.0319 O.2       18 UNK        -0.5000 
    104 N         -6.8611  -25.1585  -53.6739 N.am      19 UNK        -0.5000 
    105 CA        -7.4302  -25.3977  -52.3456 C.3       19 UNK         0.1400 
    106 CB        -8.4088  -26.5792  -52.4179 C.3       19 UNK        -0.1800 
    107 C         -8.1306  -24.1373  -51.8002 C.2       19 UNK         0.5000 
    108 O         -8.8990  -23.5073  -52.5321 O.2       19 UNK        -0.5000 
    109 N         -7.8398  -23.7973  -50.5370 N.am      20 UNK        -0.5000 
    110 CA        -8.2285  -22.5788  -49.8171 C.3       20 UNK         0.1400 
    111 CB        -9.7586  -22.4311  -49.6906 C.3       20 UNK        -0.1800 
    112 C         -7.5544  -21.3182  -50.3928 C.2       20 UNK         0.5000 
    113 O         -6.6740  -20.7669  -49.7336 O.2       20 UNK        -0.5000 
    114 N         -7.9621  -20.9217  -51.6081 N.am      21 UNK        -0.5000 
    115 CA        -7.4101  -19.8794  -52.4834 C.3       21 UNK         0.1400 
    116 CB        -6.3138  -20.4983  -53.3700 C.3       21 UNK        -0.1800 
    117 C         -6.9403  -18.5994  -51.7600 C.2       21 UNK         0.5000 
    118 O         -7.7589  -17.7195  -51.4889 O.2       21 UNK        -0.5000 
    119 N         -5.6344  -18.5274  -51.4746 N.am      22 UNK        -0.5000 
    120 CA        -4.9542  -17.4329  -50.7672 C.3       22 UNK         0.1400 
    121 C         -5.3974  -17.2285  -49.2888 C.2       22 UNK         0.5000 
    122 N         -6.0032  -18.2098  -48.6314 N.am      22 UNK        -0.7600 
    123 O         -5.1891  -16.1537  -48.7340 O.2       22 UNK        -0.5000 
    124 C124       -3.4137  -17.5926  -50.8347 C.3       23 UNK        -0.0398 
    125 S125       -2.7778  -17.7657  -52.5401 S.3       23 UNK        -0.2404 
    126 C126       -1.6172  -16.3589  -52.6564 C.3       23 UNK        -0.0205 
    127 H127        9.0181  -10.9069  -47.1025 H         1 UNK         0.0600 
    128 H128        8.1085  -11.1652  -45.6098 H         1 UNK         0.0600 
    129 H129        7.4520  -10.1231  -46.8747 H         1 UNK         0.0600 
    130 H130        5.8159  -11.1189  -48.0052 H         1 UNK         0.3000 
    131 H131        6.0298  -13.7763  -49.0958 H         1 UNK         0.0600 
    132 H132        3.5378  -11.9869  -49.0161 H         1 UNK         0.0800 
    133 H133        4.8237  -11.7720  -50.1658 H         1 UNK         0.0800 
    134 H134        1.3840  -13.0210  -50.4413 H         1 UNK         0.0800 
    135 H135        1.9382  -13.7961  -48.9782 H         1 UNK         0.0800 
    136 H136       -0.1524  -14.2693  -51.7752 H         1 UNK         0.1150 
    137 H137       -0.4364  -18.5330  -51.3733 H         1 UNK         0.1150 
    138 H138        2.5704  -16.3833  -49.2340 H         1 UNK         0.1150 
    139 H139        1.2957  -19.7483  -50.1683 H         1 UNK         0.0800 
    140 H140        2.6648  -18.8879  -49.5306 H         1 UNK         0.0800 
    141 H141       -0.9396  -19.7329  -49.2756 H         1 UNK         0.0800 
    142 H142       -1.4973  -19.0670  -47.7669 H         1 UNK         0.0800 
    143 H143       -0.0264  -21.7426  -48.0021 H         1 UNK         0.0600 
    144 H144       -0.8648  -20.2627  -45.7004 H         1 UNK         0.3000 
    145 H145       -0.7672  -22.9919  -43.3942 H         1 UNK         0.0600 
    146 H146        0.7481  -21.3236  -42.3145 H         1 UNK         0.0600 
    147 H147        1.5531  -22.1585  -43.6347 H         1 UNK         0.0600 
    148 H148        0.9790  -20.5131  -43.8629 H         1 UNK         0.0600 
    149 H149       -1.4198  -20.1856  -43.2024 H         1 UNK         0.3000 
    150 H150       -4.9298  -20.5516  -43.7084 H         1 UNK         0.0600 
    151 H151       -4.6615  -21.3738  -41.3592 H         1 UNK         0.0600 
    152 H152       -5.0950  -19.6726  -41.3991 H         1 UNK         0.0600 
    153 H153       -3.4305  -20.1513  -41.0636 H         1 UNK         0.0600 
    154 H154       -3.4556  -18.3431  -42.7722 H         1 UNK         0.3000 
    155 H155       -1.9463  -17.1855  -45.6949 H         1 UNK         0.0600 
    156 H156       -4.5677  -16.1038  -44.5250 H         1 UNK         0.0600 
    157 H157       -3.3995  -15.1798  -45.4697 H         1 UNK         0.0600 
    158 H158       -4.2885  -16.4974  -46.2160 H         1 UNK         0.0600 
    159 H159       -2.4395  -15.8534  -43.2545 H         1 UNK         0.3000 
    160 H160       -0.7131  -15.5181  -41.8366 H         1 UNK         0.0600 
    161 H161       -0.8652  -18.3179  -40.5540 H         1 UNK         0.0600 
    162 H162       -2.2042  -17.1802  -40.6571 H         1 UNK         0.0600 
    163 H163       -0.8052  -16.7933  -39.6721 H         1 UNK         0.0600 
    164 H164        1.3824  -17.3805  -42.4125 H         1 UNK         0.3000 
    165 H165        3.7393  -16.1152  -40.1114 H         1 UNK         0.0600 
    166 H166        4.7559  -17.7925  -41.6001 H         1 UNK         0.0600 
    167 H167        3.2444  -18.4118  -40.9585 H         1 UNK         0.0600 
    168 H168        3.3280  -17.8401  -42.6214 H         1 UNK         0.0600 
    169 H169        3.5077  -15.3048  -42.9853 H         1 UNK         0.3000 
    170 H170        5.2194  -12.2396  -42.2828 H         1 UNK         0.0600 
    171 H171        7.0262  -13.7938  -42.9852 H         1 UNK         0.0600 
    172 H172        5.9475  -14.5588  -44.1435 H         1 UNK         0.0600 
    173 H173        6.4230  -12.8763  -44.3569 H         1 UNK         0.0600 
    174 H174        3.9329  -13.1546  -44.6421 H         1 UNK         0.3000 
    175 H175        0.7154  -11.7408  -43.9228 H         1 UNK         0.0600 
    176 H176        1.3107  -10.5570  -46.0252 H         1 UNK         0.0600 
    177 H177        3.0155  -10.9313  -45.7814 H         1 UNK         0.0600 
    178 H178        2.1739   -9.8729  -44.6563 H         1 UNK         0.0600 
    179 H179        2.2524  -13.3046  -45.9429 H         1 UNK         0.3000 
    180 H180        0.3116  -16.1769  -45.4832 H         1 UNK         0.0600 
    181 H181       -0.0832  -14.2885  -47.8606 H         1 UNK         0.0600 
    182 H182       -1.3612  -14.9793  -46.8795 H         1 UNK         0.0600 
    183 H183       -0.3617  -16.0325  -47.8632 H         1 UNK         0.0600 
    184 H184        2.1327  -15.4704  -47.5487 H         1 UNK         0.3000 
    185 H185        5.1092  -16.0786  -45.6759 H         1 UNK         0.0600 
    186 H186        4.2488  -18.3682  -46.2151 H         1 UNK         0.0600 
    187 H187        3.8293  -17.8188  -47.8298 H         1 UNK         0.0600 
    188 H188        5.5138  -17.8447  -47.3152 H         1 UNK         0.0600 
    189 H189        5.1121  -15.6546  -48.3523 H         1 UNK         0.3000 
    190 H190       -3.2324  -20.9836  -46.6294 H         1 UNK         0.3000 
    191 H191       -4.8018  -22.1939  -48.6547 H         1 UNK         0.0600 
    192 H192       -5.3853  -21.8185  -45.6658 H         1 UNK         0.0600 
    193 H193       -6.5846  -22.1738  -46.8960 H         1 UNK         0.0600 
    194 H194       -5.7199  -20.6452  -46.9366 H         1 UNK         0.0600 
    195 H195       -3.4894  -23.5625  -45.5912 H         1 UNK         0.3000 
    196 H196       -4.5344  -26.1828  -45.9232 H         1 UNK         0.0600 
    197 H197       -2.8766  -26.7620  -44.1348 H         1 UNK         0.0600 
    198 H198       -3.7823  -25.3100  -43.7386 H         1 UNK         0.0600 
    199 H199       -2.1227  -25.1820  -44.3186 H         1 UNK         0.0600 
    200 H200       -1.4177  -24.7354  -46.9272 H         1 UNK         0.3000 
    201 H201       -0.2951  -27.1296  -48.0490 H         1 UNK         0.0600 
    202 H202        1.0736  -25.1735  -47.3430 H         1 UNK         0.0600 
    203 H203        0.3157  -24.1723  -48.5814 H         1 UNK         0.0600 
    204 H204        1.3402  -25.5260  -49.0427 H         1 UNK         0.0600 
    205 H205       -2.7901  -25.0678  -49.1514 H         1 UNK         0.3000 
    206 H206       -3.9933  -24.7849  -50.9622 H         1 UNK         0.0600 
    207 H207       -4.3059  -26.6404  -52.5694 H         1 UNK         0.0600 
    208 H208       -2.8716  -27.4558  -51.9664 H         1 UNK         0.0600 
    209 H209       -4.2810  -27.2568  -50.9250 H         1 UNK         0.0600 
    210 H210       -1.9301  -23.1970  -50.8837 H         1 UNK         0.3000 
    211 H211       -0.2290  -23.0928  -53.1815 H         1 UNK         0.0600 
    212 H212       -1.2472  -20.8622  -51.3441 H         1 UNK         0.0600 
    213 H213        0.1228  -20.7417  -52.4429 H         1 UNK         0.0600 
    214 H214        0.1982  -21.8342  -51.0650 H         1 UNK         0.0600 
    215 H215       -0.7692  -22.6829  -55.2120 H         1 UNK         0.3000 
    216 H216       -1.7061  -22.0779  -57.0928 H         1 UNK         0.0600 
    217 H217       -3.2826  -20.2262  -57.3458 H         1 UNK         0.0600 
    218 H218       -2.0148  -19.7543  -56.2239 H         1 UNK         0.0600 
    219 H219       -3.6149  -20.1875  -55.6241 H         1 UNK         0.0600 
    220 H220       -4.1994  -22.6324  -54.5648 H         1 UNK         0.3000 
    221 H221       -5.1648  -25.0031  -55.7955 H         1 UNK         0.0600 
    222 H222       -7.0576  -22.5699  -55.8692 H         1 UNK         0.0600 
    223 H223       -6.4294  -23.4163  -57.2770 H         1 UNK         0.0600 
    224 H224       -7.5370  -24.2289  -56.1933 H         1 UNK         0.0600 
    225 H225       -7.3179  -25.6181  -54.4476 H         1 UNK         0.3000 
    226 H226       -6.6134  -25.6694  -51.6735 H         1 UNK         0.0600 
    227 H227       -7.9089  -27.4857  -52.7599 H         1 UNK         0.0600 
    228 H228       -8.8340  -26.7935  -51.4365 H         1 UNK         0.0600 
    229 H229       -9.2375  -26.3745  -53.0970 H         1 UNK         0.0600 
    230 H230       -7.1784  -24.3779  -50.0391 H         1 UNK         0.3000 
    231 H231       -7.8409  -22.7053  -48.8062 H         1 UNK         0.0600 
    232 H232      -10.0117  -21.5664  -49.0760 H         1 UNK         0.0600 
    233 H233      -10.1976  -23.3072  -49.2135 H         1 UNK         0.0600 
    234 H234      -10.2498  -22.2963  -50.6540 H         1 UNK         0.0600 
    235 H235       -8.6605  -21.5137  -52.0442 H         1 UNK         0.3000 
    236 H236       -8.2234  -19.5720  -53.1422 H         1 UNK         0.0600 
    237 H237       -6.7299  -21.2754  -54.0076 H         1 UNK         0.0600 
    238 H238       -5.8534  -19.7555  -54.0228 H         1 UNK         0.0600 
    239 H239       -5.5257  -20.9556  -52.7722 H         1 UNK         0.0600 
    240 H240       -5.0483  -19.3070  -51.7363 H         1 UNK         0.3000 
    241 H241       -5.2150  -16.5123  -51.2922 H         1 UNK         0.0600 
    242 H242       -6.1903  -19.1023  -49.0845 H         1 UNK         0.3800 
    243 H243       -6.2875  -18.0642  -47.6776 H         1 UNK         0.3800 
    244 H244       -2.9263  -16.7420  -50.3544 H         1 UNK         0.0800 
    245 H245       -3.1010  -18.4745  -50.2728 H         1 UNK         0.0800 
    246 H246       -1.2229  -16.3228  -53.6725 H         1 UNK         0.0800 
    247 H247       -2.1839  -15.4377  -52.5120 H         1 UNK         0.0800 
@<TRIPOS>BOND
     1    1    2 1    
     2    1  127 1    
     3    1  128 1    
     4    1  129 1    
     5    2    3 2    
     6    2    4 am   BACKBONE|DICT|INTERRES
     7    4    5 1    
     8    4  130 1    
     9    5    6 1    
    10    5   65 1    
    11    5  131 1    
    12    6    7 1    
    13    6  132 1    
    14    6  133 1    
    15    7    8 1    
    16    8    9 1    
    17    8  134 1    
    18    8  135 1    
    19    9   10 ar   
    20    9   14 ar   
    21   10   11 ar   
    22   10  136 1    
    23   11   12 ar   
    24   11  126 1    
    25   12   13 ar   
    26   12  137 1    
    27   13   14 ar   
    28   13   15 1    
    29   14  138 1    
    30   15   16 1    
    31   15  139 1    
    32   15  140 1    
    33   16   17 1    
    34   17   18 1    
    35   17  141 1    
    36   17  142 1    
    37   18   19 1    
    38   18   67 1    
    39   18  143 1    
    40   19   20 am   BACKBONE|DICT|INTERRES
    41   19  144 1    
    42   20   21 2    
    43   20   22 1    
    44   22   23 1    
    45   22   24 1    
    46   22  145 1    
    47   23  146 1    
    48   23  147 1    
    49   23  148 1    
    50   24   25 am   BACKBONE|DICT|INTERRES
    51   24  149 1    
    52   25   26 2    
    53   25   27 1    
    54   27   28 1    
    55   27   29 1    
    56   27  150 1    
    57   28  151 1    
    58   28  152 1    
    59   28  153 1    
    60   29   30 am   BACKBONE|DICT|INTERRES
    61   29  154 1    
    62   30   31 2    
    63   30   32 1    
    64   32   33 1    
    65   32   34 1    
    66   32  155 1    
    67   33  156 1    
    68   33  157 1    
    69   33  158 1    
    70   34   35 am   BACKBONE|DICT|INTERRES
    71   34  159 1    
    72   35   36 2    
    73   35   37 1    
    74   37   38 1    
    75   37   39 1    
    76   37  160 1    
    77   38  161 1    
    78   38  162 1    
    79   38  163 1    
    80   39   40 am   BACKBONE|DICT|INTERRES
    81   39  164 1    
    82   40   41 2    
    83   40   42 1    
    84   42   43 1    
    85   42   44 1    
    86   42  165 1    
    87   43  166 1    
    88   43  167 1    
    89   43  168 1    
    90   44   45 am   BACKBONE|DICT|INTERRES
    91   44  169 1    
    92   45   46 2    
    93   45   47 1    
    94   47   48 1    
    95   47   49 1    
    96   47  170 1    
    97   48  171 1    
    98   48  172 1    
    99   48  173 1    
   100   49   50 am   BACKBONE|DICT|INTERRES
   101   49  174 1    
   102   50   51 2    
   103   50   52 1    
   104   52   53 1    
   105   52   54 1    
   106   52  175 1    
   107   53  176 1    
   108   53  177 1    
   109   53  178 1    
   110   54   55 am   BACKBONE|DICT|INTERRES
   111   54  179 1    
   112   55   56 2    
   113   55   57 1    
   114   57   58 1    
   115   57   59 1    
   116   57  180 1    
   117   58  181 1    
   118   58  182 1    
   119   58  183 1    
   120   59   60 am   BACKBONE|DICT|INTERRES
   121   59  184 1    
   122   60   61 2    
   123   60   62 1    
   124   62   63 1    
   125   62   64 1    
   126   62  185 1    
   127   63  186 1    
   128   63  187 1    
   129   63  188 1    
   130   64   65 am   BACKBONE|DICT|INTERRES
   131   64  189 1    
   132   65   66 2    
   133   67   68 2    
   134   67   69 am   BACKBONE|DICT|INTERRES
   135   69   70 1    
   136   69  190 1    
   137   70   71 1    
   138   70   72 1    
   139   70  191 1    
   140   71  192 1    
   141   71  193 1    
   142   71  194 1    
   143   72   73 2    
   144   72   74 am   BACKBONE|DICT|INTERRES
   145   74   75 1    
   146   74  195 1    
   147   75   76 1    
   148   75   77 1    
   149   75  196 1    
   150   76  197 1    
   151   76  198 1    
   152   76  199 1    
   153   77   78 2    
   154   77   79 am   BACKBONE|DICT|INTERRES
   155   79   80 1    
   156   79  200 1    
   157   80   81 1    
   158   80   82 1    
   159   80  201 1    
   160   81  202 1    
   161   81  203 1    
   162   81  204 1    
   163   82   83 2    
   164   82   84 am   BACKBONE|DICT|INTERRES
   165   84   85 1    
   166   84  205 1    
   167   85   86 1    
   168   85   87 1    
   169   85  206 1    
   170   86  207 1    
   171   86  208 1    
   172   86  209 1    
   173   87   88 2    
   174   87   89 am   BACKBONE|DICT|INTERRES
   175   89   90 1    
   176   89  210 1    
   177   90   91 1    
   178   90   92 1    
   179   90  211 1    
   180   91  212 1    
   181   91  213 1    
   182   91  214 1    
   183   92   93 2    
   184   92   94 am   BACKBONE|DICT|INTERRES
   185   94   95 1    
   186   94  215 1    
   187   95   96 1    
   188   95   97 1    
   189   95  216 1    
   190   96  217 1    
   191   96  218 1    
   192   96  219 1    
   193   97   98 2    
   194   97   99 am   BACKBONE|DICT|INTERRES
   195   99  100 1    
   196   99  220 1    
   197  100  101 1    
   198  100  102 1    
   199  100  221 1    
   200  101  222 1    
   201  101  223 1    
   202  101  224 1    
   203  102  103 2    
   204  102  104 am   BACKBONE|DICT|INTERRES
   205  104  105 1    
   206  104  225 1    
   207  105  106 1    
   208  105  107 1    
   209  105  226 1    
   210  106  227 1    
   211  106  228 1    
   212  106  229 1    
   213  107  108 2    
   214  107  109 am   BACKBONE|DICT|INTERRES
   215  109  110 1    
   216  109  230 1    
   217  110  111 1    
   218  110  112 1    
   219  110  231 1    
   220  111  232 1    
   221  111  233 1    
   222  111  234 1    
   223  112  113 2    
   224  112  114 am   BACKBONE|DICT|INTERRES
   225  114  115 1    
   226  114  235 1    
   227  115  116 1    
   228  115  117 1    
   229  115  236 1    
   230  116  237 1    
   231  116  238 1    
   232  116  239 1    
   233  117  118 2    
   234  117  119 am   BACKBONE|DICT|INTERRES
   235  119  120 1    
   236  119  240 1    
   237  120  121 1    
   238  120  124 1    
   239  120  241 1    
   240  121  122 am   BACKBONE|DICT|INTERRES
   241  121  123 2    
   242  122  242 1    
   243  122  243 1    
   244  124  125 1    
   245  124  244 1    
   246  124  245 1    
   247  125  126 1    
   248  126  246 1    
   249  126  247 1    
@<TRIPOS>SUBSTRUCTURE
     1 UNK         1 GROUP             0       ****    0 ROOT    
