@<TRIPOS>MOLECULE
3R540
247   249    1
SMALL
USER_CHARGES


@<TRIPOS>ATOM
      1 CA         -4.2177  -17.8403  -44.8134 C.3       0 UNK        -0.1800 
      2 C          -3.8960  -16.7471  -45.8226 C.2       0 UNK         0.5000 
      3 O          -4.8078  -16.1339  -46.3771 O.2       0 UNK        -0.5000 
      4 N          -2.6034  -16.5130  -46.0713 N.am      1 UNK        -0.5000 
      5 CA         -2.0889  -15.4539  -46.9440 C.3       1 UNK         0.1400 
      6 C6         -0.6258  -15.7272  -47.3735 C.3       23 UNK        -0.0398 
      7 S7         -0.4493  -17.3183  -48.2452 S.3       23 UNK        -0.2404 
      8 C8          1.3628  -17.4631  -48.3758 C.3       23 UNK        -0.0205 
      9 C9          1.7789  -18.8215  -48.9280 C.ar      23 UNK        -0.0193 
     10 C10         1.2877  -19.2554  -50.1629 C.ar      23 UNK        -0.1150 
     11 C11         1.6163  -20.5189  -50.6606 C.ar      23 UNK        -0.0193 
     12 C12         2.4827  -21.3375  -49.9309 C.ar      23 UNK        -0.1150 
     13 C13         3.0164  -20.9040  -48.7124 C.ar      23 UNK        -0.0193 
     14 C14         2.6535  -19.6473  -48.2123 C.ar      23 UNK        -0.1150 
     15 C15         4.0155  -21.7845  -47.9672 C.3       23 UNK        -0.0205 
     16 S16         3.4977  -22.2045  -46.2718 S.3       23 UNK        -0.2404 
     17 C17         1.9100  -23.0515  -46.5562 C.3       23 UNK        -0.0398 
     18 CA          1.6639  -24.2693  -45.6277 C.3       11 UNK         0.1400 
     19 N           1.7577  -23.9230  -44.2019 N.am      11 UNK        -0.5000 
     20 C           1.7678  -24.8072  -43.1929 C.2       10 UNK         0.5000 
     21 O           1.7894  -26.0277  -43.3555 O.2       10 UNK        -0.5000 
     22 CA          1.7005  -24.2380  -41.7637 C.3       10 UNK         0.1400 
     23 CB          3.1071  -23.9526  -41.2146 C.3       10 UNK        -0.1800 
     24 N           0.8868  -23.0219  -41.7018 N.am      10 UNK        -0.5000 
     25 C          -0.4537  -23.0111  -41.6593 C.2       9 UNK         0.5000 
     26 O          -1.1408  -24.0310  -41.6034 O.2       9 UNK        -0.5000 
     27 CA         -1.1531  -21.6374  -41.7176 C.3       9 UNK         0.1400 
     28 CB         -1.3334  -21.0630  -40.3048 C.3       9 UNK        -0.1800 
     29 N          -0.4471  -20.6586  -42.5429 N.am      9 UNK        -0.5000 
     30 C          -0.2337  -20.7751  -43.8601 C.2       8 UNK         0.5000 
     31 O          -0.6699  -21.6975  -44.5477 O.2       8 UNK        -0.5000 
     32 CA          0.6601  -19.7056  -44.5110 C.3       8 UNK         0.1400 
     33 CB         -0.1916  -18.5010  -44.9168 C.3       8 UNK        -0.1800 
     34 N           1.7601  -19.2528  -43.6562 N.am      8 UNK        -0.5000 
     35 C           2.6907  -20.0442  -43.1027 C.2       7 UNK         0.5000 
     36 O           2.7101  -21.2669  -43.2261 O.2       7 UNK        -0.5000 
     37 CA          3.7319  -19.3607  -42.2055 C.3       7 UNK         0.1400 
     38 CB          4.8167  -18.6697  -43.0457 C.3       7 UNK        -0.1800 
     39 N           3.0891  -18.3940  -41.3171 N.am      7 UNK        -0.5000 
     40 C           2.4086  -18.7319  -40.2121 C.2       6 UNK         0.5000 
     41 O           2.3378  -19.8819  -39.7780 O.2       6 UNK        -0.5000 
     42 CA          1.6586  -17.6014  -39.4815 C.3       6 UNK         0.1400 
     43 CB          2.5706  -16.9320  -38.4425 C.3       6 UNK        -0.1800 
     44 N           1.1336  -16.5805  -40.3902 N.am      6 UNK        -0.5000 
     45 C           0.1539  -16.7867  -41.2818 C.2       5 UNK         0.5000 
     46 O          -0.4361  -17.8592  -41.4116 O.2       5 UNK        -0.5000 
     47 CA         -0.1924  -15.6070  -42.2129 C.3       5 UNK         0.1400 
     48 CB         -1.2679  -14.7169  -41.5738 C.3       5 UNK        -0.1800 
     49 N           0.9605  -14.7800  -42.5855 N.am      5 UNK        -0.5000 
     50 C           2.0610  -15.2184  -43.2150 C.2       4 UNK         0.5000 
     51 O           2.2517  -16.4020  -43.4991 O.2       4 UNK        -0.5000 
     52 CA          3.1170  -14.1477  -43.5673 C.3       4 UNK         0.1400 
     53 CB          4.2123  -14.6725  -44.5198 C.3       4 UNK        -0.1800 
     54 N           2.5141  -12.9100  -44.0817 N.am      4 UNK        -0.5000 
     55 C           1.7755  -12.7877  -45.1935 C.2       3 UNK         0.5000 
     56 O           1.5584  -13.7055  -45.9888 O.2       3 UNK        -0.5000 
     57 CA          1.1706  -11.4043  -45.4657 C.3       3 UNK         0.1400 
     58 CB          2.1118  -10.5479  -46.3271 C.3       3 UNK        -0.1800 
     59 N          -0.0812  -11.6175  -46.1790 N.am      3 UNK        -0.5000 
     60 C          -1.2586  -11.0567  -45.8893 C.2       2 UNK         0.5000 
     61 O          -1.4027  -10.1442  -45.0747 O.2       2 UNK        -0.5000 
     62 CA         -2.4921  -11.6262  -46.6207 C.3       2 UNK         0.1400 
     63 CB         -2.8503  -10.7494  -47.8307 C.3       2 UNK        -0.1800 
     64 N          -2.3362  -13.0159  -47.0704 N.am      2 UNK        -0.5000 
     65 C          -2.2123  -14.0764  -46.2586 C.2       1 UNK         0.5000 
     66 O          -2.1752  -13.9942  -45.0284 O.2       1 UNK        -0.5000 
     67 C           0.2965  -24.8918  -45.9917 C.2       11 UNK         0.5000 
     68 O           0.2147  -25.6293  -46.9743 O.2       11 UNK        -0.5000 
     69 N          -0.7455  -24.5357  -45.2227 N.am      12 UNK        -0.5000 
     70 CA         -2.1732  -24.7223  -45.5030 C.3       12 UNK         0.1400 
     71 CB         -2.5517  -26.2167  -45.5656 C.3       12 UNK        -0.1800 
     72 C          -2.6061  -23.9184  -46.7487 C.2       12 UNK         0.5000 
     73 O          -3.3978  -24.3984  -47.5613 O.2       12 UNK        -0.5000 
     74 N          -2.0411  -22.7121  -46.8786 N.am      13 UNK        -0.5000 
     75 CA         -2.2535  -21.7866  -47.9844 C.3       13 UNK         0.1400 
     76 CB         -0.9691  -20.9728  -48.1805 C.3       13 UNK        -0.1800 
     77 C          -3.4557  -20.8618  -47.7304 C.2       13 UNK         0.5000 
     78 O          -3.9523  -20.7723  -46.6052 O.2       13 UNK        -0.5000 
     79 N          -3.8884  -20.1757  -48.7921 N.am      14 UNK        -0.5000 
     80 CA         -5.0334  -19.2699  -48.8057 C.3       14 UNK         0.1400 
     81 CB         -6.3330  -20.0740  -49.0094 C.3       14 UNK        -0.1800 
     82 C          -4.7986  -18.1994  -49.8830 C.2       14 UNK         0.5000 
     83 O          -5.6237  -18.0426  -50.7826 O.2       14 UNK        -0.5000 
     84 N          -3.6488  -17.5183  -49.7659 N.am      15 UNK        -0.5000 
     85 CA         -3.0312  -16.5730  -50.7043 C.3       15 UNK         0.1400 
     86 CB         -4.0146  -15.5136  -51.2387 C.3       15 UNK        -0.1800 
     87 C          -2.2785  -17.2945  -51.8361 C.2       15 UNK         0.5000 
     88 O          -2.7041  -18.3524  -52.3051 O.2       15 UNK        -0.5000 
     89 N          -1.1461  -16.7058  -52.2414 N.am      16 UNK        -0.5000 
     90 CA         -0.2537  -17.2370  -53.2688 C.3       16 UNK         0.1400 
     91 CB          1.0428  -16.4145  -53.2916 C.3       16 UNK        -0.1800 
     92 C          -0.9186  -17.2646  -54.6554 C.2       16 UNK         0.5000 
     93 O          -1.5217  -16.2708  -55.0651 O.2       16 UNK        -0.5000 
     94 N          -0.7938  -18.4144  -55.3322 N.am      17 UNK        -0.5000 
     95 CA         -1.3476  -18.7555  -56.6497 C.3       17 UNK         0.1400 
     96 CB         -0.7078  -17.8798  -57.7470 C.3       17 UNK        -0.1800 
     97 C          -2.8923  -18.7578  -56.7380 C.2       17 UNK         0.5000 
     98 O          -3.4264  -18.8745  -57.8425 O.2       17 UNK        -0.5000 
     99 N          -3.5929  -18.6428  -55.6012 N.am      18 UNK        -0.5000 
    100 CA        -5.0512  -18.6501  -55.5340 C.3       18 UNK         0.1400 
    101 CB        -5.4981  -17.9886  -54.2244 C.3       18 UNK        -0.1800 
    102 C         -5.5927  -20.0840  -55.6137 C.2       18 UNK         0.5000 
    103 O         -5.0468  -20.9836  -54.9689 O.2       18 UNK        -0.5000 
    104 N         -6.6956  -20.2664  -56.3504 N.am      19 UNK        -0.5000 
    105 CA        -7.3811  -21.5504  -56.5497 C.3       19 UNK         0.1400 
    106 CB        -8.4861  -21.3614  -57.6009 C.3       19 UNK        -0.1800 
    107 C         -7.9605  -22.1739  -55.2612 C.2       19 UNK         0.5000 
    108 O         -8.3016  -23.3570  -55.2591 O.2       19 UNK        -0.5000 
    109 N         -8.0472  -21.3736  -54.1905 N.am      20 UNK        -0.5000 
    110 CA        -8.4523  -21.7775  -52.8476 C.3       20 UNK         0.1400 
    111 CB        -8.6201  -20.5152  -51.9870 C.3       20 UNK        -0.1800 
    112 C         -7.4823  -22.7660  -52.1685 C.2       20 UNK         0.5000 
    113 O         -7.9246  -23.5094  -51.2912 O.2       20 UNK        -0.5000 
    114 N         -6.1998  -22.7725  -52.5656 N.am      21 UNK        -0.5000 
    115 CA        -5.1916  -23.6738  -52.0084 C.3       21 UNK         0.1400 
    116 CB        -4.7268  -23.1821  -50.6242 C.3       21 UNK        -0.1800 
    117 C         -4.0000  -23.8563  -52.9571 C.2       21 UNK         0.5000 
    118 O         -3.7513  -24.9736  -53.4117 O.2       21 UNK        -0.5000 
    119 N         -3.2615  -22.7673  -53.1990 N.am      22 UNK        -0.5000 
    120 CA        -1.9775  -22.7713  -53.9198 C.3       22 UNK         0.1400 
    121 C         -2.0802  -23.0390  -55.4485 C.2       22 UNK         0.5000 
    122 N         -3.1951  -22.7366  -56.0976 N.am      22 UNK        -0.7600 
    123 O         -1.1297  -23.5283  -56.0522 O.2       22 UNK        -0.5000 
    124 C124       -1.1848  -21.4696  -53.6545 C.3       23 UNK        -0.0398 
    125 S125       -0.7608  -21.2368  -51.8939 S.3       23 UNK        -0.2404 
    126 C126        1.0418  -20.9864  -51.9900 C.3       23 UNK        -0.0205 
    127 H127       -4.6090  -17.4006  -43.8961 H         1 UNK         0.0600 
    128 H128       -3.3378  -18.4330  -44.5616 H         1 UNK         0.0600 
    129 H129       -4.9716  -18.5158  -45.2176 H         1 UNK         0.0600 
    130 H130       -1.9011  -17.0379  -45.5739 H         1 UNK         0.3000 
    131 H131       -2.7106  -15.4295  -47.8407 H         1 UNK         0.0600 
    132 H132       -0.2585  -14.9383  -48.0321 H         1 UNK         0.0800 
    133 H133        0.0303  -15.7317  -46.5024 H         1 UNK         0.0800 
    134 H134        1.7424  -16.6775  -49.0303 H         1 UNK         0.0800 
    135 H135        1.8080  -17.2966  -47.3935 H         1 UNK         0.0800 
    136 H136        0.6140  -18.6208  -50.7195 H         1 UNK         0.1150 
    137 H137        2.7523  -22.3093  -50.3198 H         1 UNK         0.1150 
    138 H138        3.0557  -19.3151  -47.2654 H         1 UNK         0.1150 
    139 H139        4.2025  -22.7099  -48.5141 H         1 UNK         0.0800 
    140 H140        4.9714  -21.2618  -47.9192 H         1 UNK         0.0800 
    141 H141        1.1188  -22.3111  -46.4401 H         1 UNK         0.0800 
    142 H142        1.8709  -23.3695  -47.5999 H         1 UNK         0.0800 
    143 H143        2.4305  -25.0181  -45.8372 H         1 UNK         0.0600 
    144 H144        1.8412  -22.9363  -43.9792 H         1 UNK         0.3000 
    145 H145        1.2439  -24.9966  -41.1242 H         1 UNK         0.0600 
    146 H146        3.0614  -23.5476  -40.2035 H         1 UNK         0.0600 
    147 H147        3.6533  -23.2428  -41.8353 H         1 UNK         0.0600 
    148 H148        3.6983  -24.8681  -41.1724 H         1 UNK         0.0600 
    149 H149        1.3821  -22.1459  -41.8150 H         1 UNK         0.3000 
    150 H150       -2.1420  -21.7886  -42.1552 H         1 UNK         0.0600 
    151 H151       -1.8761  -21.7596  -39.6646 H         1 UNK         0.0600 
    152 H152       -1.9008  -20.1322  -40.3275 H         1 UNK         0.0600 
    153 H153       -0.3734  -20.8573  -39.8297 H         1 UNK         0.0600 
    154 H154       -0.1112  -19.8248  -42.0734 H         1 UNK         0.3000 
    155 H155        1.1049  -20.1333  -45.4109 H         1 UNK         0.0600 
    156 H156       -0.7381  -18.0950  -44.0675 H         1 UNK         0.0600 
    157 H157       -0.9264  -18.7873  -45.6685 H         1 UNK         0.0600 
    158 H158        0.4279  -17.7086  -45.3334 H         1 UNK         0.0600 
    159 H159        1.8442  -18.2487  -43.5199 H         1 UNK         0.3000 
    160 H160        4.2163  -20.1305  -41.6006 H         1 UNK         0.0600 
    161 H161        4.3992  -17.9180  -43.7151 H         1 UNK         0.0600 
    162 H162        5.3454  -19.3959  -43.6644 H         1 UNK         0.0600 
    163 H163        5.5568  -18.1816  -42.4116 H         1 UNK         0.0600 
    164 H164        3.0413  -17.4402  -41.6476 H         1 UNK         0.3000 
    165 H165        0.8141  -18.0520  -38.9555 H         1 UNK         0.0600 
    166 H166        2.0279  -16.1832  -37.8653 H         1 UNK         0.0600 
    167 H167        2.9605  -17.6657  -37.7355 H         1 UNK         0.0600 
    168 H168        3.4247  -16.4419  -38.9115 H         1 UNK         0.0600 
    169 H169        1.5631  -15.6680  -40.3507 H         1 UNK         0.3000 
    170 H170       -0.6050  -16.0176  -43.1351 H         1 UNK         0.0600 
    171 H171       -2.1533  -15.2994  -41.3157 H         1 UNK         0.0600 
    172 H172       -0.9083  -14.2414  -40.6605 H         1 UNK         0.0600 
    173 H173       -1.5877  -13.9316  -42.2591 H         1 UNK         0.0600 
    174 H174        0.8820  -13.7922  -42.3946 H         1 UNK         0.3000 
    175 H175        3.6036  -13.8836  -42.6274 H         1 UNK         0.0600 
    176 H176        3.7947  -15.0504  -45.4535 H         1 UNK         0.0600 
    177 H177        4.9302  -13.8901  -44.7654 H         1 UNK         0.0600 
    178 H178        4.7692  -15.4889  -44.0594 H         1 UNK         0.0600 
    179 H179        2.6454  -12.0919  -43.5026 H         1 UNK         0.3000 
    180 H180        0.9895  -10.9044  -44.5118 H         1 UNK         0.0600 
    181 H181        1.6728   -9.5724  -46.5369 H         1 UNK         0.0600 
    182 H182        2.3325  -11.0279  -47.2814 H         1 UNK         0.0600 
    183 H183        3.0605  -10.3760  -45.8172 H         1 UNK         0.0600 
    184 H184       -0.0646  -12.4072  -46.8101 H         1 UNK         0.3000 
    185 H185       -3.3276  -11.5951  -45.9183 H         1 UNK         0.0600 
    186 H186       -3.7718  -11.0874  -48.3052 H         1 UNK         0.0600 
    187 H187       -3.0038   -9.7120  -47.5300 H         1 UNK         0.0600 
    188 H188       -2.0603  -10.7591  -48.5827 H         1 UNK         0.0600 
    189 H189       -2.3598  -13.1597  -48.0694 H         1 UNK         0.3000 
    190 H190       -0.5469  -23.8770  -44.4800 H         1 UNK         0.3000 
    191 H191       -2.7059  -24.2837  -44.6579 H         1 UNK         0.0600 
    192 H192       -3.6339  -26.3398  -45.6182 H         1 UNK         0.0600 
    193 H193       -2.2070  -26.7475  -44.6782 H         1 UNK         0.0600 
    194 H194       -2.1269  -26.7104  -46.4396 H         1 UNK         0.0600 
    195 H195       -1.4825  -22.3623  -46.1047 H         1 UNK         0.3000 
    196 H196       -2.4415  -22.3520  -48.8987 H         1 UNK         0.0600 
    197 H197       -0.6829  -20.4363  -47.2774 H         1 UNK         0.0600 
    198 H198       -0.1382  -21.6181  -48.4635 H         1 UNK         0.0600 
    199 H199       -1.0866  -20.2374  -48.9759 H         1 UNK         0.0600 
    200 H200       -3.3986  -20.2636  -49.6727 H         1 UNK         0.3000 
    201 H201       -5.0986  -18.7464  -47.8501 H         1 UNK         0.0600 
    202 H202       -7.2025  -19.4162  -49.0326 H         1 UNK         0.0600 
    203 H203       -6.4883  -20.7876  -48.2002 H         1 UNK         0.0600 
    204 H204       -6.3147  -20.6315  -49.9460 H         1 UNK         0.0600 
    205 H205       -3.0508  -17.7767  -48.9933 H         1 UNK         0.3000 
    206 H206       -2.2861  -16.0358  -50.1183 H         1 UNK         0.0600 
    207 H207       -4.5671  -15.0406  -50.4268 H         1 UNK         0.0600 
    208 H208       -3.4812  -14.7265  -51.7725 H         1 UNK         0.0600 
    209 H209       -4.7360  -15.9376  -51.9367 H         1 UNK         0.0600 
    210 H210       -0.8797  -15.8204  -51.8376 H         1 UNK         0.3000 
    211 H211       -0.0015  -18.2591  -52.9840 H         1 UNK         0.0600 
    212 H212        0.8518  -15.3689  -53.5365 H         1 UNK         0.0600 
    213 H213        1.7391  -16.8042  -54.0352 H         1 UNK         0.0600 
    214 H214        1.5480  -16.4480  -52.3259 H         1 UNK         0.0600 
    215 H215       -0.2576  -19.1514  -54.8995 H         1 UNK         0.3000 
    216 H216       -1.0451  -19.7866  -56.8388 H         1 UNK         0.0600 
    217 H217        0.3804  -17.9104  -57.6921 H         1 UNK         0.0600 
    218 H218       -1.0190  -16.8379  -57.6666 H         1 UNK         0.0600 
    219 H219       -0.9892  -18.2272  -58.7418 H         1 UNK         0.0600 
    220 H220       -3.1030  -18.5771  -54.7193 H         1 UNK         0.3000 
    221 H221       -5.4478  -18.0650  -56.3665 H         1 UNK         0.0600 
    222 H222       -5.0961  -16.9795  -54.1348 H         1 UNK         0.0600 
    223 H223       -6.5847  -17.9136  -54.1704 H         1 UNK         0.0600 
    224 H224       -5.1669  -18.5597  -53.3567 H         1 UNK         0.0600 
    225 H225       -7.0932  -19.4741  -56.8344 H         1 UNK         0.3000 
    226 H226       -6.6497  -22.2582  -56.9452 H         1 UNK         0.0600 
    227 H227       -8.0757  -21.0050  -58.5459 H         1 UNK         0.0600 
    228 H228       -8.9975  -22.3028  -57.8064 H         1 UNK         0.0600 
    229 H229       -9.2384  -20.6451  -57.2683 H         1 UNK         0.0600 
    230 H230       -7.7459  -20.4172  -54.2982 H         1 UNK         0.3000 
    231 H231       -9.4226  -22.2724  -52.9245 H         1 UNK         0.0600 
    232 H232       -8.9218  -20.7700  -50.9701 H         1 UNK         0.0600 
    233 H233       -9.3869  -19.8574  -52.3964 H         1 UNK         0.0600 
    234 H234       -7.6912  -19.9467  -51.9213 H         1 UNK         0.0600 
    235 H235       -5.9049  -22.1681  -53.3249 H         1 UNK         0.3000 
    236 H236       -5.6410  -24.6614  -51.8821 H         1 UNK         0.0600 
    237 H237       -4.3466  -22.1628  -50.6712 H         1 UNK         0.0600 
    238 H238       -5.5372  -23.2028  -49.8956 H         1 UNK         0.0600 
    239 H239       -3.9296  -23.8160  -50.2345 H         1 UNK         0.0600 
    240 H240       -3.5480  -21.8791  -52.8154 H         1 UNK         0.3000 
    241 H241       -1.3880  -23.5962  -53.5142 H         1 UNK         0.0600 
    242 H242       -3.9478  -22.2511  -55.6139 H         1 UNK         0.3800 
    243 H243       -3.2638  -22.9208  -57.0850 H         1 UNK         0.3800 
    244 H244       -1.7748  -20.6097  -53.9728 H         1 UNK         0.0800 
    245 H245       -0.2672  -21.4559  -54.2453 H         1 UNK         0.0800 
    246 H246        1.5123  -21.9176  -52.3094 H         1 UNK         0.0800 
    247 H247        1.2757  -20.2445  -52.7536 H         1 UNK         0.0800 
@<TRIPOS>BOND
     1    1    2 1    
     2    1  127 1    
     3    1  128 1    
     4    1  129 1    
     5    2    3 2    
     6    2    4 am   BACKBONE|DICT|INTERRES
     7    4    5 1    
     8    4  130 1    
     9    5    6 1    
    10    5   65 1    
    11    5  131 1    
    12    6    7 1    
    13    6  132 1    
    14    6  133 1    
    15    7    8 1    
    16    8    9 1    
    17    8  134 1    
    18    8  135 1    
    19    9   10 ar   
    20    9   14 ar   
    21   10   11 ar   
    22   10  136 1    
    23   11   12 ar   
    24   11  126 1    
    25   12   13 ar   
    26   12  137 1    
    27   13   14 ar   
    28   13   15 1    
    29   14  138 1    
    30   15   16 1    
    31   15  139 1    
    32   15  140 1    
    33   16   17 1    
    34   17   18 1    
    35   17  141 1    
    36   17  142 1    
    37   18   19 1    
    38   18   67 1    
    39   18  143 1    
    40   19   20 am   BACKBONE|DICT|INTERRES
    41   19  144 1    
    42   20   21 2    
    43   20   22 1    
    44   22   23 1    
    45   22   24 1    
    46   22  145 1    
    47   23  146 1    
    48   23  147 1    
    49   23  148 1    
    50   24   25 am   BACKBONE|DICT|INTERRES
    51   24  149 1    
    52   25   26 2    
    53   25   27 1    
    54   27   28 1    
    55   27   29 1    
    56   27  150 1    
    57   28  151 1    
    58   28  152 1    
    59   28  153 1    
    60   29   30 am   BACKBONE|DICT|INTERRES
    61   29  154 1    
    62   30   31 2    
    63   30   32 1    
    64   32   33 1    
    65   32   34 1    
    66   32  155 1    
    67   33  156 1    
    68   33  157 1    
    69   33  158 1    
    70   34   35 am   BACKBONE|DICT|INTERRES
    71   34  159 1    
    72   35   36 2    
    73   35   37 1    
    74   37   38 1    
    75   37   39 1    
    76   37  160 1    
    77   38  161 1    
    78   38  162 1    
    79   38  163 1    
    80   39   40 am   BACKBONE|DICT|INTERRES
    81   39  164 1    
    82   40   41 2    
    83   40   42 1    
    84   42   43 1    
    85   42   44 1    
    86   42  165 1    
    87   43  166 1    
    88   43  167 1    
    89   43  168 1    
    90   44   45 am   BACKBONE|DICT|INTERRES
    91   44  169 1    
    92   45   46 2    
    93   45   47 1    
    94   47   48 1    
    95   47   49 1    
    96   47  170 1    
    97   48  171 1    
    98   48  172 1    
    99   48  173 1    
   100   49   50 am   BACKBONE|DICT|INTERRES
   101   49  174 1    
   102   50   51 2    
   103   50   52 1    
   104   52   53 1    
   105   52   54 1    
   106   52  175 1    
   107   53  176 1    
   108   53  177 1    
   109   53  178 1    
   110   54   55 am   BACKBONE|DICT|INTERRES
   111   54  179 1    
   112   55   56 2    
   113   55   57 1    
   114   57   58 1    
   115   57   59 1    
   116   57  180 1    
   117   58  181 1    
   118   58  182 1    
   119   58  183 1    
   120   59   60 am   BACKBONE|DICT|INTERRES
   121   59  184 1    
   122   60   61 2    
   123   60   62 1    
   124   62   63 1    
   125   62   64 1    
   126   62  185 1    
   127   63  186 1    
   128   63  187 1    
   129   63  188 1    
   130   64   65 am   BACKBONE|DICT|INTERRES
   131   64  189 1    
   132   65   66 2    
   133   67   68 2    
   134   67   69 am   BACKBONE|DICT|INTERRES
   135   69   70 1    
   136   69  190 1    
   137   70   71 1    
   138   70   72 1    
   139   70  191 1    
   140   71  192 1    
   141   71  193 1    
   142   71  194 1    
   143   72   73 2    
   144   72   74 am   BACKBONE|DICT|INTERRES
   145   74   75 1    
   146   74  195 1    
   147   75   76 1    
   148   75   77 1    
   149   75  196 1    
   150   76  197 1    
   151   76  198 1    
   152   76  199 1    
   153   77   78 2    
   154   77   79 am   BACKBONE|DICT|INTERRES
   155   79   80 1    
   156   79  200 1    
   157   80   81 1    
   158   80   82 1    
   159   80  201 1    
   160   81  202 1    
   161   81  203 1    
   162   81  204 1    
   163   82   83 2    
   164   82   84 am   BACKBONE|DICT|INTERRES
   165   84   85 1    
   166   84  205 1    
   167   85   86 1    
   168   85   87 1    
   169   85  206 1    
   170   86  207 1    
   171   86  208 1    
   172   86  209 1    
   173   87   88 2    
   174   87   89 am   BACKBONE|DICT|INTERRES
   175   89   90 1    
   176   89  210 1    
   177   90   91 1    
   178   90   92 1    
   179   90  211 1    
   180   91  212 1    
   181   91  213 1    
   182   91  214 1    
   183   92   93 2    
   184   92   94 am   BACKBONE|DICT|INTERRES
   185   94   95 1    
   186   94  215 1    
   187   95   96 1    
   188   95   97 1    
   189   95  216 1    
   190   96  217 1    
   191   96  218 1    
   192   96  219 1    
   193   97   98 2    
   194   97   99 am   BACKBONE|DICT|INTERRES
   195   99  100 1    
   196   99  220 1    
   197  100  101 1    
   198  100  102 1    
   199  100  221 1    
   200  101  222 1    
   201  101  223 1    
   202  101  224 1    
   203  102  103 2    
   204  102  104 am   BACKBONE|DICT|INTERRES
   205  104  105 1    
   206  104  225 1    
   207  105  106 1    
   208  105  107 1    
   209  105  226 1    
   210  106  227 1    
   211  106  228 1    
   212  106  229 1    
   213  107  108 2    
   214  107  109 am   BACKBONE|DICT|INTERRES
   215  109  110 1    
   216  109  230 1    
   217  110  111 1    
   218  110  112 1    
   219  110  231 1    
   220  111  232 1    
   221  111  233 1    
   222  111  234 1    
   223  112  113 2    
   224  112  114 am   BACKBONE|DICT|INTERRES
   225  114  115 1    
   226  114  235 1    
   227  115  116 1    
   228  115  117 1    
   229  115  236 1    
   230  116  237 1    
   231  116  238 1    
   232  116  239 1    
   233  117  118 2    
   234  117  119 am   BACKBONE|DICT|INTERRES
   235  119  120 1    
   236  119  240 1    
   237  120  121 1    
   238  120  124 1    
   239  120  241 1    
   240  121  122 am   BACKBONE|DICT|INTERRES
   241  121  123 2    
   242  122  242 1    
   243  122  243 1    
   244  124  125 1    
   245  124  244 1    
   246  124  245 1    
   247  125  126 1    
   248  126  246 1    
   249  126  247 1    
@<TRIPOS>SUBSTRUCTURE
     1 UNK         1 GROUP             0       ****    0 ROOT    
