@<TRIPOS>MOLECULE
3R540
247   249    1
SMALL
USER_CHARGES


@<TRIPOS>ATOM
      1 CA          2.8185  -14.2109  -46.4674 C.3       0 UNK        -0.1800 
      2 C           1.3497  -13.8147  -46.4751 C.2       0 UNK         0.5000 
      3 O           0.8414  -13.3128  -45.4734 O.2       0 UNK        -0.5000 
      4 N           0.6658  -14.0100  -47.6100 N.am      1 UNK        -0.5000 
      5 CA         -0.7768  -13.7767  -47.7902 C.3       1 UNK         0.1400 
      6 C6         -1.3710  -14.5900  -48.9664 C.3       23 UNK        -0.0398 
      7 S7         -1.0243  -16.3789  -48.8360 S.3       23 UNK        -0.2404 
      8 C8         -0.2273  -16.6795  -50.4416 C.3       23 UNK        -0.0205 
      9 C9          0.3172  -18.0948  -50.5632 C.ar      23 UNK        -0.0193 
     10 C10        -0.3930  -19.0699  -51.2700 C.ar      23 UNK        -0.1150 
     11 C11         0.1533  -20.3420  -51.4691 C.ar      23 UNK        -0.0193 
     12 C12         1.4046  -20.6444  -50.9270 C.ar      23 UNK        -0.1150 
     13 C13         2.1105  -19.6902  -50.1913 C.ar      23 UNK        -0.0193 
     14 C14         1.5626  -18.4159  -50.0149 C.ar      23 UNK        -0.1150 
     15 C15         3.4843  -20.0174  -49.6278 C.3       23 UNK        -0.0205 
     16 S16         3.3873  -20.7509  -47.9665 S.3       23 UNK        -0.2404 
     17 C17         3.1379  -22.5309  -48.3233 C.3       23 UNK        -0.0398 
     18 CA          1.9889  -23.1892  -47.5177 C.3       11 UNK         0.1400 
     19 N           2.0866  -22.8901  -46.0856 N.am      11 UNK        -0.5000 
     20 C           1.3555  -23.4461  -45.1121 C.2       10 UNK         0.5000 
     21 O           0.4753  -24.2777  -45.3254 O.2       10 UNK        -0.5000 
     22 CA          1.5965  -22.9626  -43.6692 C.3       10 UNK         0.1400 
     23 CB          1.7292  -24.1306  -42.6725 C.3       10 UNK        -0.1800 
     24 N           2.6954  -22.0011  -43.5346 N.am      10 UNK        -0.5000 
     25 C           4.0188  -22.2039  -43.6146 C.2       9 UNK         0.5000 
     26 O           4.5432  -23.2965  -43.8277 O.2       9 UNK        -0.5000 
     27 CA          4.9051  -20.9570  -43.4351 C.3       9 UNK         0.1400 
     28 CB          5.1725  -20.2845  -44.7896 C.3       9 UNK        -0.1800 
     29 N           4.2855  -19.9805  -42.5384 N.am      9 UNK        -0.5000 
     30 C           4.3945  -19.9996  -41.2031 C.2       8 UNK         0.5000 
     31 O           5.1154  -20.7826  -40.5834 O.2       8 UNK        -0.5000 
     32 CA          3.5341  -18.9816  -40.4295 C.3       8 UNK         0.1400 
     33 CB          4.2567  -17.6300  -40.3236 C.3       8 UNK        -0.1800 
     34 N           2.2181  -18.7793  -41.0399 N.am      8 UNK        -0.5000 
     35 C           1.2457  -19.7020  -41.0735 C.2       7 UNK         0.5000 
     36 O           1.3296  -20.8032  -40.5303 O.2       7 UNK        -0.5000 
     37 CA         -0.0281  -19.3511  -41.8653 C.3       7 UNK         0.1400 
     38 CB         -1.1331  -18.8528  -40.9223 C.3       7 UNK        -0.1800 
     39 N           0.1724  -18.3567  -42.9215 N.am      7 UNK        -0.5000 
     40 C           0.9166  -18.5124  -44.0230 C.2       6 UNK         0.5000 
     41 O           1.6148  -19.5061  -44.2255 O.2       6 UNK        -0.5000 
     42 CA          0.8473  -17.3782  -45.0703 C.3       6 UNK         0.1400 
     43 CB          1.6174  -17.7231  -46.3581 C.3       6 UNK        -0.1800 
     44 N          -0.5360  -17.0349  -45.4184 N.am      6 UNK        -0.5000 
     45 C          -1.3688  -16.3151  -44.6554 C.2       5 UNK         0.5000 
     46 O          -1.0262  -15.8191  -43.5795 O.2       5 UNK        -0.5000 
     47 CA         -2.8145  -16.1707  -45.1731 C.3       5 UNK         0.1400 
     48 CB         -3.5854  -17.5022  -45.0652 C.3       5 UNK        -0.1800 
     49 N          -3.5371  -15.0736  -44.5197 N.am      5 UNK        -0.5000 
     50 C          -3.9767  -14.9792  -43.2559 C.2       4 UNK         0.5000 
     51 O          -3.9680  -15.9047  -42.4420 O.2       4 UNK        -0.5000 
     52 CA         -4.4807  -13.5793  -42.8330 C.3       4 UNK         0.1400 
     53 CB         -5.1667  -13.5852  -41.4548 C.3       4 UNK        -0.1800 
     54 N          -3.3925  -12.5956  -42.8109 N.am      4 UNK        -0.5000 
     55 C          -2.7970  -12.0745  -43.8915 C.2       3 UNK         0.5000 
     56 O          -3.1717  -12.3230  -45.0410 O.2       3 UNK        -0.5000 
     57 CA         -1.5815  -11.1537  -43.6469 C.3       3 UNK         0.1400 
     58 CB         -0.5775  -11.7837  -42.6636 C.3       3 UNK        -0.1800 
     59 N          -0.8866  -10.8925  -44.9058 N.am      3 UNK        -0.5000 
     60 C          -1.1835   -9.9090  -45.7687 C.2       2 UNK         0.5000 
     61 O          -1.9552   -8.9833  -45.5140 O.2       2 UNK        -0.5000 
     62 CA         -0.5276   -9.9898  -47.1652 C.3       2 UNK         0.1400 
     63 CB          0.7772   -9.1799  -47.1997 C.3       2 UNK        -0.1800 
     64 N          -0.2423  -11.3737  -47.5479 N.am      2 UNK        -0.5000 
     65 C          -1.1775  -12.2819  -47.8605 C.2       1 UNK         0.5000 
     66 O          -2.3326  -11.9767  -48.1589 O.2       1 UNK        -0.5000 
     67 C           0.5988  -22.8565  -48.0972 C.2       11 UNK         0.5000 
     68 O           0.0285  -23.6665  -48.8298 O.2       11 UNK        -0.5000 
     69 N           0.0566  -21.6971  -47.7030 N.am      12 UNK        -0.5000 
     70 CA         -1.2751  -21.2297  -48.0835 C.3       12 UNK         0.1400 
     71 CB         -1.4355  -19.7755  -47.6311 C.3       12 UNK        -0.1800 
     72 C          -2.4009  -22.0899  -47.4905 C.2       12 UNK         0.5000 
     73 O          -3.4139  -22.3028  -48.1564 O.2       12 UNK        -0.5000 
     74 N          -2.1910  -22.5713  -46.2577 N.am      13 UNK        -0.5000 
     75 CA         -3.1143  -23.4371  -45.5281 C.3       13 UNK         0.1400 
     76 CB         -2.7678  -23.4062  -44.0311 C.3       13 UNK        -0.1800 
     77 C          -3.1015  -24.8765  -46.0688 C.2       13 UNK         0.5000 
     78 O          -4.1660  -25.4793  -46.2006 O.2       13 UNK        -0.5000 
     79 N          -1.9068  -25.3862  -46.4022 N.am      14 UNK        -0.5000 
     80 CA         -1.6918  -26.7014  -47.0068 C.3       14 UNK         0.1400 
     81 CB         -0.1880  -27.0150  -47.0328 C.3       14 UNK        -0.1800 
     82 C          -2.2952  -26.8061  -48.4180 C.2       14 UNK         0.5000 
     83 O          -2.9221  -27.8172  -48.7370 O.2       14 UNK        -0.5000 
     84 N          -2.1256  -25.7478  -49.2232 N.am      15 UNK        -0.5000 
     85 CA         -2.7567  -25.6095  -50.5370 C.3       15 UNK         0.1400 
     86 CB         -2.0428  -24.4967  -51.3170 C.3       15 UNK        -0.1800 
     87 C          -4.2650  -25.3046  -50.4470 C.2       15 UNK         0.5000 
     88 O          -4.9976  -25.6148  -51.3865 O.2       15 UNK        -0.5000 
     89 N          -4.6833  -24.6861  -49.3313 N.am      16 UNK        -0.5000 
     90 CA         -6.0130  -24.1382  -49.0444 C.3       16 UNK         0.1400 
     91 CB         -7.0552  -25.2667  -48.9069 C.3       16 UNK        -0.1800 
     92 C          -6.4047  -23.0577  -50.0731 C.2       16 UNK         0.5000 
     93 O          -7.5130  -23.0806  -50.6128 O.2       16 UNK        -0.5000 
     94 N          -5.4542  -22.1601  -50.3640 N.am      17 UNK        -0.5000 
     95 CA         -5.5045  -21.2514  -51.5041 C.3       17 UNK         0.1400 
     96 CB         -5.0599  -21.9975  -52.7757 C.3       17 UNK        -0.1800 
     97 C          -4.6662  -19.9944  -51.2377 C.2       17 UNK         0.5000 
     98 O          -3.7336  -19.6991  -51.9861 O.2       17 UNK        -0.5000 
     99 N          -5.0400  -19.2354  -50.1990 N.am      18 UNK        -0.5000 
    100 CA        -4.4262  -17.9493  -49.8330 C.3       18 UNK         0.1400 
    101 CB        -4.9984  -17.4867  -48.4855 C.3       18 UNK        -0.1800 
    102 C         -4.5641  -16.8399  -50.9029 C.2       18 UNK         0.5000 
    103 O         -3.8663  -15.8306  -50.8271 O.2       18 UNK        -0.5000 
    104 N         -5.4234  -17.0603  -51.9076 N.am      19 UNK        -0.5000 
    105 CA        -5.5261  -16.2631  -53.1324 C.3       19 UNK         0.1400 
    106 CB        -6.8362  -16.6390  -53.8443 C.3       19 UNK        -0.1800 
    107 C         -4.3231  -16.4324  -54.0914 C.2       19 UNK         0.5000 
    108 O         -4.2514  -15.7099  -55.0857 O.2       19 UNK        -0.5000 
    109 N         -3.4226  -17.3842  -53.7950 N.am      20 UNK        -0.5000 
    110 CA        -2.2217  -17.7599  -54.5506 C.3       20 UNK         0.1400 
    111 CB        -1.2680  -16.5665  -54.7651 C.3       20 UNK        -0.1800 
    112 C         -2.5284  -18.5450  -55.8411 C.2       20 UNK         0.5000 
    113 O         -1.6801  -18.6303  -56.7302 O.2       20 UNK        -0.5000 
    114 N         -3.7144  -19.1633  -55.8946 N.am      21 UNK        -0.5000 
    115 CA        -4.1284  -20.1295  -56.9105 C.3       21 UNK         0.1400 
    116 CB        -5.6191  -19.9054  -57.2230 C.3       21 UNK        -0.1800 
    117 C         -3.8313  -21.5491  -56.3892 C.2       21 UNK         0.5000 
    118 O         -4.7482  -22.3515  -56.2096 O.2       21 UNK        -0.5000 
    119 N         -2.5525  -21.7995  -56.0821 N.am      22 UNK        -0.5000 
    120 CA        -2.0655  -22.9643  -55.3223 C.3       22 UNK         0.1400 
    121 C         -2.1851  -24.3436  -56.0364 C.2       22 UNK         0.5000 
    122 N         -2.4642  -24.4031  -57.3324 N.am      22 UNK        -0.7600 
    123 O         -2.0188  -25.3800  -55.3996 O.2       22 UNK        -0.5000 
    124 C124       -0.6189  -22.7561  -54.7964 C.3       23 UNK        -0.0398 
    125 S125       -0.2938  -21.1100  -54.0698 S.3       23 UNK        -0.2404 
    126 C126       -0.5807  -21.3855  -52.2958 C.3       23 UNK        -0.0205 
    127 H127        3.1105  -14.7016  -47.3962 H         1 UNK         0.0600 
    128 H128        3.0180  -14.8969  -45.6445 H         1 UNK         0.0600 
    129 H129        3.4440  -13.3282  -46.3351 H         1 UNK         0.0600 
    130 H130        1.1403  -14.4051  -48.4089 H         1 UNK         0.3000 
    131 H131       -1.2630  -14.1431  -46.8848 H         1 UNK         0.0600 
    132 H132       -1.0029  -14.2052  -49.9186 H         1 UNK         0.0800 
    133 H133       -2.4558  -14.4761  -48.9958 H         1 UNK         0.0800 
    134 H134        0.5884  -15.9689  -50.5821 H         1 UNK         0.0800 
    135 H135       -0.9484  -16.4824  -51.2368 H         1 UNK         0.0800 
    136 H136       -1.3564  -18.8283  -51.6913 H         1 UNK         0.1150 
    137 H137        1.8337  -21.6219  -51.0915 H         1 UNK         0.1150 
    138 H138        2.1144  -17.6659  -49.4662 H         1 UNK         0.1150 
    139 H139        4.0271  -20.6821  -50.3013 H         1 UNK         0.0800 
    140 H140        4.0794  -19.1052  -49.5658 H         1 UNK         0.0800 
    141 H141        4.0730  -23.0357  -48.0773 H         1 UNK         0.0800 
    142 H142        3.0010  -22.6932  -49.3928 H         1 UNK         0.0800 
    143 H143        2.1065  -24.2703  -47.6175 H         1 UNK         0.0600 
    144 H144        2.7649  -22.1883  -45.8280 H         1 UNK         0.3000 
    145 H145        0.6976  -22.4090  -43.3952 H         1 UNK         0.0600 
    146 H146        0.8246  -24.7398  -42.6640 H         1 UNK         0.0600 
    147 H147        1.8827  -23.7649  -41.6571 H         1 UNK         0.0600 
    148 H148        2.5601  -24.7898  -42.9242 H         1 UNK         0.0600 
    149 H149        2.3874  -21.0344  -43.4775 H         1 UNK         0.3000 
    150 H150        5.8622  -21.2819  -43.0216 H         1 UNK         0.0600 
    151 H151        5.5984  -20.9911  -45.5033 H         1 UNK         0.0600 
    152 H152        5.8793  -19.4612  -44.6863 H         1 UNK         0.0600 
    153 H153        4.2574  -19.8839  -45.2267 H         1 UNK         0.0600 
    154 H154        3.6498  -19.3198  -42.9621 H         1 UNK         0.3000 
    155 H155        3.3860  -19.3696  -39.4193 H         1 UNK         0.0600 
    156 H156        3.6880  -16.9254  -39.7165 H         1 UNK         0.0600 
    157 H157        5.2344  -17.7466  -39.8540 H         1 UNK         0.0600 
    158 H158        4.4151  -17.1783  -41.3037 H         1 UNK         0.0600 
    159 H159        2.0542  -17.8945  -41.4967 H         1 UNK         0.3000 
    160 H160       -0.3764  -20.2702  -42.3408 H         1 UNK         0.0600 
    161 H161       -0.8530  -17.9181  -40.4348 H         1 UNK         0.0600 
    162 H162       -1.3405  -19.5838  -40.1397 H         1 UNK         0.0600 
    163 H163       -2.0651  -18.6816  -41.4621 H         1 UNK         0.0600 
    164 H164       -0.3553  -17.4920  -42.8412 H         1 UNK         0.3000 
    165 H165        1.3217  -16.5016  -44.6250 H         1 UNK         0.0600 
    166 H166        1.5476  -16.9203  -47.0909 H         1 UNK         0.0600 
    167 H167        2.6766  -17.8800  -46.1510 H         1 UNK         0.0600 
    168 H168        1.2411  -18.6330  -46.8249 H         1 UNK         0.0600 
    169 H169       -0.8726  -17.4026  -46.2963 H         1 UNK         0.3000 
    170 H170       -2.7600  -15.9016  -46.2284 H         1 UNK         0.0600 
    171 H171       -3.1668  -18.2523  -45.7350 H         1 UNK         0.0600 
    172 H172       -3.5475  -17.9168  -44.0574 H         1 UNK         0.0600 
    173 H173       -4.6335  -17.3760  -45.3363 H         1 UNK         0.0600 
    174 H174       -3.5333  -14.1973  -45.0353 H         1 UNK         0.3000 
    175 H175       -5.2235  -13.2638  -43.5688 H         1 UNK         0.0600 
    176 H176       -4.4749  -13.8675  -40.6601 H         1 UNK         0.0600 
    177 H177       -5.5729  -12.6030  -41.2125 H         1 UNK         0.0600 
    178 H178       -5.9971  -14.2922  -41.4349 H         1 UNK         0.0600 
    179 H179       -3.0175  -12.3747  -41.9001 H         1 UNK         0.3000 
    180 H180       -1.9451  -10.2154  -43.2235 H         1 UNK         0.0600 
    181 H181       -0.2774  -12.7836  -42.9813 H         1 UNK         0.0600 
    182 H182       -0.9979  -11.8682  -41.6612 H         1 UNK         0.0600 
    183 H183        0.3245  -11.1771  -42.5796 H         1 UNK         0.0600 
    184 H184       -0.2684  -11.6358  -45.2144 H         1 UNK         0.3000 
    185 H185       -1.2214   -9.5595  -47.8904 H         1 UNK         0.0600 
    186 H186        0.5948   -8.1365  -46.9391 H         1 UNK         0.0600 
    187 H187        1.5130   -9.5706  -46.4956 H         1 UNK         0.0600 
    188 H188        1.2232   -9.1928  -48.1943 H         1 UNK         0.0600 
    189 H189        0.6823  -11.7169  -47.3324 H         1 UNK         0.3000 
    190 H190        0.6080  -21.0888  -47.1157 H         1 UNK         0.3000 
    191 H191       -1.3593  -21.2694  -49.1711 H         1 UNK         0.0600 
    192 H192       -2.4156  -19.3847  -47.9043 H         1 UNK         0.0600 
    193 H193       -0.6873  -19.1457  -48.1068 H         1 UNK         0.0600 
    194 H194       -1.3245  -19.6761  -46.5510 H         1 UNK         0.0600 
    195 H195       -1.3081  -22.3740  -45.8125 H         1 UNK         0.3000 
    196 H196       -4.1253  -23.0421  -45.6502 H         1 UNK         0.0600 
    197 H197       -1.7661  -23.7905  -43.8369 H         1 UNK         0.0600 
    198 H198       -2.8208  -22.3920  -43.6349 H         1 UNK         0.0600 
    199 H199       -3.4679  -24.0155  -43.4582 H         1 UNK         0.0600 
    200 H200       -1.0694  -24.8496  -46.1889 H         1 UNK         0.3000 
    201 H201       -2.1842  -27.4449  -46.3767 H         1 UNK         0.0600 
    202 H202        0.2290  -27.0253  -46.0256 H         1 UNK         0.0600 
    203 H203        0.3667  -26.2790  -47.6159 H         1 UNK         0.0600 
    204 H204        0.0003  -27.9949  -47.4731 H         1 UNK         0.0600 
    205 H205       -1.5359  -24.9809  -48.9149 H         1 UNK         0.3000 
    206 H206       -2.6344  -26.5460  -51.0852 H         1 UNK         0.0600 
    207 H207       -0.9800  -24.7128  -51.4270 H         1 UNK         0.0600 
    208 H208       -2.4594  -24.3922  -52.3193 H         1 UNK         0.0600 
    209 H209       -2.1408  -23.5337  -50.8142 H         1 UNK         0.0600 
    210 H210       -3.9783  -24.4513  -48.6462 H         1 UNK         0.3000 
    211 H211       -5.9393  -23.6359  -48.0788 H         1 UNK         0.0600 
    212 H212       -8.0181  -24.8702  -48.5833 H         1 UNK         0.0600 
    213 H213       -6.7405  -26.0013  -48.1654 H         1 UNK         0.0600 
    214 H214       -7.2170  -25.7896  -49.8498 H         1 UNK         0.0600 
    215 H215       -4.5970  -22.1678  -49.8184 H         1 UNK         0.3000 
    216 H216       -6.5310  -20.9096  -51.6518 H         1 UNK         0.0600 
    217 H217       -4.0442  -22.3780  -52.6733 H         1 UNK         0.0600 
    218 H218       -5.0840  -21.3384  -53.6434 H         1 UNK         0.0600 
    219 H219       -5.7124  -22.8429  -52.9946 H         1 UNK         0.0600 
    220 H220       -5.8137  -19.5447  -49.6280 H         1 UNK         0.3000 
    221 H221       -3.3566  -18.1252  -49.7068 H         1 UNK         0.0600 
    222 H222       -4.8479  -18.2428  -47.7153 H         1 UNK         0.0600 
    223 H223       -6.0675  -17.2820  -48.5519 H         1 UNK         0.0600 
    224 H224       -4.5078  -16.5736  -48.1453 H         1 UNK         0.0600 
    225 H225       -5.9750  -17.9040  -51.8758 H         1 UNK         0.3000 
    226 H226       -5.5746  -15.2085  -52.8538 H         1 UNK         0.0600 
    227 H227       -6.8425  -17.6861  -54.1498 H         1 UNK         0.0600 
    228 H228       -7.6986  -16.4712  -53.1989 H         1 UNK         0.0600 
    229 H229       -6.9832  -16.0354  -54.7409 H         1 UNK         0.0600 
    230 H230       -3.5996  -17.9643  -52.9809 H         1 UNK         0.3000 
    231 H231       -1.6957  -18.4681  -53.9125 H         1 UNK         0.0600 
    232 H232       -1.6634  -15.8517  -55.4867 H         1 UNK         0.0600 
    233 H233       -0.3022  -16.9054  -55.1416 H         1 UNK         0.0600 
    234 H234       -1.0821  -16.0370  -53.8308 H         1 UNK         0.0600 
    235 H235       -4.3247  -19.0677  -55.0968 H         1 UNK         0.3000 
    236 H236       -3.5624  -19.9846  -57.8329 H         1 UNK         0.0600 
    237 H237       -5.7935  -18.8972  -57.5993 H         1 UNK         0.0600 
    238 H238       -5.9671  -20.6018  -57.9869 H         1 UNK         0.0600 
    239 H239       -6.2439  -20.0446  -56.3397 H         1 UNK         0.0600 
    240 H240       -1.8684  -21.0754  -56.2535 H         1 UNK         0.3000 
    241 H241       -2.7098  -23.0405  -54.4464 H         1 UNK         0.0600 
    242 H242       -2.5424  -25.3009  -57.7840 H         1 UNK         0.3800 
    243 H243       -2.6157  -23.5597  -57.8620 H         1 UNK         0.3800 
    244 H244        0.0912  -22.8802  -55.6159 H         1 UNK         0.0800 
    245 H245       -0.3645  -23.5271  -54.0673 H         1 UNK         0.0800 
    246 H246       -1.6504  -21.3532  -52.0874 H         1 UNK         0.0800 
    247 H247       -0.2352  -22.3805  -52.0146 H         1 UNK         0.0800 
@<TRIPOS>BOND
     1    1    2 1    
     2    1  127 1    
     3    1  128 1    
     4    1  129 1    
     5    2    3 2    
     6    2    4 am   BACKBONE|DICT|INTERRES
     7    4    5 1    
     8    4  130 1    
     9    5    6 1    
    10    5   65 1    
    11    5  131 1    
    12    6    7 1    
    13    6  132 1    
    14    6  133 1    
    15    7    8 1    
    16    8    9 1    
    17    8  134 1    
    18    8  135 1    
    19    9   10 ar   
    20    9   14 ar   
    21   10   11 ar   
    22   10  136 1    
    23   11   12 ar   
    24   11  126 1    
    25   12   13 ar   
    26   12  137 1    
    27   13   14 ar   
    28   13   15 1    
    29   14  138 1    
    30   15   16 1    
    31   15  139 1    
    32   15  140 1    
    33   16   17 1    
    34   17   18 1    
    35   17  141 1    
    36   17  142 1    
    37   18   19 1    
    38   18   67 1    
    39   18  143 1    
    40   19   20 am   BACKBONE|DICT|INTERRES
    41   19  144 1    
    42   20   21 2    
    43   20   22 1    
    44   22   23 1    
    45   22   24 1    
    46   22  145 1    
    47   23  146 1    
    48   23  147 1    
    49   23  148 1    
    50   24   25 am   BACKBONE|DICT|INTERRES
    51   24  149 1    
    52   25   26 2    
    53   25   27 1    
    54   27   28 1    
    55   27   29 1    
    56   27  150 1    
    57   28  151 1    
    58   28  152 1    
    59   28  153 1    
    60   29   30 am   BACKBONE|DICT|INTERRES
    61   29  154 1    
    62   30   31 2    
    63   30   32 1    
    64   32   33 1    
    65   32   34 1    
    66   32  155 1    
    67   33  156 1    
    68   33  157 1    
    69   33  158 1    
    70   34   35 am   BACKBONE|DICT|INTERRES
    71   34  159 1    
    72   35   36 2    
    73   35   37 1    
    74   37   38 1    
    75   37   39 1    
    76   37  160 1    
    77   38  161 1    
    78   38  162 1    
    79   38  163 1    
    80   39   40 am   BACKBONE|DICT|INTERRES
    81   39  164 1    
    82   40   41 2    
    83   40   42 1    
    84   42   43 1    
    85   42   44 1    
    86   42  165 1    
    87   43  166 1    
    88   43  167 1    
    89   43  168 1    
    90   44   45 am   BACKBONE|DICT|INTERRES
    91   44  169 1    
    92   45   46 2    
    93   45   47 1    
    94   47   48 1    
    95   47   49 1    
    96   47  170 1    
    97   48  171 1    
    98   48  172 1    
    99   48  173 1    
   100   49   50 am   BACKBONE|DICT|INTERRES
   101   49  174 1    
   102   50   51 2    
   103   50   52 1    
   104   52   53 1    
   105   52   54 1    
   106   52  175 1    
   107   53  176 1    
   108   53  177 1    
   109   53  178 1    
   110   54   55 am   BACKBONE|DICT|INTERRES
   111   54  179 1    
   112   55   56 2    
   113   55   57 1    
   114   57   58 1    
   115   57   59 1    
   116   57  180 1    
   117   58  181 1    
   118   58  182 1    
   119   58  183 1    
   120   59   60 am   BACKBONE|DICT|INTERRES
   121   59  184 1    
   122   60   61 2    
   123   60   62 1    
   124   62   63 1    
   125   62   64 1    
   126   62  185 1    
   127   63  186 1    
   128   63  187 1    
   129   63  188 1    
   130   64   65 am   BACKBONE|DICT|INTERRES
   131   64  189 1    
   132   65   66 2    
   133   67   68 2    
   134   67   69 am   BACKBONE|DICT|INTERRES
   135   69   70 1    
   136   69  190 1    
   137   70   71 1    
   138   70   72 1    
   139   70  191 1    
   140   71  192 1    
   141   71  193 1    
   142   71  194 1    
   143   72   73 2    
   144   72   74 am   BACKBONE|DICT|INTERRES
   145   74   75 1    
   146   74  195 1    
   147   75   76 1    
   148   75   77 1    
   149   75  196 1    
   150   76  197 1    
   151   76  198 1    
   152   76  199 1    
   153   77   78 2    
   154   77   79 am   BACKBONE|DICT|INTERRES
   155   79   80 1    
   156   79  200 1    
   157   80   81 1    
   158   80   82 1    
   159   80  201 1    
   160   81  202 1    
   161   81  203 1    
   162   81  204 1    
   163   82   83 2    
   164   82   84 am   BACKBONE|DICT|INTERRES
   165   84   85 1    
   166   84  205 1    
   167   85   86 1    
   168   85   87 1    
   169   85  206 1    
   170   86  207 1    
   171   86  208 1    
   172   86  209 1    
   173   87   88 2    
   174   87   89 am   BACKBONE|DICT|INTERRES
   175   89   90 1    
   176   89  210 1    
   177   90   91 1    
   178   90   92 1    
   179   90  211 1    
   180   91  212 1    
   181   91  213 1    
   182   91  214 1    
   183   92   93 2    
   184   92   94 am   BACKBONE|DICT|INTERRES
   185   94   95 1    
   186   94  215 1    
   187   95   96 1    
   188   95   97 1    
   189   95  216 1    
   190   96  217 1    
   191   96  218 1    
   192   96  219 1    
   193   97   98 2    
   194   97   99 am   BACKBONE|DICT|INTERRES
   195   99  100 1    
   196   99  220 1    
   197  100  101 1    
   198  100  102 1    
   199  100  221 1    
   200  101  222 1    
   201  101  223 1    
   202  101  224 1    
   203  102  103 2    
   204  102  104 am   BACKBONE|DICT|INTERRES
   205  104  105 1    
   206  104  225 1    
   207  105  106 1    
   208  105  107 1    
   209  105  226 1    
   210  106  227 1    
   211  106  228 1    
   212  106  229 1    
   213  107  108 2    
   214  107  109 am   BACKBONE|DICT|INTERRES
   215  109  110 1    
   216  109  230 1    
   217  110  111 1    
   218  110  112 1    
   219  110  231 1    
   220  111  232 1    
   221  111  233 1    
   222  111  234 1    
   223  112  113 2    
   224  112  114 am   BACKBONE|DICT|INTERRES
   225  114  115 1    
   226  114  235 1    
   227  115  116 1    
   228  115  117 1    
   229  115  236 1    
   230  116  237 1    
   231  116  238 1    
   232  116  239 1    
   233  117  118 2    
   234  117  119 am   BACKBONE|DICT|INTERRES
   235  119  120 1    
   236  119  240 1    
   237  120  121 1    
   238  120  124 1    
   239  120  241 1    
   240  121  122 am   BACKBONE|DICT|INTERRES
   241  121  123 2    
   242  122  242 1    
   243  122  243 1    
   244  124  125 1    
   245  124  244 1    
   246  124  245 1    
   247  125  126 1    
   248  126  246 1    
   249  126  247 1    
@<TRIPOS>SUBSTRUCTURE
     1 UNK         1 GROUP             0       ****    0 ROOT    
