@<TRIPOS>MOLECULE
3R540
247   249    1
SMALL
USER_CHARGES


@<TRIPOS>ATOM
      1 CA          3.9215  -17.2971  -49.7903 C.3       0 UNK        -0.1800 
      2 C           4.3159  -16.3445  -50.9194 C.2       0 UNK         0.5000 
      3 O           4.8392  -16.8050  -51.9317 O.2       0 UNK        -0.5000 
      4 N           4.0853  -15.0278  -50.8170 N.am      1 UNK        -0.5000 
      5 CA          3.5459  -14.2861  -49.6725 C.3       1 UNK         0.1400 
      6 C6          2.9971  -12.8909  -50.0791 C.3       23 UNK        -0.0398 
      7 S7          1.8898  -12.9188  -51.5339 S.3       23 UNK        -0.2404 
      8 C8          0.2266  -12.9484  -50.7804 C.3       23 UNK        -0.0205 
      9 C9         -0.2018  -14.2900  -50.1845 C.ar      23 UNK        -0.0193 
     10 C10         0.3122  -15.5122  -50.6397 C.ar      23 UNK        -0.1150 
     11 C11        -0.1150  -16.7176  -50.0780 C.ar      23 UNK        -0.0193 
     12 C12        -1.0692  -16.6974  -49.0608 C.ar      23 UNK        -0.1150 
     13 C13        -1.6433  -15.4974  -48.6366 C.ar      23 UNK        -0.0193 
     14 C14        -1.1874  -14.2973  -49.1912 C.ar      23 UNK        -0.1150 
     15 C15        -2.7629  -15.4861  -47.5989 C.3       23 UNK        -0.0205 
     16 S16        -4.1183  -16.6489  -47.9967 S.3       23 UNK        -0.2404 
     17 C17        -3.8640  -18.0102  -46.8032 C.3       23 UNK        -0.0398 
     18 CA         -3.2298  -19.2833  -47.4398 C.3       11 UNK         0.1400 
     19 N          -1.8767  -19.5315  -46.9236 N.am      11 UNK        -0.5000 
     20 C          -1.0045  -20.4471  -47.3663 C.2       10 UNK         0.5000 
     21 O          -1.2254  -21.2015  -48.3118 O.2       10 UNK        -0.5000 
     22 CA          0.2986  -20.6132  -46.5590 C.3       10 UNK         0.1400 
     23 CB          1.4086  -19.7039  -47.1041 C.3       10 UNK        -0.1800 
     24 N           0.1263  -20.3780  -45.1220 N.am      10 UNK        -0.5000 
     25 C          -0.6681  -21.1010  -44.3178 C.2       9 UNK         0.5000 
     26 O          -1.3457  -22.0527  -44.7091 O.2       9 UNK        -0.5000 
     27 CA         -0.7540  -20.6663  -42.8436 C.3       9 UNK         0.1400 
     28 CB          0.5001  -21.0989  -42.0697 C.3       9 UNK        -0.1800 
     29 N          -0.9471  -19.2240  -42.7015 N.am      9 UNK        -0.5000 
     30 C          -2.0527  -18.5646  -43.0769 C.2       8 UNK         0.5000 
     31 O          -3.0686  -19.1144  -43.5035 O.2       8 UNK        -0.5000 
     32 CA         -1.9941  -17.0247  -43.0196 C.3       8 UNK         0.1400 
     33 CB         -2.3002  -16.5164  -41.6037 C.3       8 UNK        -0.1800 
     34 N          -0.7133  -16.4793  -43.4805 N.am      8 UNK        -0.5000 
     35 C          -0.2051  -16.6884  -44.7039 C.2       7 UNK         0.5000 
     36 O          -0.7621  -17.3554  -45.5703 O.2       7 UNK        -0.5000 
     37 CA          1.1771  -16.0976  -45.0054 C.3       7 UNK         0.1400 
     38 CB          1.0506  -14.6116  -45.3662 C.3       7 UNK        -0.1800 
     39 N           2.1189  -16.3089  -43.9037 N.am      7 UNK        -0.5000 
     40 C           2.5303  -17.5248  -43.5081 C.2       6 UNK         0.5000 
     41 O           2.2360  -18.5678  -44.0915 O.2       6 UNK        -0.5000 
     42 CA          3.3459  -17.5994  -42.2072 C.3       6 UNK         0.1400 
     43 CB          4.8254  -17.2653  -42.4449 C.3       6 UNK        -0.1800 
     44 N           2.7905  -16.7287  -41.1722 N.am      6 UNK        -0.5000 
     45 C           1.6164  -16.9529  -40.5640 C.2       5 UNK         0.5000 
     46 O           0.9118  -17.9370  -40.7892 O.2       5 UNK        -0.5000 
     47 CA          1.1290  -15.8964  -39.5551 C.3       5 UNK         0.1400 
     48 CB          1.5607  -16.2764  -38.1311 C.3       5 UNK        -0.1800 
     49 N           1.5953  -14.5419  -39.8517 N.am      5 UNK        -0.5000 
     50 C           1.2675  -13.8289  -40.9379 C.2       4 UNK         0.5000 
     51 O           0.5147  -14.2471  -41.8213 O.2       4 UNK        -0.5000 
     52 CA          1.8884  -12.4164  -41.0622 C.3       4 UNK         0.1400 
     53 CB          2.9584  -12.1058  -39.9906 C.3       4 UNK        -0.1800 
     54 N           2.4399  -12.1278  -42.3916 N.am      4 UNK        -0.5000 
     55 C           3.3024  -12.8763  -43.0938 C.2       3 UNK         0.5000 
     56 O           3.6762  -13.9978  -42.7448 O.2       3 UNK        -0.5000 
     57 CA          3.8072  -12.2445  -44.4084 C.3       3 UNK         0.1400 
     58 CB          4.8523  -11.1437  -44.1375 C.3       3 UNK        -0.1800 
     59 N           4.3000  -13.2263  -45.3828 N.am      3 UNK        -0.5000 
     60 C           5.3993  -13.9942  -45.3406 C.2       2 UNK         0.5000 
     61 O           6.2742  -13.9127  -44.4777 O.2       2 UNK        -0.5000 
     62 CA          5.5523  -15.0427  -46.4637 C.3       2 UNK         0.1400 
     63 CB          5.5095  -16.4692  -45.8946 C.3       2 UNK        -0.1800 
     64 N           4.5342  -14.9396  -47.5170 N.am      2 UNK        -0.5000 
     65 C           4.6461  -14.1572  -48.5979 C.2       1 UNK         0.5000 
     66 O           5.5891  -13.3862  -48.7841 O.2       1 UNK        -0.5000 
     67 C          -4.1689  -20.5063  -47.3163 C.2       11 UNK         0.5000 
     68 O          -5.1993  -20.5331  -47.9895 O.2       11 UNK        -0.5000 
     69 N          -3.7979  -21.4959  -46.4928 N.am      12 UNK        -0.5000 
     70 CA         -4.4038  -22.8198  -46.4640 C.3       12 UNK         0.1400 
     71 CB         -4.7222  -23.2123  -45.0125 C.3       12 UNK        -0.1800 
     72 C          -3.4633  -23.8384  -47.1277 C.2       12 UNK         0.5000 
     73 O          -3.8655  -24.4812  -48.0961 O.2       12 UNK        -0.5000 
     74 N          -2.2420  -23.9772  -46.5924 N.am      13 UNK        -0.5000 
     75 CA         -1.2895  -25.0386  -46.9239 C.3       13 UNK         0.1400 
     76 CB         -0.1346  -25.0192  -45.9085 C.3       13 UNK        -0.1800 
     77 C          -0.7651  -24.9889  -48.3700 C.2       13 UNK         0.5000 
     78 O          -1.0213  -25.9127  -49.1439 O.2       13 UNK        -0.5000 
     79 N          -0.0502  -23.9091  -48.7149 N.am      14 UNK        -0.5000 
     80 CA          0.5324  -23.6803  -50.0435 C.3       14 UNK         0.1400 
     81 CB          1.4961  -22.4850  -49.9840 C.3       14 UNK        -0.1800 
     82 C          -0.5414  -23.4555  -51.1230 C.2       14 UNK         0.5000 
     83 O          -0.3374  -23.8137  -52.2827 O.2       14 UNK        -0.5000 
     84 N          -1.6858  -22.9131  -50.6951 N.am      15 UNK        -0.5000 
     85 CA         -2.9036  -22.7307  -51.4744 C.3       15 UNK         0.1400 
     86 CB         -3.7792  -21.7190  -50.7317 C.3       15 UNK        -0.1800 
     87 C          -3.6925  -24.0310  -51.7452 C.2       15 UNK         0.5000 
     88 O          -4.7485  -23.9494  -52.3730 O.2       15 UNK        -0.5000 
     89 N          -3.1974  -25.1868  -51.2749 N.am      16 UNK        -0.5000 
     90 CA         -3.7364  -26.5347  -51.4833 C.3       16 UNK         0.1400 
     91 CB         -3.6805  -26.9195  -52.9773 C.3       16 UNK        -0.1800 
     92 C          -5.1391  -26.7020  -50.8695 C.2       16 UNK         0.5000 
     93 O          -6.1082  -26.9594  -51.5839 O.2       16 UNK        -0.5000 
     94 N          -5.2156  -26.5052  -49.5467 N.am      17 UNK        -0.5000 
     95 CA         -6.4286  -26.4772  -48.7206 C.3       17 UNK         0.1400 
     96 CB         -7.1575  -27.8376  -48.7342 C.3       17 UNK        -0.1800 
     97 C          -7.3389  -25.2861  -49.0827 C.2       17 UNK         0.5000 
     98 O          -8.5632  -25.4198  -49.1029 O.2       17 UNK        -0.5000 
     99 N          -6.6989  -24.1445  -49.3793 N.am      18 UNK        -0.5000 
    100 CA        -7.2843  -22.8631  -49.7935 C.3       18 UNK         0.1400 
    101 CB        -8.1809  -22.2826  -48.6800 C.3       18 UNK        -0.1800 
    102 C         -7.9994  -22.8927  -51.1643 C.2       18 UNK         0.5000 
    103 O         -8.7111  -21.9415  -51.4896 O.2       18 UNK        -0.5000 
    104 N         -7.8023  -23.9578  -51.9543 N.am      19 UNK        -0.5000 
    105 CA        -8.4509  -24.1599  -53.2500 C.3       19 UNK         0.1400 
    106 CB        -8.3364  -25.6375  -53.6523 C.3       19 UNK        -0.1800 
    107 C         -7.8789  -23.2571  -54.3561 C.2       19 UNK         0.5000 
    108 O         -8.6455  -22.7262  -55.1609 O.2       19 UNK        -0.5000 
    109 N         -6.5489  -23.1006  -54.3796 N.am      20 UNK        -0.5000 
    110 CA        -5.8339  -22.2840  -55.3625 C.3       20 UNK         0.1400 
    111 CB        -4.4481  -22.9010  -55.6106 C.3       20 UNK        -0.1800 
    112 C         -5.6892  -20.8193  -54.9146 C.2       20 UNK         0.5000 
    113 O         -5.4238  -19.9571  -55.7533 O.2       20 UNK        -0.5000 
    114 N         -5.8208  -20.5706  -53.6013 N.am      21 UNK        -0.5000 
    115 CA        -5.7128  -19.2712  -52.9177 C.3       21 UNK         0.1400 
    116 CB        -6.9342  -18.3950  -53.2621 C.3       21 UNK        -0.1800 
    117 C         -4.3712  -18.5365  -53.1592 C.2       21 UNK         0.5000 
    118 O         -4.3243  -17.3080  -53.0826 O.2       21 UNK        -0.5000 
    119 N         -3.3179  -19.3042  -53.4768 N.am      22 UNK        -0.5000 
    120 CA        -1.9972  -18.8362  -53.9372 C.3       22 UNK         0.1400 
    121 C         -2.0190  -18.1111  -55.3211 C.2       22 UNK         0.5000 
    122 N         -3.0547  -18.2640  -56.1393 N.am      22 UNK        -0.7600 
    123 O         -1.0672  -17.4248  -55.6836 O.2       22 UNK        -0.5000 
    124 C124       -1.2088  -18.0471  -52.8537 C.3       23 UNK        -0.0398 
    125 S125       -0.8525  -19.0586  -51.3784 S.3       23 UNK        -0.2404 
    126 C126        0.4324  -18.0465  -50.5779 C.3       23 UNK        -0.0205 
    127 H127        2.9794  -17.0225  -49.3194 H         1 UNK         0.0600 
    128 H128        4.7024  -17.3290  -49.0313 H         1 UNK         0.0600 
    129 H129        3.7998  -18.3080  -50.1799 H         1 UNK         0.0600 
    130 H130        4.3596  -14.4420  -51.5924 H         1 UNK         0.3000 
    131 H131        2.7062  -14.8390  -49.2514 H         1 UNK         0.0600 
    132 H132        2.4769  -12.4290  -49.2384 H         1 UNK         0.0800 
    133 H133        3.8157  -12.2140  -50.3309 H         1 UNK         0.0800 
    134 H134       -0.4973  -12.6805  -51.5510 H         1 UNK         0.0800 
    135 H135        0.1702  -12.1643  -50.0238 H         1 UNK         0.0800 
    136 H136        1.0424  -15.5334  -51.4355 H         1 UNK         0.1150 
    137 H137       -1.3965  -17.6286  -48.6329 H         1 UNK         0.1150 
    138 H138       -1.6167  -13.3614  -48.8618 H         1 UNK         0.1150 
    139 H139       -2.3525  -15.6821  -46.6111 H         1 UNK         0.0800 
    140 H140       -3.2006  -14.4886  -47.5405 H         1 UNK         0.0800 
    141 H141       -4.8443  -18.2186  -46.3699 H         1 UNK         0.0800 
    142 H142       -3.2790  -17.6528  -45.9579 H         1 UNK         0.0800 
    143 H143       -3.1201  -19.1283  -48.5150 H         1 UNK         0.0600 
    144 H144       -1.5579  -18.9017  -46.1905 H         1 UNK         0.3000 
    145 H145        0.6286  -21.6466  -46.6759 H         1 UNK         0.0600 
    146 H146        2.3193  -19.7903  -46.5117 H         1 UNK         0.0600 
    147 H147        1.6698  -19.9804  -48.1245 H         1 UNK         0.0600 
    148 H148        1.1079  -18.6563  -47.1094 H         1 UNK         0.0600 
    149 H149        0.6733  -19.6218  -44.7210 H         1 UNK         0.3000 
    150 H150       -1.6159  -21.1683  -42.3990 H         1 UNK         0.0600 
    151 H151        0.6572  -22.1752  -42.1503 H         1 UNK         0.0600 
    152 H152        0.4087  -20.8611  -41.0097 H         1 UNK         0.0600 
    153 H153        1.3976  -20.6059  -42.4444 H         1 UNK         0.0600 
    154 H154       -0.1755  -18.6969  -42.3052 H         1 UNK         0.3000 
    155 H155       -2.7662  -16.6390  -43.6883 H         1 UNK         0.0600 
    156 H156       -1.6108  -16.9313  -40.8699 H         1 UNK         0.0600 
    157 H157       -3.3076  -16.8033  -41.2997 H         1 UNK         0.0600 
    158 H158       -2.2396  -15.4293  -41.5487 H         1 UNK         0.0600 
    159 H159       -0.2048  -15.8819  -42.8367 H         1 UNK         0.3000 
    160 H160        1.5676  -16.6170  -45.8826 H         1 UNK         0.0600 
    161 H161        0.8289  -13.9960  -44.4948 H         1 UNK         0.0600 
    162 H162        0.2499  -14.4522  -46.0905 H         1 UNK         0.0600 
    163 H163        1.9613  -14.2448  -45.8285 H         1 UNK         0.0600 
    164 H164        2.4118  -15.4976  -43.3692 H         1 UNK         0.3000 
    165 H165        3.2939  -18.6285  -41.8445 H         1 UNK         0.0600 
    166 H166        5.4023  -17.3551  -41.5245 H         1 UNK         0.0600 
    167 H167        5.2641  -17.9516  -43.1699 H         1 UNK         0.0600 
    168 H168        4.9614  -16.2539  -42.8269 H         1 UNK         0.0600 
    169 H169        3.2875  -15.8700  -40.9804 H         1 UNK         0.3000 
    170 H170        0.0386  -15.8851  -39.5864 H         1 UNK         0.0600 
    171 H171        1.2042  -17.2734  -37.8683 H         1 UNK         0.0600 
    172 H172        2.6464  -16.2779  -38.0261 H         1 UNK         0.0600 
    173 H173        1.1521  -15.5829  -37.3959 H         1 UNK         0.0600 
    174 H174        2.2247  -14.1268  -39.1802 H         1 UNK         0.3000 
    175 H175        1.0635  -11.7180  -40.9161 H         1 UNK         0.0600 
    176 H176        3.8076  -12.7876  -40.0543 H         1 UNK         0.0600 
    177 H177        3.3436  -11.0928  -40.1094 H         1 UNK         0.0600 
    178 H178        2.5476  -12.1679  -38.9822 H         1 UNK         0.0600 
    179 H179        2.1513  -11.2436  -42.7858 H         1 UNK         0.3000 
    180 H180        2.9466  -11.7733  -44.8858 H         1 UNK         0.0600 
    181 H181        5.7068  -11.5208  -43.5752 H         1 UNK         0.0600 
    182 H182        4.4200  -10.3291  -43.5554 H         1 UNK         0.0600 
    183 H183        5.2245  -10.7144  -45.0677 H         1 UNK         0.0600 
    184 H184        3.6780  -13.3962  -46.1575 H         1 UNK         0.3000 
    185 H185        6.5413  -14.8935  -46.9025 H         1 UNK         0.0600 
    186 H186        6.2541  -16.6022  -45.1090 H         1 UNK         0.0600 
    187 H187        4.5339  -16.7018  -45.4707 H         1 UNK         0.0600 
    188 H188        5.7229  -17.2084  -46.6667 H         1 UNK         0.0600 
    189 H189        3.7441  -15.5616  -47.4317 H         1 UNK         0.3000 
    190 H190       -2.9352  -21.3897  -45.9729 H         1 UNK         0.3000 
    191 H191       -5.3423  -22.8281  -47.0211 H         1 UNK         0.0600 
    192 H192       -3.8351  -23.1999  -44.3785 H         1 UNK         0.0600 
    193 H193       -5.1485  -24.2150  -44.9640 H         1 UNK         0.0600 
    194 H194       -5.4499  -22.5283  -44.5756 H         1 UNK         0.0600 
    195 H195       -1.9750  -23.3655  -45.8244 H         1 UNK         0.3000 
    196 H196       -1.8123  -25.9902  -46.8067 H         1 UNK         0.0600 
    197 H197        0.5960  -25.7984  -46.1300 H         1 UNK         0.0600 
    198 H198       -0.5003  -25.1961  -44.8969 H         1 UNK         0.0600 
    199 H199        0.3918  -24.0644  -45.9065 H         1 UNK         0.0600 
    200 H200        0.0265  -23.1509  -48.0543 H         1 UNK         0.3000 
    201 H201        1.1037  -24.5693  -50.3186 H         1 UNK         0.0600 
    202 H202        2.2442  -22.6132  -49.2017 H         1 UNK         0.0600 
    203 H203        0.9670  -21.5502  -49.7988 H         1 UNK         0.0600 
    204 H204        2.0287  -22.3712  -50.9289 H         1 UNK         0.0600 
    205 H205       -1.7110  -22.5796  -49.7366 H         1 UNK         0.3000 
    206 H206       -2.6313  -22.3083  -52.4431 H         1 UNK         0.0600 
    207 H207       -4.0597  -22.1054  -49.7533 H         1 UNK         0.0600 
    208 H208       -3.2618  -20.7711  -50.5842 H         1 UNK         0.0600 
    209 H209       -4.6949  -21.5101  -51.2786 H         1 UNK         0.0600 
    210 H210       -2.3578  -25.1454  -50.7099 H         1 UNK         0.3000 
    211 H211       -3.0769  -27.2169  -50.9448 H         1 UNK         0.0600 
    212 H212       -4.3368  -26.2972  -53.5866 H         1 UNK         0.0600 
    213 H213       -3.9884  -27.9555  -53.1228 H         1 UNK         0.0600 
    214 H214       -2.6685  -26.8227  -53.3704 H         1 UNK         0.0600 
    215 H215       -4.3793  -26.1804  -49.0714 H         1 UNK         0.3000 
    216 H216       -6.0929  -26.2987  -47.6981 H         1 UNK         0.0600 
    217 H217       -7.9633  -27.8533  -47.9996 H         1 UNK         0.0600 
    218 H218       -6.4770  -28.6520  -48.4858 H         1 UNK         0.0600 
    219 H219       -7.6013  -28.0546  -49.7060 H         1 UNK         0.0600 
    220 H220       -5.6878  -24.1662  -49.3221 H         1 UNK         0.3000 
    221 H221       -6.4487  -22.1766  -49.9114 H         1 UNK         0.0600 
    222 H222       -9.0964  -22.8602  -48.5506 H         1 UNK         0.0600 
    223 H223       -7.6587  -22.2591  -47.7238 H         1 UNK         0.0600 
    224 H224       -8.4727  -21.2571  -48.9088 H         1 UNK         0.0600 
    225 H225       -7.1711  -24.6852  -51.6450 H         1 UNK         0.3000 
    226 H226       -9.5114  -23.9235  -53.1399 H         1 UNK         0.0600 
    227 H227       -8.7627  -26.2893  -52.8893 H         1 UNK         0.0600 
    228 H228       -8.8704  -25.8312  -54.5833 H         1 UNK         0.0600 
    229 H229       -7.2973  -25.9336  -53.8027 H         1 UNK         0.0600 
    230 H230       -5.9819  -23.5594  -53.6677 H         1 UNK         0.3000 
    231 H231       -6.3784  -22.2890  -56.3091 H         1 UNK         0.0600 
    232 H232       -4.5314  -23.9366  -55.9407 H         1 UNK         0.0600 
    233 H233       -3.8293  -22.8854  -54.7135 H         1 UNK         0.0600 
    234 H234       -3.9112  -22.3547  -56.3872 H         1 UNK         0.0600 
    235 H235       -6.0520  -21.3590  -53.0150 H         1 UNK         0.3000 
    236 H236       -5.7539  -19.4769  -51.8474 H         1 UNK         0.0600 
    237 H237       -6.9327  -18.0958  -54.3107 H         1 UNK         0.0600 
    238 H238       -7.8660  -18.9258  -53.0658 H         1 UNK         0.0600 
    239 H239       -6.9490  -17.4852  -52.6609 H         1 UNK         0.0600 
    240 H240       -3.4656  -20.2994  -53.5269 H         1 UNK         0.3000 
    241 H241       -1.4296  -19.7461  -54.1348 H         1 UNK         0.0600 
    242 H242       -3.8548  -18.8363  -55.8852 H         1 UNK         0.3800 
    243 H243       -3.0460  -17.7987  -57.0328 H         1 UNK         0.3800 
    244 H244       -1.7487  -17.1494  -52.5503 H         1 UNK         0.0800 
    245 H245       -0.2519  -17.7054  -53.2511 H         1 UNK         0.0800 
    246 H246        1.2598  -17.8957  -51.2727 H         1 UNK         0.0800 
    247 H247        0.8374  -18.6015  -49.7344 H         1 UNK         0.0800 
@<TRIPOS>BOND
     1    1    2 1    
     2    1  127 1    
     3    1  128 1    
     4    1  129 1    
     5    2    3 2    
     6    2    4 am   BACKBONE|DICT|INTERRES
     7    4    5 1    
     8    4  130 1    
     9    5    6 1    
    10    5   65 1    
    11    5  131 1    
    12    6    7 1    
    13    6  132 1    
    14    6  133 1    
    15    7    8 1    
    16    8    9 1    
    17    8  134 1    
    18    8  135 1    
    19    9   10 ar   
    20    9   14 ar   
    21   10   11 ar   
    22   10  136 1    
    23   11   12 ar   
    24   11  126 1    
    25   12   13 ar   
    26   12  137 1    
    27   13   14 ar   
    28   13   15 1    
    29   14  138 1    
    30   15   16 1    
    31   15  139 1    
    32   15  140 1    
    33   16   17 1    
    34   17   18 1    
    35   17  141 1    
    36   17  142 1    
    37   18   19 1    
    38   18   67 1    
    39   18  143 1    
    40   19   20 am   BACKBONE|DICT|INTERRES
    41   19  144 1    
    42   20   21 2    
    43   20   22 1    
    44   22   23 1    
    45   22   24 1    
    46   22  145 1    
    47   23  146 1    
    48   23  147 1    
    49   23  148 1    
    50   24   25 am   BACKBONE|DICT|INTERRES
    51   24  149 1    
    52   25   26 2    
    53   25   27 1    
    54   27   28 1    
    55   27   29 1    
    56   27  150 1    
    57   28  151 1    
    58   28  152 1    
    59   28  153 1    
    60   29   30 am   BACKBONE|DICT|INTERRES
    61   29  154 1    
    62   30   31 2    
    63   30   32 1    
    64   32   33 1    
    65   32   34 1    
    66   32  155 1    
    67   33  156 1    
    68   33  157 1    
    69   33  158 1    
    70   34   35 am   BACKBONE|DICT|INTERRES
    71   34  159 1    
    72   35   36 2    
    73   35   37 1    
    74   37   38 1    
    75   37   39 1    
    76   37  160 1    
    77   38  161 1    
    78   38  162 1    
    79   38  163 1    
    80   39   40 am   BACKBONE|DICT|INTERRES
    81   39  164 1    
    82   40   41 2    
    83   40   42 1    
    84   42   43 1    
    85   42   44 1    
    86   42  165 1    
    87   43  166 1    
    88   43  167 1    
    89   43  168 1    
    90   44   45 am   BACKBONE|DICT|INTERRES
    91   44  169 1    
    92   45   46 2    
    93   45   47 1    
    94   47   48 1    
    95   47   49 1    
    96   47  170 1    
    97   48  171 1    
    98   48  172 1    
    99   48  173 1    
   100   49   50 am   BACKBONE|DICT|INTERRES
   101   49  174 1    
   102   50   51 2    
   103   50   52 1    
   104   52   53 1    
   105   52   54 1    
   106   52  175 1    
   107   53  176 1    
   108   53  177 1    
   109   53  178 1    
   110   54   55 am   BACKBONE|DICT|INTERRES
   111   54  179 1    
   112   55   56 2    
   113   55   57 1    
   114   57   58 1    
   115   57   59 1    
   116   57  180 1    
   117   58  181 1    
   118   58  182 1    
   119   58  183 1    
   120   59   60 am   BACKBONE|DICT|INTERRES
   121   59  184 1    
   122   60   61 2    
   123   60   62 1    
   124   62   63 1    
   125   62   64 1    
   126   62  185 1    
   127   63  186 1    
   128   63  187 1    
   129   63  188 1    
   130   64   65 am   BACKBONE|DICT|INTERRES
   131   64  189 1    
   132   65   66 2    
   133   67   68 2    
   134   67   69 am   BACKBONE|DICT|INTERRES
   135   69   70 1    
   136   69  190 1    
   137   70   71 1    
   138   70   72 1    
   139   70  191 1    
   140   71  192 1    
   141   71  193 1    
   142   71  194 1    
   143   72   73 2    
   144   72   74 am   BACKBONE|DICT|INTERRES
   145   74   75 1    
   146   74  195 1    
   147   75   76 1    
   148   75   77 1    
   149   75  196 1    
   150   76  197 1    
   151   76  198 1    
   152   76  199 1    
   153   77   78 2    
   154   77   79 am   BACKBONE|DICT|INTERRES
   155   79   80 1    
   156   79  200 1    
   157   80   81 1    
   158   80   82 1    
   159   80  201 1    
   160   81  202 1    
   161   81  203 1    
   162   81  204 1    
   163   82   83 2    
   164   82   84 am   BACKBONE|DICT|INTERRES
   165   84   85 1    
   166   84  205 1    
   167   85   86 1    
   168   85   87 1    
   169   85  206 1    
   170   86  207 1    
   171   86  208 1    
   172   86  209 1    
   173   87   88 2    
   174   87   89 am   BACKBONE|DICT|INTERRES
   175   89   90 1    
   176   89  210 1    
   177   90   91 1    
   178   90   92 1    
   179   90  211 1    
   180   91  212 1    
   181   91  213 1    
   182   91  214 1    
   183   92   93 2    
   184   92   94 am   BACKBONE|DICT|INTERRES
   185   94   95 1    
   186   94  215 1    
   187   95   96 1    
   188   95   97 1    
   189   95  216 1    
   190   96  217 1    
   191   96  218 1    
   192   96  219 1    
   193   97   98 2    
   194   97   99 am   BACKBONE|DICT|INTERRES
   195   99  100 1    
   196   99  220 1    
   197  100  101 1    
   198  100  102 1    
   199  100  221 1    
   200  101  222 1    
   201  101  223 1    
   202  101  224 1    
   203  102  103 2    
   204  102  104 am   BACKBONE|DICT|INTERRES
   205  104  105 1    
   206  104  225 1    
   207  105  106 1    
   208  105  107 1    
   209  105  226 1    
   210  106  227 1    
   211  106  228 1    
   212  106  229 1    
   213  107  108 2    
   214  107  109 am   BACKBONE|DICT|INTERRES
   215  109  110 1    
   216  109  230 1    
   217  110  111 1    
   218  110  112 1    
   219  110  231 1    
   220  111  232 1    
   221  111  233 1    
   222  111  234 1    
   223  112  113 2    
   224  112  114 am   BACKBONE|DICT|INTERRES
   225  114  115 1    
   226  114  235 1    
   227  115  116 1    
   228  115  117 1    
   229  115  236 1    
   230  116  237 1    
   231  116  238 1    
   232  116  239 1    
   233  117  118 2    
   234  117  119 am   BACKBONE|DICT|INTERRES
   235  119  120 1    
   236  119  240 1    
   237  120  121 1    
   238  120  124 1    
   239  120  241 1    
   240  121  122 am   BACKBONE|DICT|INTERRES
   241  121  123 2    
   242  122  242 1    
   243  122  243 1    
   244  124  125 1    
   245  124  244 1    
   246  124  245 1    
   247  125  126 1    
   248  126  246 1    
   249  126  247 1    
@<TRIPOS>SUBSTRUCTURE
     1 UNK         1 GROUP             0       ****    0 ROOT    
