@<TRIPOS>MOLECULE
3R540
247   249    1
SMALL
USER_CHARGES


@<TRIPOS>ATOM
      1 CA          1.5458  -11.6597  -48.4162 C.3       0 UNK        -0.1800 
      2 C           1.3489  -13.1649  -48.3175 C.2       0 UNK         0.5000 
      3 O           0.8272  -13.6461  -47.3128 O.2       0 UNK        -0.5000 
      4 N           1.7746  -13.9087  -49.3465 N.am      1 UNK        -0.5000 
      5 CA          1.6858  -15.3697  -49.4642 C.3       1 UNK         0.1400 
      6 C6          0.2331  -15.8815  -49.6722 C.3       23 UNK        -0.0398 
      7 S7         -0.5142  -15.2751  -51.2313 S.3       23 UNK        -0.2404 
      8 C8          0.5152  -16.0233  -52.5452 C.3       23 UNK        -0.0205 
      9 C9          0.4168  -17.5401  -52.5649 C.ar      23 UNK        -0.0193 
     10 C10        -0.4961  -18.1765  -53.4077 C.ar      23 UNK        -0.1150 
     11 C11        -0.6352  -19.5677  -53.3879 C.ar      23 UNK        -0.0193 
     12 C12         0.1474  -20.3241  -52.5104 C.ar      23 UNK        -0.1150 
     13 C13         1.0686  -19.6959  -51.6667 C.ar      23 UNK        -0.0193 
     14 C14         1.2225  -18.3105  -51.7249 C.ar      23 UNK        -0.1150 
     15 C15         1.8642  -20.4920  -50.6463 C.3       23 UNK        -0.0205 
     16 S16         1.1697  -20.2742  -48.9751 S.3       23 UNK        -0.2404 
     17 C17        -0.4256  -21.1460  -49.1328 C.3       23 UNK        -0.0398 
     18 CA         -0.6592  -22.1235  -47.9622 C.3       11 UNK         0.1400 
     19 N          -0.8528  -21.4152  -46.6923 N.am      11 UNK        -0.5000 
     20 C          -1.0236  -21.9864  -45.4926 C.2       10 UNK         0.5000 
     21 O          -0.8811  -23.1951  -45.2938 O.2       10 UNK        -0.5000 
     22 CA         -1.5294  -21.0830  -44.3478 C.3       10 UNK         0.1400 
     23 CB         -0.4100  -20.8276  -43.3328 C.3       10 UNK        -0.1800 
     24 N          -2.1345  -19.8041  -44.7629 N.am      10 UNK        -0.5000 
     25 C          -3.1894  -19.6780  -45.5857 C.2       9 UNK         0.5000 
     26 O          -3.7234  -20.6377  -46.1411 O.2       9 UNK        -0.5000 
     27 CA         -3.7571  -18.2739  -45.8607 C.3       9 UNK         0.1400 
     28 CB         -5.1981  -18.1674  -45.3376 C.3       9 UNK        -0.1800 
     29 N          -2.9821  -17.1715  -45.2977 N.am      9 UNK        -0.5000 
     30 C          -1.8770  -16.6308  -45.8184 C.2       8 UNK         0.5000 
     31 O          -1.2784  -17.0987  -46.7880 O.2       8 UNK        -0.5000 
     32 CA         -1.3427  -15.3449  -45.1532 C.3       8 UNK         0.1400 
     33 CB         -1.9895  -14.0998  -45.7868 C.3       8 UNK        -0.1800 
     34 N          -1.4304  -15.2950  -43.6855 N.am      8 UNK        -0.5000 
     35 C          -2.5116  -15.2823  -42.8899 C.2       7 UNK         0.5000 
     36 O          -3.6674  -15.3266  -43.3141 O.2       7 UNK        -0.5000 
     37 CA         -2.2632  -15.2184  -41.3654 C.3       7 UNK         0.1400 
     38 CB         -3.4125  -15.8501  -40.5527 C.3       7 UNK        -0.1800 
     39 N          -0.9732  -15.7731  -40.9391 N.am      7 UNK        -0.5000 
     40 C          -0.5188  -17.0244  -41.1182 C.2       6 UNK         0.5000 
     41 O          -1.1610  -17.9020  -41.6953 O.2       6 UNK        -0.5000 
     42 CA          0.8934  -17.3419  -40.5826 C.3       6 UNK         0.1400 
     43 CB          1.6968  -18.2013  -41.5708 C.3       6 UNK        -0.1800 
     44 N           1.6460  -16.1153  -40.3221 N.am      6 UNK        -0.5000 
     45 C           2.0892  -15.7085  -39.1254 C.2       5 UNK         0.5000 
     46 O           1.9696  -16.3649  -38.0904 O.2       5 UNK        -0.5000 
     47 CA          2.7633  -14.3208  -39.0637 C.3       5 UNK         0.1400 
     48 CB          4.2921  -14.4666  -39.1059 C.3       5 UNK        -0.1800 
     49 N           2.3465  -13.4113  -40.1347 N.am      5 UNK        -0.5000 
     50 C           1.0992  -12.9601  -40.3285 C.2       4 UNK         0.5000 
     51 O           0.1528  -13.2269  -39.5879 O.2       4 UNK        -0.5000 
     52 CA          0.8487  -12.1327  -41.6032 C.3       4 UNK         0.1400 
     53 CB          0.9536  -10.6313  -41.2982 C.3       4 UNK        -0.1800 
     54 N           1.7407  -12.4604  -42.7213 N.am      4 UNK        -0.5000 
     55 C           1.8506  -13.6621  -43.3043 C.2       3 UNK         0.5000 
     56 O           1.2515  -14.6663  -42.9099 O.2       3 UNK        -0.5000 
     57 CA          2.7804  -13.7254  -44.5275 C.3       3 UNK         0.1400 
     58 CB          4.2629  -13.5681  -44.1326 C.3       3 UNK        -0.1800 
     59 N           2.5466  -14.9156  -45.3504 N.am      3 UNK        -0.5000 
     60 C           2.9094  -16.1898  -45.1315 C.2       2 UNK         0.5000 
     61 O           3.5951  -16.5594  -44.1783 O.2       2 UNK        -0.5000 
     62 CA          2.4292  -17.2462  -46.1549 C.3       2 UNK         0.1400 
     63 CB          1.4778  -18.2517  -45.4893 C.3       2 UNK        -0.1800 
     64 N           1.7846  -16.6696  -47.3427 N.am      2 UNK        -0.5000 
     65 C           2.4676  -16.0595  -48.3245 C.2       1 UNK         0.5000 
     66 O           3.6983  -15.9935  -48.3442 O.2       1 UNK        -0.5000 
     67 C          -1.7972  -23.1201  -48.2880 C.2       11 UNK         0.5000 
     68 O          -1.5529  -24.0713  -49.0294 O.2       11 UNK        -0.5000 
     69 N          -2.9851  -22.9522  -47.6840 N.am      12 UNK        -0.5000 
     70 CA         -4.0890  -23.9172  -47.6977 C.3       12 UNK         0.1400 
     71 CB         -5.2533  -23.3609  -46.8634 C.3       12 UNK        -0.1800 
     72 C          -3.6987  -25.3073  -47.1593 C.2       12 UNK         0.5000 
     73 O          -4.2429  -26.3069  -47.6270 O.2       12 UNK        -0.5000 
     74 N          -2.7603  -25.3411  -46.2043 N.am      13 UNK        -0.5000 
     75 CA         -2.1839  -26.5595  -45.6465 C.3       13 UNK         0.1400 
     76 CB         -2.1253  -26.4339  -44.1157 C.3       13 UNK        -0.1800 
     77 C          -0.7815  -26.8118  -46.2213 C.2       13 UNK         0.5000 
     78 O          -0.4807  -27.9434  -46.6011 O.2       13 UNK        -0.5000 
     79 N           0.0548  -25.7637  -46.2684 N.am      14 UNK        -0.5000 
     80 CA          1.4757  -25.8675  -46.6100 C.3       14 UNK         0.1400 
     81 CB          2.2068  -24.6009  -46.1376 C.3       14 UNK        -0.1800 
     82 C           1.7598  -26.1417  -48.0996 C.2       14 UNK         0.5000 
     83 O           2.7676  -26.7820  -48.4023 O.2       14 UNK        -0.5000 
     84 N           0.8889  -25.6599  -48.9958 N.am      15 UNK        -0.5000 
     85 CA          1.0195  -25.8058  -50.4501 C.3       15 UNK         0.1400 
     86 CB          1.2702  -24.4169  -51.0611 C.3       15 UNK        -0.1800 
     87 C          -0.2166  -26.4646  -51.0911 C.2       15 UNK         0.5000 
     88 O          -0.2060  -26.7046  -52.2989 O.2       15 UNK        -0.5000 
     89 N          -1.2567  -26.7299  -50.2857 N.am      16 UNK        -0.5000 
     90 CA         -2.5780  -27.2366  -50.6702 C.3       16 UNK         0.1400 
     91 CB         -2.4781  -28.6758  -51.2187 C.3       16 UNK        -0.1800 
     92 C          -3.3510  -26.2817  -51.6093 C.2       16 UNK         0.5000 
     93 O          -4.1433  -26.7443  -52.4326 O.2       16 UNK        -0.5000 
     94 N          -3.1166  -24.9689  -51.4762 N.am      17 UNK        -0.5000 
     95 CA         -3.7175  -23.9286  -52.3056 C.3       17 UNK         0.1400 
     96 CB         -2.9053  -23.7562  -53.5988 C.3       17 UNK        -0.1800 
     97 C          -3.7935  -22.6368  -51.4834 C.2       17 UNK         0.5000 
     98 O          -2.7638  -22.0189  -51.2117 O.2       17 UNK        -0.5000 
     99 N          -5.0100  -22.2898  -51.0510 N.am      18 UNK        -0.5000 
    100 CA        -5.3262  -21.2399  -50.0825 C.3       18 UNK         0.1400 
    101 CB        -6.7655  -21.4754  -49.5865 C.3       18 UNK        -0.1800 
    102 C         -5.1200  -19.7988  -50.5955 C.2       18 UNK         0.5000 
    103 O         -6.0976  -19.0647  -50.7450 O.2       18 UNK        -0.5000 
    104 N         -3.8571  -19.4141  -50.8288 N.am      19 UNK        -0.5000 
    105 CA        -3.3603  -18.0554  -51.0908 C.3       19 UNK         0.1400 
    106 CB        -3.4089  -17.2184  -49.7953 C.3       19 UNK        -0.1800 
    107 C         -4.0599  -17.3662  -52.2810 C.2       19 UNK         0.5000 
    108 O         -3.6522  -17.5583  -53.4268 O.2       19 UNK        -0.5000 
    109 N         -5.1460  -16.6291  -52.0088 N.am      20 UNK        -0.5000 
    110 CA        -6.0412  -16.0171  -52.9978 C.3       20 UNK         0.1400 
    111 CB        -7.1307  -15.2289  -52.2553 C.3       20 UNK        -0.1800 
    112 C         -6.6772  -17.0197  -53.9878 C.2       20 UNK         0.5000 
    113 O         -7.1222  -16.6094  -55.0599 O.2       20 UNK        -0.5000 
    114 N         -6.6731  -18.3132  -53.6330 N.am      21 UNK        -0.5000 
    115 CA        -7.0286  -19.4399  -54.4964 C.3       21 UNK         0.1400 
    116 CB        -7.0348  -20.7254  -53.6563 C.3       21 UNK        -0.1800 
    117 C         -6.1073  -19.6184  -55.7239 C.2       21 UNK         0.5000 
    118 O         -6.5370  -20.2492  -56.6909 O.2       21 UNK        -0.5000 
    119 N         -4.8812  -19.0748  -55.6828 N.am      22 UNK        -0.5000 
    120 CA        -3.9448  -19.0562  -56.8203 C.3       22 UNK         0.1400 
    121 C         -3.2851  -17.6678  -57.0673 C.2       22 UNK         0.5000 
    122 N         -3.2058  -16.7755  -56.0868 N.am      22 UNK        -0.7600 
    123 O         -2.8633  -17.3821  -58.1850 O.2       22 UNK        -0.5000 
    124 C124       -2.9527  -20.2608  -56.7922 C.3       23 UNK        -0.0398 
    125 S125       -1.3109  -19.9684  -56.0386 S.3       23 UNK        -0.2404 
    126 C126       -1.6668  -20.2407  -54.2785 C.3       23 UNK        -0.0205 
    127 H127        2.0125  -11.3720  -49.3585 H         1 UNK         0.0600 
    128 H128        2.1795  -11.3111  -47.6008 H         1 UNK         0.0600 
    129 H129        0.5841  -11.1519  -48.3432 H         1 UNK         0.0600 
    130 H130        2.2169  -13.4460  -50.1277 H         1 UNK         0.3000 
    131 H131        2.2568  -15.6178  -50.3568 H         1 UNK         0.0600 
    132 H132        0.1815  -16.9703  -49.6572 H         1 UNK         0.0800 
    133 H133       -0.4068  -15.5498  -48.8536 H         1 UNK         0.0800 
    134 H134        0.1803  -15.6250  -53.5042 H         1 UNK         0.0800 
    135 H135        1.5544  -15.7103  -52.4504 H         1 UNK         0.0800 
    136 H136       -1.1170  -17.5882  -54.0684 H         1 UNK         0.1150 
    137 H137        0.0208  -21.3968  -52.4663 H         1 UNK         0.1150 
    138 H138        1.9382  -17.8330  -51.0729 H         1 UNK         0.1150 
    139 H139        1.8870  -21.5499  -50.9074 H         1 UNK         0.0800 
    140 H140        2.9011  -20.1532  -50.6474 H         1 UNK         0.0800 
    141 H141       -1.2296  -20.4111  -49.1993 H         1 UNK         0.0800 
    142 H142       -0.4303  -21.6869  -50.0786 H         1 UNK         0.0800 
    143 H143        0.2393  -22.7310  -47.8568 H         1 UNK         0.0600 
    144 H144       -0.9825  -20.4163  -46.7581 H         1 UNK         0.3000 
    145 H145       -2.3110  -21.6513  -43.8399 H         1 UNK         0.0600 
    146 H146       -0.8066  -20.3858  -42.4198 H         1 UNK         0.0600 
    147 H147        0.0861  -21.7561  -43.0467 H         1 UNK         0.0600 
    148 H148        0.3499  -20.1596  -43.7334 H         1 UNK         0.0600 
    149 H149       -1.7676  -18.9681  -44.3301 H         1 UNK         0.3000 
    150 H150       -3.7854  -18.1534  -46.9447 H         1 UNK         0.0600 
    151 H151       -5.8336  -18.9430  -45.7674 H         1 UNK         0.0600 
    152 H152       -5.6416  -17.2063  -45.5988 H         1 UNK         0.0600 
    153 H153       -5.2388  -18.2711  -44.2526 H         1 UNK         0.0600 
    154 H154       -3.3961  -16.6828  -44.5072 H         1 UNK         0.3000 
    155 H155       -0.2774  -15.3073  -45.3794 H         1 UNK         0.0600 
    156 H156       -1.5283  -13.1858  -45.4124 H         1 UNK         0.0600 
    157 H157       -3.0596  -14.0454  -45.5868 H         1 UNK         0.0600 
    158 H158       -1.8626  -14.1048  -46.8702 H         1 UNK         0.0600 
    159 H159       -0.5249  -15.2513  -43.2239 H         1 UNK         0.3000 
    160 H160       -2.2297  -14.1573  -41.1152 H         1 UNK         0.0600 
    161 H161       -3.5506  -16.9032  -40.7994 H         1 UNK         0.0600 
    162 H162       -4.3578  -15.3421  -40.7470 H         1 UNK         0.0600 
    163 H163       -3.2234  -15.7782  -39.4816 H         1 UNK         0.0600 
    164 H164       -0.3737  -15.1240  -40.4441 H         1 UNK         0.3000 
    165 H165        0.7597  -17.9140  -39.6627 H         1 UNK         0.0600 
    166 H166        1.7408  -17.7356  -42.5549 H         1 UNK         0.0600 
    167 H167        2.7198  -18.3517  -41.2257 H         1 UNK         0.0600 
    168 H168        1.2489  -19.1872  -41.6856 H         1 UNK         0.0600 
    169 H169        1.7688  -15.5080  -41.1263 H         1 UNK         0.3000 
    170 H170        2.4865  -13.8644  -38.1111 H         1 UNK         0.0600 
    171 H171        4.6454  -15.1166  -38.3043 H         1 UNK         0.0600 
    172 H172        4.6285  -14.8971  -40.0501 H         1 UNK         0.0600 
    173 H173        4.7848  -13.5022  -38.9808 H         1 UNK         0.0600 
    174 H174        3.0547  -13.1483  -40.8039 H         1 UNK         0.3000 
    175 H175       -0.1721  -12.3440  -41.9289 H         1 UNK         0.0600 
    176 H176        1.9649  -10.3508  -41.0012 H         1 UNK         0.0600 
    177 H177        0.6790  -10.0317  -42.1662 H         1 UNK         0.0600 
    178 H178        0.2825  -10.3492  -40.4857 H         1 UNK         0.0600 
    179 H179        2.2700  -11.6889  -43.1016 H         1 UNK         0.3000 
    180 H180        2.5175  -12.8814  -45.1667 H         1 UNK         0.0600 
    181 H181        4.5664  -14.2953  -43.3790 H         1 UNK         0.0600 
    182 H182        4.4542  -12.5782  -43.7173 H         1 UNK         0.0600 
    183 H183        4.9164  -13.6862  -44.9970 H         1 UNK         0.0600 
    184 H184        1.9524  -14.7375  -46.1546 H         1 UNK         0.3000 
    185 H185        3.3100  -17.8011  -46.4848 H         1 UNK         0.0600 
    186 H186        1.0350  -18.9322  -46.2161 H         1 UNK         0.0600 
    187 H187        2.0209  -18.8602  -44.7660 H         1 UNK         0.0600 
    188 H188        0.6711  -17.7541  -44.9522 H         1 UNK         0.0600 
    189 H189        0.7714  -16.6969  -47.3633 H         1 UNK         0.3000 
    190 H190       -3.1260  -22.1321  -47.0982 H         1 UNK         0.3000 
    191 H191       -4.4191  -24.0358  -48.7309 H         1 UNK         0.0600 
    192 H192       -5.5510  -22.3681  -47.1953 H         1 UNK         0.0600 
    193 H193       -6.1297  -24.0062  -46.9352 H         1 UNK         0.0600 
    194 H194       -4.9875  -23.2827  -45.8083 H         1 UNK         0.0600 
    195 H195       -2.3489  -24.4682  -45.8940 H         1 UNK         0.3000 
    196 H196       -2.8059  -27.4241  -45.8878 H         1 UNK         0.0600 
    197 H197       -1.6907  -27.3279  -43.6666 H         1 UNK         0.0600 
    198 H198       -3.1233  -26.3111  -43.6946 H         1 UNK         0.0600 
    199 H199       -1.5233  -25.5807  -43.8000 H         1 UNK         0.0600 
    200 H200       -0.2606  -24.8651  -45.9131 H         1 UNK         0.3000 
    201 H201        1.8876  -26.7088  -46.0482 H         1 UNK         0.0600 
    202 H202        2.0656  -24.4398  -45.0686 H         1 UNK         0.0600 
    203 H203        1.8597  -23.7095  -46.6570 H         1 UNK         0.0600 
    204 H204        3.2801  -24.6826  -46.3138 H         1 UNK         0.0600 
    205 H205        0.0832  -25.1329  -48.6785 H         1 UNK         0.3000 
    206 H206        1.8695  -26.4440  -50.6986 H         1 UNK         0.0600 
    207 H207        2.1505  -23.9490  -50.6209 H         1 UNK         0.0600 
    208 H208        1.4419  -24.4850  -52.1360 H         1 UNK         0.0600 
    209 H209        0.4201  -23.7521  -50.9087 H         1 UNK         0.0600 
    210 H210       -1.1621  -26.4728  -49.3147 H         1 UNK         0.3000 
    211 H211       -3.1599  -27.2866  -49.7514 H         1 UNK         0.0600 
    212 H212       -1.9765  -28.7089  -52.1861 H         1 UNK         0.0600 
    213 H213       -3.4683  -29.1133  -51.3504 H         1 UNK         0.0600 
    214 H214       -1.9293  -29.3214  -50.5331 H         1 UNK         0.0600 
    215 H215       -2.4777  -24.6465  -50.7542 H         1 UNK         0.3000 
    216 H216       -4.7338  -24.2210  -52.5788 H         1 UNK         0.0600 
    217 H217       -3.3229  -22.9616  -54.2177 H         1 UNK         0.0600 
    218 H218       -2.9175  -24.6686  -54.1952 H         1 UNK         0.0600 
    219 H219       -1.8629  -23.5158  -53.3869 H         1 UNK         0.0600 
    220 H220       -5.7959  -22.8505  -51.3462 H         1 UNK         0.3000 
    221 H221       -4.6586  -21.3584  -49.2282 H         1 UNK         0.0600 
    222 H222       -7.4946  -21.3493  -50.3876 H         1 UNK         0.0600 
    223 H223       -6.8906  -22.4806  -49.1844 H         1 UNK         0.0600 
    224 H224       -7.0250  -20.7739  -48.7925 H         1 UNK         0.0600 
    225 H225       -3.1532  -20.1466  -50.8144 H         1 UNK         0.3000 
    226 H226       -2.3111  -18.1571  -51.3649 H         1 UNK         0.0600 
    227 H227       -2.7175  -17.6218  -49.0561 H         1 UNK         0.0600 
    228 H228       -3.1112  -16.1856  -49.9781 H         1 UNK         0.0600 
    229 H229       -4.4022  -17.2007  -49.3462 H         1 UNK         0.0600 
    230 H230       -5.4523  -16.5871  -51.0476 H         1 UNK         0.3000 
    231 H231       -5.4480  -15.3151  -53.5871 H         1 UNK         0.0600 
    232 H232       -7.8015  -14.7312  -52.9568 H         1 UNK         0.0600 
    233 H233       -6.6963  -14.4566  -51.6202 H         1 UNK         0.0600 
    234 H234       -7.7378  -15.8810  -51.6260 H         1 UNK         0.0600 
    235 H235       -6.3435  -18.5432  -52.7012 H         1 UNK         0.3000 
    236 H236       -8.0406  -19.2654  -54.8671 H         1 UNK         0.0600 
    237 H237       -7.6971  -20.6342  -52.7955 H         1 UNK         0.0600 
    238 H238       -7.3810  -21.5760  -54.2447 H         1 UNK         0.0600 
    239 H239       -6.0354  -20.9639  -53.2934 H         1 UNK         0.0600 
    240 H240       -4.5906  -18.5655  -54.8558 H         1 UNK         0.3000 
    241 H241       -4.5464  -19.1933  -57.7212 H         1 UNK         0.0600 
    242 H242       -3.4459  -17.0152  -55.1285 H         1 UNK         0.3800 
    243 H243       -2.7900  -15.8792  -56.2810 H         1 UNK         0.3800 
    244 H244       -2.7572  -20.5665  -57.8209 H         1 UNK         0.0800 
    245 H245       -3.4139  -21.1316  -56.3239 H         1 UNK         0.0800 
    246 H246       -2.6571  -19.8638  -54.0274 H         1 UNK         0.0800 
    247 H247       -1.6860  -21.3116  -54.0921 H         1 UNK         0.0800 
@<TRIPOS>BOND
     1    1    2 1    
     2    1  127 1    
     3    1  128 1    
     4    1  129 1    
     5    2    3 2    
     6    2    4 am   BACKBONE|DICT|INTERRES
     7    4    5 1    
     8    4  130 1    
     9    5    6 1    
    10    5   65 1    
    11    5  131 1    
    12    6    7 1    
    13    6  132 1    
    14    6  133 1    
    15    7    8 1    
    16    8    9 1    
    17    8  134 1    
    18    8  135 1    
    19    9   10 ar   
    20    9   14 ar   
    21   10   11 ar   
    22   10  136 1    
    23   11   12 ar   
    24   11  126 1    
    25   12   13 ar   
    26   12  137 1    
    27   13   14 ar   
    28   13   15 1    
    29   14  138 1    
    30   15   16 1    
    31   15  139 1    
    32   15  140 1    
    33   16   17 1    
    34   17   18 1    
    35   17  141 1    
    36   17  142 1    
    37   18   19 1    
    38   18   67 1    
    39   18  143 1    
    40   19   20 am   BACKBONE|DICT|INTERRES
    41   19  144 1    
    42   20   21 2    
    43   20   22 1    
    44   22   23 1    
    45   22   24 1    
    46   22  145 1    
    47   23  146 1    
    48   23  147 1    
    49   23  148 1    
    50   24   25 am   BACKBONE|DICT|INTERRES
    51   24  149 1    
    52   25   26 2    
    53   25   27 1    
    54   27   28 1    
    55   27   29 1    
    56   27  150 1    
    57   28  151 1    
    58   28  152 1    
    59   28  153 1    
    60   29   30 am   BACKBONE|DICT|INTERRES
    61   29  154 1    
    62   30   31 2    
    63   30   32 1    
    64   32   33 1    
    65   32   34 1    
    66   32  155 1    
    67   33  156 1    
    68   33  157 1    
    69   33  158 1    
    70   34   35 am   BACKBONE|DICT|INTERRES
    71   34  159 1    
    72   35   36 2    
    73   35   37 1    
    74   37   38 1    
    75   37   39 1    
    76   37  160 1    
    77   38  161 1    
    78   38  162 1    
    79   38  163 1    
    80   39   40 am   BACKBONE|DICT|INTERRES
    81   39  164 1    
    82   40   41 2    
    83   40   42 1    
    84   42   43 1    
    85   42   44 1    
    86   42  165 1    
    87   43  166 1    
    88   43  167 1    
    89   43  168 1    
    90   44   45 am   BACKBONE|DICT|INTERRES
    91   44  169 1    
    92   45   46 2    
    93   45   47 1    
    94   47   48 1    
    95   47   49 1    
    96   47  170 1    
    97   48  171 1    
    98   48  172 1    
    99   48  173 1    
   100   49   50 am   BACKBONE|DICT|INTERRES
   101   49  174 1    
   102   50   51 2    
   103   50   52 1    
   104   52   53 1    
   105   52   54 1    
   106   52  175 1    
   107   53  176 1    
   108   53  177 1    
   109   53  178 1    
   110   54   55 am   BACKBONE|DICT|INTERRES
   111   54  179 1    
   112   55   56 2    
   113   55   57 1    
   114   57   58 1    
   115   57   59 1    
   116   57  180 1    
   117   58  181 1    
   118   58  182 1    
   119   58  183 1    
   120   59   60 am   BACKBONE|DICT|INTERRES
   121   59  184 1    
   122   60   61 2    
   123   60   62 1    
   124   62   63 1    
   125   62   64 1    
   126   62  185 1    
   127   63  186 1    
   128   63  187 1    
   129   63  188 1    
   130   64   65 am   BACKBONE|DICT|INTERRES
   131   64  189 1    
   132   65   66 2    
   133   67   68 2    
   134   67   69 am   BACKBONE|DICT|INTERRES
   135   69   70 1    
   136   69  190 1    
   137   70   71 1    
   138   70   72 1    
   139   70  191 1    
   140   71  192 1    
   141   71  193 1    
   142   71  194 1    
   143   72   73 2    
   144   72   74 am   BACKBONE|DICT|INTERRES
   145   74   75 1    
   146   74  195 1    
   147   75   76 1    
   148   75   77 1    
   149   75  196 1    
   150   76  197 1    
   151   76  198 1    
   152   76  199 1    
   153   77   78 2    
   154   77   79 am   BACKBONE|DICT|INTERRES
   155   79   80 1    
   156   79  200 1    
   157   80   81 1    
   158   80   82 1    
   159   80  201 1    
   160   81  202 1    
   161   81  203 1    
   162   81  204 1    
   163   82   83 2    
   164   82   84 am   BACKBONE|DICT|INTERRES
   165   84   85 1    
   166   84  205 1    
   167   85   86 1    
   168   85   87 1    
   169   85  206 1    
   170   86  207 1    
   171   86  208 1    
   172   86  209 1    
   173   87   88 2    
   174   87   89 am   BACKBONE|DICT|INTERRES
   175   89   90 1    
   176   89  210 1    
   177   90   91 1    
   178   90   92 1    
   179   90  211 1    
   180   91  212 1    
   181   91  213 1    
   182   91  214 1    
   183   92   93 2    
   184   92   94 am   BACKBONE|DICT|INTERRES
   185   94   95 1    
   186   94  215 1    
   187   95   96 1    
   188   95   97 1    
   189   95  216 1    
   190   96  217 1    
   191   96  218 1    
   192   96  219 1    
   193   97   98 2    
   194   97   99 am   BACKBONE|DICT|INTERRES
   195   99  100 1    
   196   99  220 1    
   197  100  101 1    
   198  100  102 1    
   199  100  221 1    
   200  101  222 1    
   201  101  223 1    
   202  101  224 1    
   203  102  103 2    
   204  102  104 am   BACKBONE|DICT|INTERRES
   205  104  105 1    
   206  104  225 1    
   207  105  106 1    
   208  105  107 1    
   209  105  226 1    
   210  106  227 1    
   211  106  228 1    
   212  106  229 1    
   213  107  108 2    
   214  107  109 am   BACKBONE|DICT|INTERRES
   215  109  110 1    
   216  109  230 1    
   217  110  111 1    
   218  110  112 1    
   219  110  231 1    
   220  111  232 1    
   221  111  233 1    
   222  111  234 1    
   223  112  113 2    
   224  112  114 am   BACKBONE|DICT|INTERRES
   225  114  115 1    
   226  114  235 1    
   227  115  116 1    
   228  115  117 1    
   229  115  236 1    
   230  116  237 1    
   231  116  238 1    
   232  116  239 1    
   233  117  118 2    
   234  117  119 am   BACKBONE|DICT|INTERRES
   235  119  120 1    
   236  119  240 1    
   237  120  121 1    
   238  120  124 1    
   239  120  241 1    
   240  121  122 am   BACKBONE|DICT|INTERRES
   241  121  123 2    
   242  122  242 1    
   243  122  243 1    
   244  124  125 1    
   245  124  244 1    
   246  124  245 1    
   247  125  126 1    
   248  126  246 1    
   249  126  247 1    
@<TRIPOS>SUBSTRUCTURE
     1 UNK         1 GROUP             0       ****    0 ROOT    
