@<TRIPOS>MOLECULE
3R540
247   249    1
SMALL
USER_CHARGES


@<TRIPOS>ATOM
      1 CA          2.3024  -15.4695  -48.1293 C.3       0 UNK        -0.1800 
      2 C           1.4054  -14.4682  -47.4218 C.2       0 UNK         0.5000 
      3 O           1.8850  -13.6937  -46.5934 O.2       0 UNK        -0.5000 
      4 N           0.1080  -14.4564  -47.7597 N.am      1 UNK        -0.5000 
      5 CA         -0.9193  -13.6138  -47.1265 C.3       1 UNK         0.1400 
      6 C6         -2.3591  -13.9935  -47.5459 C.3       23 UNK        -0.0398 
      7 S7         -2.8421  -15.6406  -46.9313 S.3       23 UNK        -0.2404 
      8 C8         -3.1253  -16.5434  -48.4849 C.3       23 UNK        -0.0205 
      9 C9         -1.8211  -16.8395  -49.2066 C.ar      23 UNK        -0.0193 
     10 C10        -1.4448  -16.1065  -50.3362 C.ar      23 UNK        -0.1150 
     11 C11        -0.2288  -16.3643  -50.9774 C.ar      23 UNK        -0.0193 
     12 C12         0.5960  -17.3854  -50.4927 C.ar      23 UNK        -0.1150 
     13 C13         0.2250  -18.1307  -49.3698 C.ar      23 UNK        -0.0193 
     14 C14        -0.9803  -17.8445  -48.7260 C.ar      23 UNK        -0.1150 
     15 C15         1.1417  -19.2209  -48.8370 C.3       23 UNK        -0.0205 
     16 S16         0.7932  -20.8267  -49.6167 S.3       23 UNK        -0.2404 
     17 C17        -0.6933  -21.3797  -48.7126 C.3       23 UNK        -0.0398 
     18 CA         -0.4660  -22.7168  -47.9782 C.3       11 UNK         0.1400 
     19 N           0.6047  -22.6392  -46.9833 N.am      11 UNK        -0.5000 
     20 C           1.2976  -23.7010  -46.5545 C.2       10 UNK         0.5000 
     21 O           1.1028  -24.8498  -46.9507 O.2       10 UNK        -0.5000 
     22 CA          2.3564  -23.4340  -45.4708 C.3       10 UNK         0.1400 
     23 CB          3.6741  -22.9687  -46.1079 C.3       10 UNK        -0.1800 
     24 N           1.9327  -22.4516  -44.4695 N.am      10 UNK        -0.5000 
     25 C           0.8700  -22.5690  -43.6661 C.2       9 UNK         0.5000 
     26 O           0.0726  -23.5036  -43.7410 O.2       9 UNK        -0.5000 
     27 CA          0.6356  -21.4742  -42.6068 C.3       9 UNK         0.1400 
     28 CB          1.3832  -21.8157  -41.3054 C.3       9 UNK        -0.1800 
     29 N           0.9098  -20.0878  -43.0117 N.am      9 UNK        -0.5000 
     30 C           2.0716  -19.5064  -43.3557 C.2       8 UNK         0.5000 
     31 O           3.1188  -20.1208  -43.5611 O.2       8 UNK        -0.5000 
     32 CA          2.0733  -17.9650  -43.4559 C.3       8 UNK         0.1400 
     33 CB          1.7692  -17.5229  -44.8967 C.3       8 UNK        -0.1800 
     34 N           1.1226  -17.3206  -42.5447 N.am      8 UNK        -0.5000 
     35 C           1.0953  -17.4691  -41.2105 C.2       7 UNK         0.5000 
     36 O           1.9797  -18.0407  -40.5719 O.2       7 UNK        -0.5000 
     37 CA         -0.1394  -16.9342  -40.4551 C.3       7 UNK         0.1400 
     38 CB          0.2035  -15.6624  -39.6636 C.3       7 UNK        -0.1800 
     39 N          -1.3093  -16.6598  -41.2912 N.am      7 UNK        -0.5000 
     40 C          -1.9848  -17.5184  -42.0654 C.2       6 UNK         0.5000 
     41 O          -1.6822  -18.7064  -42.1884 O.2       6 UNK        -0.5000 
     42 CA         -3.1702  -16.9492  -42.8764 C.3       6 UNK         0.1400 
     43 CB         -4.4859  -17.0475  -42.0824 C.3       6 UNK        -0.1800 
     44 N          -2.9532  -15.5908  -43.4014 N.am      6 UNK        -0.5000 
     45 C          -2.8171  -14.4355  -42.7332 C.2       5 UNK         0.5000 
     46 O          -2.9254  -14.3231  -41.5107 O.2       5 UNK        -0.5000 
     47 CA         -2.3880  -13.2143  -43.5669 C.3       5 UNK         0.1400 
     48 CB         -3.2992  -12.0068  -43.2979 C.3       5 UNK        -0.1800 
     49 N          -0.9946  -12.8285  -43.3099 N.am      5 UNK        -0.5000 
     50 C           0.0806  -13.6282  -43.3745 C.2       4 UNK         0.5000 
     51 O           0.0403  -14.8085  -43.7254 O.2       4 UNK        -0.5000 
     52 CA          1.4266  -12.9768  -43.0283 C.3       4 UNK         0.1400 
     53 CB          2.5032  -14.0025  -42.6250 C.3       4 UNK        -0.1800 
     54 N           1.9031  -12.2333  -44.1886 N.am      4 UNK        -0.5000 
     55 C           2.5224  -11.0477  -44.1422 C.2       3 UNK         0.5000 
     56 O           2.6708  -10.3961  -43.1075 O.2       3 UNK        -0.5000 
     57 CA          3.0848  -10.4949  -45.4627 C.3       3 UNK         0.1400 
     58 CB          4.4578  -11.1202  -45.7578 C.3       3 UNK        -0.1800 
     59 N           2.1913  -10.7630  -46.5888 N.am      3 UNK        -0.5000 
     60 C           1.5206   -9.8289  -47.2781 C.2       2 UNK         0.5000 
     61 O           1.5955   -8.6212  -47.0476 O.2       2 UNK        -0.5000 
     62 CA          0.6090  -10.3154  -48.4256 C.3       2 UNK         0.1400 
     63 CB          1.3382  -10.2066  -49.7736 C.3       2 UNK        -0.1800 
     64 N           0.1435  -11.6915  -48.2511 N.am      2 UNK        -0.5000 
     65 C          -0.6939  -12.0948  -47.2862 C.2       1 UNK         0.5000 
     66 O          -1.2579  -11.3218  -46.5116 O.2       1 UNK        -0.5000 
     67 C          -1.7813  -23.2381  -47.3658 C.2       11 UNK         0.5000 
     68 O          -2.5494  -23.8954  -48.0675 O.2       11 UNK        -0.5000 
     69 N          -2.0095  -22.9782  -46.0697 N.am      12 UNK        -0.5000 
     70 CA         -3.1478  -23.5089  -45.3149 C.3       12 UNK         0.1400 
     71 CB         -3.3077  -22.7390  -43.9951 C.3       12 UNK        -0.1800 
     72 C          -3.0056  -25.0218  -45.0677 C.2       12 UNK         0.5000 
     73 O          -3.9893  -25.7523  -45.1840 O.2       12 UNK        -0.5000 
     74 N          -1.7693  -25.4750  -44.8113 N.am      13 UNK        -0.5000 
     75 CA         -1.3882  -26.8887  -44.7387 C.3       13 UNK         0.1400 
     76 CB          0.0518  -26.9987  -44.2159 C.3       13 UNK        -0.1800 
     77 C          -1.5436  -27.6270  -46.0858 C.2       13 UNK         0.5000 
     78 O          -1.7935  -28.8322  -46.0913 O.2       13 UNK        -0.5000 
     79 N          -1.4548  -26.8826  -47.1972 N.am      14 UNK        -0.5000 
     80 CA         -1.7507  -27.3304  -48.5607 C.3       14 UNK         0.1400 
     81 CB         -0.8519  -26.5615  -49.5460 C.3       14 UNK        -0.1800 
     82 C          -3.2480  -27.1867  -48.9224 C.2       14 UNK         0.5000 
     83 O          -3.5860  -27.1564  -50.1066 O.2       14 UNK        -0.5000 
     84 N          -4.1211  -27.0768  -47.9085 N.am      15 UNK        -0.5000 
     85 CA         -5.5847  -26.9950  -47.9852 C.3       15 UNK         0.1400 
     86 CB         -6.1717  -28.3138  -48.5305 C.3       15 UNK        -0.1800 
     87 C          -6.1021  -25.7540  -48.7424 C.2       15 UNK         0.5000 
     88 O          -7.1885  -25.7991  -49.3211 O.2       15 UNK        -0.5000 
     89 N          -5.3052  -24.6749  -48.7358 N.am      16 UNK        -0.5000 
     90 CA         -5.5162  -23.3952  -49.4193 C.3       16 UNK         0.1400 
     91 CB         -6.8089  -22.7010  -48.9447 C.3       16 UNK        -0.1800 
     92 C          -5.4215  -23.4730  -50.9570 C.2       16 UNK         0.5000 
     93 O          -5.6687  -22.4649  -51.6189 O.2       16 UNK        -0.5000 
     94 N          -5.0112  -24.6222  -51.5157 N.am      17 UNK        -0.5000 
     95 CA         -4.8096  -24.8038  -52.9559 C.3       17 UNK         0.1400 
     96 CB         -4.5888  -26.2916  -53.2647 C.3       17 UNK        -0.1800 
     97 C          -3.6388  -23.9546  -53.4794 C.2       17 UNK         0.5000 
     98 O          -3.7523  -23.3322  -54.5349 O.2       17 UNK        -0.5000 
     99 N          -2.5576  -23.8943  -52.6903 N.am      18 UNK        -0.5000 
    100 CA        -1.3910  -23.0529  -52.9512 C.3       18 UNK         0.1400 
    101 CB        -0.2431  -23.4883  -52.0314 C.3       18 UNK        -0.1800 
    102 C         -1.6901  -21.5499  -52.7883 C.2       18 UNK         0.5000 
    103 O         -1.0919  -20.7424  -53.4958 O.2       18 UNK        -0.5000 
    104 N         -2.6292  -21.2049  -51.8932 N.am      19 UNK        -0.5000 
    105 CA        -3.1115  -19.8368  -51.6915 C.3       19 UNK         0.1400 
    106 CB        -3.8663  -19.7251  -50.3574 C.3       19 UNK        -0.1800 
    107 C         -4.0002  -19.3751  -52.8583 C.2       19 UNK         0.5000 
    108 O         -3.8472  -18.2487  -53.3266 O.2       19 UNK        -0.5000 
    109 N         -4.8822  -20.2651  -53.3355 N.am      20 UNK        -0.5000 
    110 CA        -5.7368  -20.0476  -54.5046 C.3       20 UNK         0.1400 
    111 CB        -6.7537  -21.1941  -54.6103 C.3       20 UNK        -0.1800 
    112 C         -4.9357  -19.9046  -55.8135 C.2       20 UNK         0.5000 
    113 O         -5.3113  -19.1066  -56.6726 O.2       20 UNK        -0.5000 
    114 N         -3.8352  -20.6601  -55.9286 N.am      21 UNK        -0.5000 
    115 CA        -2.8861  -20.5929  -57.0410 C.3       21 UNK         0.1400 
    116 CB        -2.0523  -21.8837  -57.0541 C.3       21 UNK        -0.1800 
    117 C         -1.9609  -19.3579  -56.9945 C.2       21 UNK         0.5000 
    118 O         -1.3398  -19.0396  -58.0098 O.2       21 UNK        -0.5000 
    119 N         -1.8584  -18.7039  -55.8303 N.am      22 UNK        -0.5000 
    120 CA        -1.0248  -17.5183  -55.5902 C.3       22 UNK         0.1400 
    121 C         -1.5039  -16.2634  -56.3752 C.2       22 UNK         0.5000 
    122 N         -0.5866  -15.4172  -56.8237 N.am      22 UNK        -0.7600 
    123 O         -2.6976  -16.0299  -56.5520 O.2       22 UNK        -0.5000 
    124 C124       -0.9036  -17.2289  -54.0711 C.3       23 UNK        -0.0398 
    125 S125        0.6880  -16.4639  -53.6248 S.3       23 UNK        -0.2404 
    126 C126        0.2137  -15.4995  -52.1537 C.3       23 UNK        -0.0205 
    127 H127        2.1825  -15.3979  -49.2098 H         1 UNK         0.0600 
    128 H128        2.0602  -16.4830  -47.8125 H         1 UNK         0.0600 
    129 H129        3.3497  -15.2813  -47.8928 H         1 UNK         0.0600 
    130 H130       -0.2327  -15.1291  -48.4339 H         1 UNK         0.3000 
    131 H131       -0.8272  -13.8066  -46.0607 H         1 UNK         0.0600 
    132 H132       -2.4722  -13.9359  -48.6290 H         1 UNK         0.0800 
    133 H133       -3.0833  -13.2876  -47.1343 H         1 UNK         0.0800 
    134 H134       -3.8094  -15.9817  -49.1228 H         1 UNK         0.0800 
    135 H135       -3.6284  -17.4820  -48.2498 H         1 UNK         0.0800 
    136 H136       -2.0897  -15.3207  -50.7038 H         1 UNK         0.1150 
    137 H137        1.5377  -17.5899  -50.9824 H         1 UNK         0.1150 
    138 H138       -1.2662  -18.3919  -47.8399 H         1 UNK         0.1150 
    139 H139        2.1806  -18.9549  -49.0376 H         1 UNK         0.0800 
    140 H140        1.0562  -19.3018  -47.7524 H         1 UNK         0.0800 
    141 H141       -1.4929  -21.4875  -49.4437 H         1 UNK         0.0800 
    142 H142       -1.0204  -20.6150  -48.0096 H         1 UNK         0.0800 
    143 H143       -0.1642  -23.4505  -48.7272 H         1 UNK         0.0600 
    144 H144        0.8372  -21.7275  -46.6194 H         1 UNK         0.3000 
    145 H145        2.5398  -24.3767  -44.9513 H         1 UNK         0.0600 
    146 H146        4.4577  -22.8612  -45.3577 H         1 UNK         0.0600 
    147 H147        4.0278  -23.6895  -46.8464 H         1 UNK         0.0600 
    148 H148        3.5602  -22.0085  -46.6129 H         1 UNK         0.0600 
    149 H149        2.5427  -21.6518  -44.3121 H         1 UNK         0.3000 
    150 H150       -0.4315  -21.4965  -42.3800 H         1 UNK         0.0600 
    151 H151        1.1077  -22.8077  -40.9450 H         1 UNK         0.0600 
    152 H152        1.1420  -21.1040  -40.5156 H         1 UNK         0.0600 
    153 H153        2.4648  -21.8073  -41.4442 H         1 UNK         0.0600 
    154 H154        0.1157  -19.4677  -42.8861 H         1 UNK         0.3000 
    155 H155        3.0735  -17.6173  -43.1908 H         1 UNK         0.0600 
    156 H156        0.7555  -17.7917  -45.1966 H         1 UNK         0.0600 
    157 H157        2.4573  -17.9875  -45.6041 H         1 UNK         0.0600 
    158 H158        1.8733  -16.4437  -45.0072 H         1 UNK         0.0600 
    159 H159        0.4107  -16.7407  -42.9749 H         1 UNK         0.3000 
    160 H160       -0.4272  -17.7097  -39.7427 H         1 UNK         0.0600 
    161 H161        0.3739  -14.8115  -40.3225 H         1 UNK         0.0600 
    162 H162        1.1010  -15.8001  -39.0590 H         1 UNK         0.0600 
    163 H163       -0.6060  -15.3959  -38.9838 H         1 UNK         0.0600 
    164 H164       -1.6722  -15.7119  -41.2556 H         1 UNK         0.3000 
    165 H165       -3.2730  -17.5863  -43.7563 H         1 UNK         0.0600 
    166 H166       -4.4539  -16.4644  -41.1618 H         1 UNK         0.0600 
    167 H167       -5.3306  -16.6954  -42.6744 H         1 UNK         0.0600 
    168 H168       -4.6927  -18.0814  -41.8033 H         1 UNK         0.0600 
    169 H169       -2.7798  -15.5645  -44.3980 H         1 UNK         0.3000 
    170 H170       -2.4877  -13.4656  -44.6213 H         1 UNK         0.0600 
    171 H171       -3.2145  -11.6575  -42.2680 H         1 UNK         0.0600 
    172 H172       -3.0522  -11.1740  -43.9570 H         1 UNK         0.0600 
    173 H173       -4.3453  -12.2603  -43.4743 H         1 UNK         0.0600 
    174 H174       -0.8532  -11.8681  -43.0334 H         1 UNK         0.3000 
    175 H175        1.2575  -12.3074  -42.1823 H         1 UNK         0.0600 
    176 H176        2.7359  -14.6851  -43.4432 H         1 UNK         0.0600 
    177 H177        3.4289  -13.5057  -42.3349 H         1 UNK         0.0600 
    178 H178        2.1809  -14.6040  -41.7766 H         1 UNK         0.0600 
    179 H179        1.8339  -12.7273  -45.0768 H         1 UNK         0.3000 
    180 H180        3.2278   -9.4203  -45.3316 H         1 UNK         0.0600 
    181 H181        4.9002  -10.6893  -46.6561 H         1 UNK         0.0600 
    182 H182        4.3868  -12.1990  -45.9042 H         1 UNK         0.0600 
    183 H183        5.1530  -10.9442  -44.9359 H         1 UNK         0.0600 
    184 H184        2.0520  -11.7399  -46.8245 H         1 UNK         0.3000 
    185 H185       -0.2646   -9.6607  -48.4538 H         1 UNK         0.0600 
    186 H186        0.6829  -10.4809  -50.6005 H         1 UNK         0.0600 
    187 H187        1.6760   -9.1851  -49.9535 H         1 UNK         0.0600 
    188 H188        2.2156  -10.8536  -49.8098 H         1 UNK         0.0600 
    189 H189        0.5634  -12.3930  -48.8429 H         1 UNK         0.3000 
    190 H190       -1.3082  -22.4821  -45.5405 H         1 UNK         0.3000 
    191 H191       -4.0526  -23.3517  -45.9066 H         1 UNK         0.0600 
    192 H192       -4.1955  -23.0745  -43.4575 H         1 UNK         0.0600 
    193 H193       -3.4207  -21.6693  -44.1723 H         1 UNK         0.0600 
    194 H194       -2.4547  -22.8810  -43.3322 H         1 UNK         0.0600 
    195 H195       -1.0289  -24.7965  -44.6548 H         1 UNK         0.3000 
    196 H196       -2.0497  -27.3754  -44.0192 H         1 UNK         0.0600 
    197 H197        0.7640  -26.5270  -44.8926 H         1 UNK         0.0600 
    198 H198        0.1542  -26.5237  -43.2400 H         1 UNK         0.0600 
    199 H199        0.3477  -28.0424  -44.1033 H         1 UNK         0.0600 
    200 H200       -1.2267  -25.9040  -47.0925 H         1 UNK         0.3000 
    201 H201       -1.5044  -28.3905  -48.6463 H         1 UNK         0.0600 
    202 H202       -1.1198  -25.5075  -49.5990 H         1 UNK         0.0600 
    203 H203       -0.9370  -26.9691  -50.5540 H         1 UNK         0.0600 
    204 H204        0.1978  -26.6265  -49.2587 H         1 UNK         0.0600 
    205 H205       -3.7473  -27.0349  -46.9690 H         1 UNK         0.3000 
    206 H206       -5.9328  -26.8819  -46.9576 H         1 UNK         0.0600 
    207 H207       -5.7981  -29.1721  -47.9721 H         1 UNK         0.0600 
    208 H208       -7.2590  -28.3240  -48.4469 H         1 UNK         0.0600 
    209 H209       -5.9236  -28.4633  -49.5818 H         1 UNK         0.0600 
    210 H210       -4.4048  -24.7536  -48.2739 H         1 UNK         0.3000 
    211 H211       -4.6867  -22.7586  -49.1111 H         1 UNK         0.0600 
    212 H212       -6.8639  -21.6792  -49.3220 H         1 UNK         0.0600 
    213 H213       -6.8504  -22.6457  -47.8569 H         1 UNK         0.0600 
    214 H214       -7.7026  -23.2201  -49.2908 H         1 UNK         0.0600 
    215 H215       -4.7976  -25.4127  -50.9197 H         1 UNK         0.3000 
    216 H216       -5.7167  -24.4791  -53.4701 H         1 UNK         0.0600 
    217 H217       -3.6826  -26.6731  -52.7930 H         1 UNK         0.0600 
    218 H218       -4.4932  -26.4558  -54.3387 H         1 UNK         0.0600 
    219 H219       -5.4267  -26.8954  -52.9157 H         1 UNK         0.0600 
    220 H220       -2.5498  -24.4436  -51.8435 H         1 UNK         0.3000 
    221 H221       -1.0767  -23.2161  -53.9842 H         1 UNK         0.0600 
    222 H222        0.0431  -24.5233  -52.2186 H         1 UNK         0.0600 
    223 H223       -0.5218  -23.4026  -50.9831 H         1 UNK         0.0600 
    224 H224        0.6425  -22.8711  -52.1891 H         1 UNK         0.0600 
    225 H225       -3.1102  -21.9375  -51.3961 H         1 UNK         0.3000 
    226 H226       -2.2480  -19.1693  -51.6411 H         1 UNK         0.0600 
    227 H227       -4.7037  -20.4184  -50.2984 H         1 UNK         0.0600 
    228 H228       -3.2110  -19.9125  -49.5084 H         1 UNK         0.0600 
    229 H229       -4.2733  -18.7214  -50.2323 H         1 UNK         0.0600 
    230 H230       -4.9999  -21.1491  -52.8484 H         1 UNK         0.3000 
    231 H231       -6.2865  -19.1171  -54.3487 H         1 UNK         0.0600 
    232 H232       -6.2617  -22.1576  -54.7463 H         1 UNK         0.0600 
    233 H233       -7.4249  -21.0447  -55.4569 H         1 UNK         0.0600 
    234 H234       -7.3697  -21.2581  -53.7131 H         1 UNK         0.0600 
    235 H235       -3.6459  -21.3521  -55.2120 H         1 UNK         0.3000 
    236 H236       -3.4506  -20.5439  -57.9744 H         1 UNK         0.0600 
    237 H237       -2.6885  -22.7643  -57.1454 H         1 UNK         0.0600 
    238 H238       -1.3593  -21.8951  -57.8962 H         1 UNK         0.0600 
    239 H239       -1.4634  -21.9883  -56.1424 H         1 UNK         0.0600 
    240 H240       -2.4246  -19.0134  -55.0530 H         1 UNK         0.3000 
    241 H241       -0.0337  -17.7822  -55.9650 H         1 UNK         0.0600 
    242 H242       -0.8806  -14.5927  -57.3240 H         1 UNK         0.3800 
    243 H243        0.3966  -15.5755  -56.6638 H         1 UNK         0.3800 
    244 H244       -0.9589  -18.1545  -53.4994 H         1 UNK         0.0800 
    245 H245       -1.7330  -16.6138  -53.7172 H         1 UNK         0.0800 
    246 H246        1.0702  -14.9019  -51.8393 H         1 UNK         0.0800 
    247 H247       -0.5670  -14.7903  -52.4333 H         1 UNK         0.0800 
@<TRIPOS>BOND
     1    1    2 1    
     2    1  127 1    
     3    1  128 1    
     4    1  129 1    
     5    2    3 2    
     6    2    4 am   BACKBONE|DICT|INTERRES
     7    4    5 1    
     8    4  130 1    
     9    5    6 1    
    10    5   65 1    
    11    5  131 1    
    12    6    7 1    
    13    6  132 1    
    14    6  133 1    
    15    7    8 1    
    16    8    9 1    
    17    8  134 1    
    18    8  135 1    
    19    9   10 ar   
    20    9   14 ar   
    21   10   11 ar   
    22   10  136 1    
    23   11   12 ar   
    24   11  126 1    
    25   12   13 ar   
    26   12  137 1    
    27   13   14 ar   
    28   13   15 1    
    29   14  138 1    
    30   15   16 1    
    31   15  139 1    
    32   15  140 1    
    33   16   17 1    
    34   17   18 1    
    35   17  141 1    
    36   17  142 1    
    37   18   19 1    
    38   18   67 1    
    39   18  143 1    
    40   19   20 am   BACKBONE|DICT|INTERRES
    41   19  144 1    
    42   20   21 2    
    43   20   22 1    
    44   22   23 1    
    45   22   24 1    
    46   22  145 1    
    47   23  146 1    
    48   23  147 1    
    49   23  148 1    
    50   24   25 am   BACKBONE|DICT|INTERRES
    51   24  149 1    
    52   25   26 2    
    53   25   27 1    
    54   27   28 1    
    55   27   29 1    
    56   27  150 1    
    57   28  151 1    
    58   28  152 1    
    59   28  153 1    
    60   29   30 am   BACKBONE|DICT|INTERRES
    61   29  154 1    
    62   30   31 2    
    63   30   32 1    
    64   32   33 1    
    65   32   34 1    
    66   32  155 1    
    67   33  156 1    
    68   33  157 1    
    69   33  158 1    
    70   34   35 am   BACKBONE|DICT|INTERRES
    71   34  159 1    
    72   35   36 2    
    73   35   37 1    
    74   37   38 1    
    75   37   39 1    
    76   37  160 1    
    77   38  161 1    
    78   38  162 1    
    79   38  163 1    
    80   39   40 am   BACKBONE|DICT|INTERRES
    81   39  164 1    
    82   40   41 2    
    83   40   42 1    
    84   42   43 1    
    85   42   44 1    
    86   42  165 1    
    87   43  166 1    
    88   43  167 1    
    89   43  168 1    
    90   44   45 am   BACKBONE|DICT|INTERRES
    91   44  169 1    
    92   45   46 2    
    93   45   47 1    
    94   47   48 1    
    95   47   49 1    
    96   47  170 1    
    97   48  171 1    
    98   48  172 1    
    99   48  173 1    
   100   49   50 am   BACKBONE|DICT|INTERRES
   101   49  174 1    
   102   50   51 2    
   103   50   52 1    
   104   52   53 1    
   105   52   54 1    
   106   52  175 1    
   107   53  176 1    
   108   53  177 1    
   109   53  178 1    
   110   54   55 am   BACKBONE|DICT|INTERRES
   111   54  179 1    
   112   55   56 2    
   113   55   57 1    
   114   57   58 1    
   115   57   59 1    
   116   57  180 1    
   117   58  181 1    
   118   58  182 1    
   119   58  183 1    
   120   59   60 am   BACKBONE|DICT|INTERRES
   121   59  184 1    
   122   60   61 2    
   123   60   62 1    
   124   62   63 1    
   125   62   64 1    
   126   62  185 1    
   127   63  186 1    
   128   63  187 1    
   129   63  188 1    
   130   64   65 am   BACKBONE|DICT|INTERRES
   131   64  189 1    
   132   65   66 2    
   133   67   68 2    
   134   67   69 am   BACKBONE|DICT|INTERRES
   135   69   70 1    
   136   69  190 1    
   137   70   71 1    
   138   70   72 1    
   139   70  191 1    
   140   71  192 1    
   141   71  193 1    
   142   71  194 1    
   143   72   73 2    
   144   72   74 am   BACKBONE|DICT|INTERRES
   145   74   75 1    
   146   74  195 1    
   147   75   76 1    
   148   75   77 1    
   149   75  196 1    
   150   76  197 1    
   151   76  198 1    
   152   76  199 1    
   153   77   78 2    
   154   77   79 am   BACKBONE|DICT|INTERRES
   155   79   80 1    
   156   79  200 1    
   157   80   81 1    
   158   80   82 1    
   159   80  201 1    
   160   81  202 1    
   161   81  203 1    
   162   81  204 1    
   163   82   83 2    
   164   82   84 am   BACKBONE|DICT|INTERRES
   165   84   85 1    
   166   84  205 1    
   167   85   86 1    
   168   85   87 1    
   169   85  206 1    
   170   86  207 1    
   171   86  208 1    
   172   86  209 1    
   173   87   88 2    
   174   87   89 am   BACKBONE|DICT|INTERRES
   175   89   90 1    
   176   89  210 1    
   177   90   91 1    
   178   90   92 1    
   179   90  211 1    
   180   91  212 1    
   181   91  213 1    
   182   91  214 1    
   183   92   93 2    
   184   92   94 am   BACKBONE|DICT|INTERRES
   185   94   95 1    
   186   94  215 1    
   187   95   96 1    
   188   95   97 1    
   189   95  216 1    
   190   96  217 1    
   191   96  218 1    
   192   96  219 1    
   193   97   98 2    
   194   97   99 am   BACKBONE|DICT|INTERRES
   195   99  100 1    
   196   99  220 1    
   197  100  101 1    
   198  100  102 1    
   199  100  221 1    
   200  101  222 1    
   201  101  223 1    
   202  101  224 1    
   203  102  103 2    
   204  102  104 am   BACKBONE|DICT|INTERRES
   205  104  105 1    
   206  104  225 1    
   207  105  106 1    
   208  105  107 1    
   209  105  226 1    
   210  106  227 1    
   211  106  228 1    
   212  106  229 1    
   213  107  108 2    
   214  107  109 am   BACKBONE|DICT|INTERRES
   215  109  110 1    
   216  109  230 1    
   217  110  111 1    
   218  110  112 1    
   219  110  231 1    
   220  111  232 1    
   221  111  233 1    
   222  111  234 1    
   223  112  113 2    
   224  112  114 am   BACKBONE|DICT|INTERRES
   225  114  115 1    
   226  114  235 1    
   227  115  116 1    
   228  115  117 1    
   229  115  236 1    
   230  116  237 1    
   231  116  238 1    
   232  116  239 1    
   233  117  118 2    
   234  117  119 am   BACKBONE|DICT|INTERRES
   235  119  120 1    
   236  119  240 1    
   237  120  121 1    
   238  120  124 1    
   239  120  241 1    
   240  121  122 am   BACKBONE|DICT|INTERRES
   241  121  123 2    
   242  122  242 1    
   243  122  243 1    
   244  124  125 1    
   245  124  244 1    
   246  124  245 1    
   247  125  126 1    
   248  126  246 1    
   249  126  247 1    
@<TRIPOS>SUBSTRUCTURE
     1 UNK         1 GROUP             0       ****    0 ROOT    
