@<TRIPOS>MOLECULE
3R540
247   249    1
SMALL
USER_CHARGES


@<TRIPOS>ATOM
      1 CA         -2.2939  -13.0585  -45.7715 C.3       0 UNK        -0.1800 
      2 C          -1.6981  -12.8639  -47.1588 C.2       0 UNK         0.5000 
      3 O          -1.7759  -11.7681  -47.7164 O.2       0 UNK        -0.5000 
      4 N          -1.1055  -13.9246  -47.7217 N.am      1 UNK        -0.5000 
      5 CA         -0.4584  -13.9553  -49.0397 C.3       1 UNK         0.1400 
      6 C6         -0.3337  -15.4008  -49.5909 C.3       23 UNK        -0.0398 
      7 S7         -1.9286  -16.2844  -49.7081 S.3       23 UNK        -0.2404 
      8 C8         -1.6563  -17.6997  -48.5927 C.3       23 UNK        -0.0205 
      9 C9         -0.7224  -18.7357  -49.2000 C.ar      23 UNK        -0.0193 
     10 C10        -1.2242  -19.6920  -50.0834 C.ar      23 UNK        -0.1150 
     11 C11        -0.3858  -20.6610  -50.6410 C.ar      23 UNK        -0.0193 
     12 C12         0.9736  -20.6593  -50.3149 C.ar      23 UNK        -0.1150 
     13 C13         1.4931  -19.6971  -49.4444 C.ar      23 UNK        -0.0193 
     14 C14         0.6373  -18.7473  -48.8791 C.ar      23 UNK        -0.1150 
     15 C15         2.9827  -19.6634  -49.1352 C.3       23 UNK        -0.0205 
     16 S16         3.5121  -21.0343  -48.0627 S.3       23 UNK        -0.2404 
     17 C17         2.5507  -20.7164  -46.5444 C.3       23 UNK        -0.0398 
     18 CA          1.7949  -21.9648  -46.0365 C.3       11 UNK         0.1400 
     19 N           1.3670  -21.7870  -44.6470 N.am      11 UNK        -0.5000 
     20 C           0.9328  -22.7671  -43.8443 C.2       10 UNK         0.5000 
     21 O           0.8474  -23.9446  -44.1908 O.2       10 UNK        -0.5000 
     22 CA          0.4897  -22.3549  -42.4289 C.3       10 UNK         0.1400 
     23 CB          1.7030  -22.1254  -41.5150 C.3       10 UNK        -0.1800 
     24 N          -0.3514  -21.1582  -42.4440 N.am      10 UNK        -0.5000 
     25 C          -1.5896  -21.1199  -42.9568 C.2       9 UNK         0.5000 
     26 O          -2.1777  -22.1082  -43.3962 O.2       9 UNK        -0.5000 
     27 CA         -2.2822  -19.7462  -43.0111 C.3       9 UNK         0.1400 
     28 CB         -2.9858  -19.4467  -41.6792 C.3       9 UNK        -0.1800 
     29 N          -1.3696  -18.6505  -43.3459 N.am      9 UNK        -0.5000 
     30 C          -0.7216  -18.5329  -44.5142 C.2       8 UNK         0.5000 
     31 O          -0.8343  -19.3304  -45.4424 O.2       8 UNK        -0.5000 
     32 CA          0.2602  -17.3578  -44.6562 C.3       8 UNK         0.1400 
     33 CB         -0.4861  -16.0359  -44.8867 C.3       8 UNK        -0.1800 
     34 N           1.1367  -17.2214  -43.4980 N.am      8 UNK        -0.5000 
     35 C           1.9988  -18.1493  -43.0641 C.2       7 UNK         0.5000 
     36 O           2.1912  -19.2262  -43.6272 O.2       7 UNK        -0.5000 
     37 CA          2.7272  -17.8372  -41.7476 C.3       7 UNK         0.1400 
     38 CB          3.9148  -16.8919  -41.9858 C.3       7 UNK        -0.1800 
     39 N           1.8240  -17.2523  -40.7565 N.am      7 UNK        -0.5000 
     40 C           0.8380  -17.9202  -40.1421 C.2       6 UNK         0.5000 
     41 O           0.6009  -19.1143  -40.3268 O.2       6 UNK        -0.5000 
     42 CA         -0.0501  -17.1051  -39.1836 C.3       6 UNK         0.1400 
     43 CB          0.6324  -16.9412  -37.8173 C.3       6 UNK        -0.1800 
     44 N          -0.3976  -15.7854  -39.7154 N.am      6 UNK        -0.5000 
     45 C          -1.1953  -15.5909  -40.7742 C.2       5 UNK         0.5000 
     46 O          -1.7212  -16.5035  -41.4095 O.2       5 UNK        -0.5000 
     47 CA         -1.4122  -14.1354  -41.2298 C.3       5 UNK         0.1400 
     48 CB         -2.5070  -13.4646  -40.3868 C.3       5 UNK        -0.1800 
     49 N          -0.2098  -13.2940  -41.2238 N.am      5 UNK        -0.5000 
     50 C           0.9460  -13.5891  -41.8330 C.2       4 UNK         0.5000 
     51 O           1.2002  -14.6874  -42.3297 O.2       4 UNK        -0.5000 
     52 CA          2.0088  -12.4757  -41.8867 C.3       4 UNK         0.1400 
     53 CB          2.9142  -12.5482  -40.6478 C.3       4 UNK        -0.1800 
     54 N           2.8409  -12.5815  -43.0886 N.am      4 UNK        -0.5000 
     55 C           2.3824  -12.5045  -44.3457 C.2       3 UNK         0.5000 
     56 O           1.2171  -12.2151  -44.6330 O.2       3 UNK        -0.5000 
     57 CA          3.3954  -12.8559  -45.4543 C.3       3 UNK         0.1400 
     58 CB          3.6527  -14.3730  -45.4792 C.3       3 UNK        -0.1800 
     59 N           2.9243  -12.4535  -46.7774 N.am      3 UNK        -0.5000 
     60 C           2.7774  -11.1994  -47.2177 C.2       2 UNK         0.5000 
     61 O           3.1775  -10.2110  -46.6004 O.2       2 UNK        -0.5000 
     62 CA          2.0341  -11.0055  -48.5573 C.3       2 UNK         0.1400 
     63 CB          3.0113  -11.0180  -49.7484 C.3       2 UNK        -0.1800 
     64 N           0.9068  -11.9296  -48.7665 N.am      2 UNK        -0.5000 
     65 C           0.9183  -13.2535  -48.9763 C.2       1 UNK         0.5000 
     66 O           1.9527  -13.9194  -49.0451 O.2       1 UNK        -0.5000 
     67 C           0.6309  -22.3919  -46.9616 C.2       11 UNK         0.5000 
     68 O           0.8336  -23.2271  -47.8436 O.2       11 UNK        -0.5000 
     69 N          -0.5863  -21.8953  -46.6935 N.am      12 UNK        -0.5000 
     70 CA         -1.8270  -22.2518  -47.3908 C.3       12 UNK         0.1400 
     71 CB         -2.9632  -21.3299  -46.9228 C.3       12 UNK        -0.1800 
     72 C          -2.2403  -23.7359  -47.2821 C.2       12 UNK         0.5000 
     73 O          -3.1472  -24.1555  -47.9978 O.2       12 UNK        -0.5000 
     74 N          -1.5584  -24.5303  -46.4445 N.am      13 UNK        -0.5000 
     75 CA         -1.6623  -25.9907  -46.4338 C.3       13 UNK         0.1400 
     76 CB         -0.9439  -26.5385  -45.1922 C.3       13 UNK        -0.1800 
     77 C          -1.1057  -26.6520  -47.7155 C.2       13 UNK         0.5000 
     78 O          -1.4644  -27.7955  -47.9989 O.2       13 UNK        -0.5000 
     79 N          -0.2521  -25.9383  -48.4693 N.am      14 UNK        -0.5000 
     80 CA          0.3333  -26.3943  -49.7335 C.3       14 UNK         0.1400 
     81 CB          1.4503  -25.4258  -50.1524 C.3       14 UNK        -0.1800 
     82 C          -0.6930  -26.5467  -50.8740 C.2       14 UNK         0.5000 
     83 O          -0.4999  -27.3929  -51.7481 O.2       14 UNK        -0.5000 
     84 N          -1.7621  -25.7431  -50.8434 N.am      15 UNK        -0.5000 
     85 CA         -2.8757  -25.7832  -51.7822 C.3       15 UNK         0.1400 
     86 CB         -2.5190  -25.0477  -53.0873 C.3       15 UNK        -0.1800 
     87 C          -4.0714  -25.1434  -51.0736 C.2       15 UNK         0.5000 
     88 O          -4.0648  -23.9301  -50.8653 O.2       15 UNK        -0.5000 
     89 N          -5.0541  -25.9693  -50.6897 N.am      16 UNK        -0.5000 
     90 CA         -6.1752  -25.6259  -49.8037 C.3       16 UNK         0.1400 
     91 CB         -6.9998  -26.8954  -49.5396 C.3       16 UNK        -0.1800 
     92 C          -7.0914  -24.4800  -50.2825 C.2       16 UNK         0.5000 
     93 O          -7.7929  -23.8881  -49.4613 O.2       16 UNK        -0.5000 
     94 N          -7.0589  -24.1688  -51.5853 N.am      17 UNK        -0.5000 
     95 CA         -7.7196  -23.0059  -52.1849 C.3       17 UNK         0.1400 
     96 CB         -7.7990  -23.2177  -53.7034 C.3       17 UNK        -0.1800 
     97 C          -7.0249  -21.6653  -51.8499 C.2       17 UNK         0.5000 
     98 O          -7.5959  -20.6079  -52.1209 O.2       17 UNK        -0.5000 
     99 N          -5.8170  -21.7277  -51.2697 N.am      18 UNK        -0.5000 
    100 CA        -4.9783  -20.6213  -50.8190 C.3       18 UNK         0.1400 
    101 CB        -5.6237  -19.8965  -49.6168 C.3       18 UNK        -0.1800 
    102 C         -4.5855  -19.7018  -51.9906 C.2       18 UNK         0.5000 
    103 O         -4.0198  -20.1882  -52.9722 O.2       18 UNK        -0.5000 
    104 N         -4.8898  -18.4022  -51.8833 N.am      19 UNK        -0.5000 
    105 CA        -4.5753  -17.3684  -52.8721 C.3       19 UNK         0.1400 
    106 CB        -5.0138  -16.0030  -52.3226 C.3       19 UNK        -0.1800 
    107 C         -5.1912  -17.6099  -54.2647 C.2       19 UNK         0.5000 
    108 O         -4.6376  -17.1323  -55.2543 O.2       19 UNK        -0.5000 
    109 N         -6.2927  -18.3711  -54.3362 N.am      20 UNK        -0.5000 
    110 CA        -6.9188  -18.7803  -55.5951 C.3       20 UNK         0.1400 
    111 CB        -8.3280  -19.3190  -55.3115 C.3       20 UNK        -0.1800 
    112 C         -6.0823  -19.8072  -56.3876 C.2       20 UNK         0.5000 
    113 O         -6.2487  -19.8965  -57.6048 O.2       20 UNK        -0.5000 
    114 N         -5.1973  -20.5453  -55.7021 N.am      21 UNK        -0.5000 
    115 CA        -4.2365  -21.4627  -56.3118 C.3       21 UNK         0.1400 
    116 CB        -4.1658  -22.7621  -55.4928 C.3       21 UNK        -0.1800 
    117 C         -2.8481  -20.8136  -56.4139 C.2       21 UNK         0.5000 
    118 O         -2.2443  -20.8385  -57.4872 O.2       21 UNK        -0.5000 
    119 N         -2.3632  -20.2612  -55.2956 N.am      22 UNK        -0.5000 
    120 CA        -1.0035  -19.7145  -55.1619 C.3       22 UNK         0.1400 
    121 C         -0.8179  -18.2615  -55.6864 C.2       22 UNK         0.5000 
    122 N         -1.8637  -17.5163  -56.0161 N.am      22 UNK        -0.7600 
    123 O          0.3130  -17.8008  -55.8164 O.2       22 UNK        -0.5000 
    124 C124       -0.4794  -19.8597  -53.7124 C.3       23 UNK        -0.0398 
    125 S125       -0.2053  -21.6083  -53.2547 S.3       23 UNK        -0.2404 
    126 C126       -0.9517  -21.7032  -51.5963 C.3       23 UNK        -0.0205 
    127 H127       -1.5503  -12.8304  -45.0076 H         1 UNK         0.0600 
    128 H128       -2.6378  -14.0823  -45.6261 H         1 UNK         0.0600 
    129 H129       -3.1473  -12.3958  -45.6271 H         1 UNK         0.0600 
    130 H130       -1.0751  -14.7926  -47.2109 H         1 UNK         0.3000 
    131 H131       -1.0778  -13.3908  -49.7401 H         1 UNK         0.0600 
    132 H132        0.3531  -15.9762  -48.9718 H         1 UNK         0.0800 
    133 H133        0.1056  -15.3862  -50.5899 H         1 UNK         0.0800 
    134 H134       -1.2662  -17.3540  -47.6369 H         1 UNK         0.0800 
    135 H135       -2.6197  -18.1619  -48.3744 H         1 UNK         0.0800 
    136 H136       -2.2713  -19.6729  -50.3345 H         1 UNK         0.1150 
    137 H137        1.6297  -21.4021  -50.7467 H         1 UNK         0.1150 
    138 H138        1.0338  -18.0129  -48.1933 H         1 UNK         0.1150 
    139 H139        3.5411  -19.7144  -50.0708 H         1 UNK         0.0800 
    140 H140        3.2603  -18.7172  -48.6678 H         1 UNK         0.0800 
    141 H141        1.8655  -19.8787  -46.6725 H         1 UNK         0.0800 
    142 H142        3.2699  -20.3929  -45.7910 H         1 UNK         0.0800 
    143 H143        2.5060  -22.7940  -46.0311 H         1 UNK         0.0600 
    144 H144        1.4449  -20.8456  -44.2701 H         1 UNK         0.3000 
    145 H145       -0.0959  -23.1764  -42.0107 H         1 UNK         0.0600 
    146 H146        2.3357  -23.0129  -41.4764 H         1 UNK         0.0600 
    147 H147        2.3206  -21.2963  -41.8604 H         1 UNK         0.0600 
    148 H148        1.3898  -21.9042  -40.4945 H         1 UNK         0.0600 
    149 H149        0.0467  -20.3117  -42.0543 H         1 UNK         0.3000 
    150 H150       -3.0431  -19.7931  -43.7928 H         1 UNK         0.0600 
    151 H151       -3.6676  -20.2528  -41.4054 H         1 UNK         0.0600 
    152 H152       -3.5749  -18.5318  -41.7427 H         1 UNK         0.0600 
    153 H153       -2.2700  -19.3287  -40.8646 H         1 UNK         0.0600 
    154 H154       -1.2569  -17.9268  -42.6414 H         1 UNK         0.3000 
    155 H155        0.8876  -17.5531  -45.5283 H         1 UNK         0.0600 
    156 H156       -1.0598  -15.7421  -44.0083 H         1 UNK         0.0600 
    157 H157        0.2067  -15.2254  -45.1152 H         1 UNK         0.0600 
    158 H158       -1.1871  -16.1187  -45.7153 H         1 UNK         0.0600 
    159 H159        1.0764  -16.3432  -42.9844 H         1 UNK         0.3000 
    160 H160        3.1141  -18.7771  -41.3480 H         1 UNK         0.0600 
    161 H161        3.5922  -15.9204  -42.3605 H         1 UNK         0.0600 
    162 H162        4.6064  -17.3120  -42.7171 H         1 UNK         0.0600 
    163 H163        4.4757  -16.7257  -41.0660 H         1 UNK         0.0600 
    164 H164        1.8959  -16.2556  -40.6119 H         1 UNK         0.3000 
    165 H165       -0.9760  -17.6651  -39.0349 H         1 UNK         0.0600 
    166 H166       -0.0244  -16.4393  -37.1066 H         1 UNK         0.0600 
    167 H167        0.8894  -17.9119  -37.3911 H         1 UNK         0.0600 
    168 H168        1.5530  -16.3610  -37.8919 H         1 UNK         0.0600 
    169 H169        0.0064  -14.9811  -39.2587 H         1 UNK         0.3000 
    170 H170       -1.7645  -14.1734  -42.2624 H         1 UNK         0.0600 
    171 H171       -3.4209  -14.0604  -40.3867 H         1 UNK         0.0600 
    172 H172       -2.1963  -13.3395  -39.3488 H         1 UNK         0.0600 
    173 H173       -2.7632  -12.4815  -40.7820 H         1 UNK         0.0600 
    174 H174       -0.3181  -12.3756  -40.8183 H         1 UNK         0.3000 
    175 H175        1.5053  -11.5071  -41.9060 H         1 UNK         0.0600 
    176 H176        3.4470  -13.4988  -40.5941 H         1 UNK         0.0600 
    177 H177        3.6546  -11.7480  -40.6524 H         1 UNK         0.0600 
    178 H178        2.3332  -12.4454  -39.7304 H         1 UNK         0.0600 
    179 H179        3.8014  -12.8520  -42.9391 H         1 UNK         0.3000 
    180 H180        4.3329  -12.3359  -45.2477 H         1 UNK         0.0600 
    181 H181        2.7340  -14.9335  -45.6586 H         1 UNK         0.0600 
    182 H182        4.0668  -14.7207  -44.5324 H         1 UNK         0.0600 
    183 H183        4.3653  -14.6404  -46.2597 H         1 UNK         0.0600 
    184 H184        2.5821  -13.1919  -47.3832 H         1 UNK         0.3000 
    185 H185        1.5859  -10.0115  -48.5173 H         1 UNK         0.0600 
    186 H186        3.7655  -10.2380  -49.6371 H         1 UNK         0.0600 
    187 H187        3.5400  -11.9674  -49.8356 H         1 UNK         0.0600 
    188 H188        2.4906  -10.8348  -50.6882 H         1 UNK         0.0600 
    189 H189       -0.0100  -11.5199  -48.6108 H         1 UNK         0.3000 
    190 H190       -0.6653  -21.1616  -45.9948 H         1 UNK         0.3000 
    191 H191       -1.6626  -22.0626  -48.4523 H         1 UNK         0.0600 
    192 H192       -3.1530  -21.4381  -45.8553 H         1 UNK         0.0600 
    193 H193       -3.8928  -21.5542  -47.4471 H         1 UNK         0.0600 
    194 H194       -2.7282  -20.2845  -47.1191 H         1 UNK         0.0600 
    195 H195       -0.8305  -24.1232  -45.8717 H         1 UNK         0.3000 
    196 H196       -2.7194  -26.2541  -46.3595 H         1 UNK         0.0600 
    197 H197       -1.0782  -27.6176  -45.1080 H         1 UNK         0.0600 
    198 H198       -1.3331  -26.0894  -44.2781 H         1 UNK         0.0600 
    199 H199        0.1286  -26.3446  -45.2320 H         1 UNK         0.0600 
    200 H200        0.0183  -25.0081  -48.1621 H         1 UNK         0.3000 
    201 H201        0.7810  -27.3749  -49.5598 H         1 UNK         0.0600 
    202 H202        2.2163  -25.3477  -49.3806 H         1 UNK         0.0600 
    203 H203        1.0635  -24.4234  -50.3416 H         1 UNK         0.0600 
    204 H204        1.9411  -25.7654  -51.0652 H         1 UNK         0.0600 
    205 H205       -1.8758  -25.0998  -50.0701 H         1 UNK         0.3000 
    206 H206       -3.1135  -26.8229  -52.0173 H         1 UNK         0.0600 
    207 H207       -1.6634  -25.5063  -53.5826 H         1 UNK         0.0600 
    208 H208       -3.3540  -25.0797  -53.7874 H         1 UNK         0.0600 
    209 H209       -2.2782  -23.9993  -52.9108 H         1 UNK         0.0600 
    210 H210       -4.9701  -26.9488  -50.9205 H         1 UNK         0.3000 
    211 H211       -5.7412  -25.3010  -48.8556 H         1 UNK         0.0600 
    212 H212       -6.3896  -27.6760  -49.0848 H         1 UNK         0.0600 
    213 H213       -7.8251  -26.6930  -48.8555 H         1 UNK         0.0600 
    214 H214       -7.4271  -27.2945  -50.4604 H         1 UNK         0.0600 
    215 H215       -6.4550  -24.7089  -52.1869 H         1 UNK         0.3000 
    216 H216       -8.7384  -22.9510  -51.7960 H         1 UNK         0.0600 
    217 H217       -6.8105  -23.2029  -54.1586 H         1 UNK         0.0600 
    218 H218       -8.3929  -22.4373  -54.1775 H         1 UNK         0.0600 
    219 H219       -8.2695  -24.1703  -53.9476 H         1 UNK         0.0600 
    220 H220       -5.3924  -22.6432  -51.1420 H         1 UNK         0.3000 
    221 H221       -4.0572  -21.0827  -50.4635 H         1 UNK         0.0600 
    222 H222       -6.5573  -19.4004  -49.8844 H         1 UNK         0.0600 
    223 H223       -5.8478  -20.6022  -48.8167 H         1 UNK         0.0600 
    224 H224       -4.9506  -19.1467  -49.1992 H         1 UNK         0.0600 
    225 H225       -5.3739  -18.0921  -51.0536 H         1 UNK         0.3000 
    226 H226       -3.4903  -17.3550  -52.9960 H         1 UNK         0.0600 
    227 H227       -4.5178  -15.7783  -51.3784 H         1 UNK         0.0600 
    228 H228       -4.7606  -15.2020  -53.0184 H         1 UNK         0.0600 
    229 H229       -6.0908  -15.9646  -52.1545 H         1 UNK         0.0600 
    230 H230       -6.6840  -18.7523  -53.4845 H         1 UNK         0.3000 
    231 H231       -7.0225  -17.8941  -56.2250 H         1 UNK         0.0600 
    232 H232       -8.8314  -19.6058  -56.2357 H         1 UNK         0.0600 
    233 H233       -8.9476  -18.5664  -54.8237 H         1 UNK         0.0600 
    234 H234       -8.2991  -20.1962  -54.6681 H         1 UNK         0.0600 
    235 H235       -5.0878  -20.3786  -54.7083 H         1 UNK         0.3000 
    236 H236       -4.5493  -21.7294  -57.3235 H         1 UNK         0.0600 
    237 H237       -5.0782  -23.3444  -55.6100 H         1 UNK         0.0600 
    238 H238       -3.3421  -23.3937  -55.8286 H         1 UNK         0.0600 
    239 H239       -4.0187  -22.5689  -54.4293 H         1 UNK         0.0600 
    240 H240       -2.9229  -20.2826  -54.4468 H         1 UNK         0.3000 
    241 H241       -0.3459  -20.3162  -55.7928 H         1 UNK         0.0600 
    242 H242       -2.8158  -17.8314  -55.8807 H         1 UNK         0.3800 
    243 H243       -1.7056  -16.5840  -56.3631 H         1 UNK         0.3800 
    244 H244        0.4750  -19.3461  -53.5828 H         1 UNK         0.0800 
    245 H245       -1.1754  -19.3883  -53.0170 H         1 UNK         0.0800 
    246 H246       -0.7728  -22.6968  -51.1832 H         1 UNK         0.0800 
    247 H247       -2.0330  -21.6047  -51.6935 H         1 UNK         0.0800 
@<TRIPOS>BOND
     1    1    2 1    
     2    1  127 1    
     3    1  128 1    
     4    1  129 1    
     5    2    3 2    
     6    2    4 am   BACKBONE|DICT|INTERRES
     7    4    5 1    
     8    4  130 1    
     9    5    6 1    
    10    5   65 1    
    11    5  131 1    
    12    6    7 1    
    13    6  132 1    
    14    6  133 1    
    15    7    8 1    
    16    8    9 1    
    17    8  134 1    
    18    8  135 1    
    19    9   10 ar   
    20    9   14 ar   
    21   10   11 ar   
    22   10  136 1    
    23   11   12 ar   
    24   11  126 1    
    25   12   13 ar   
    26   12  137 1    
    27   13   14 ar   
    28   13   15 1    
    29   14  138 1    
    30   15   16 1    
    31   15  139 1    
    32   15  140 1    
    33   16   17 1    
    34   17   18 1    
    35   17  141 1    
    36   17  142 1    
    37   18   19 1    
    38   18   67 1    
    39   18  143 1    
    40   19   20 am   BACKBONE|DICT|INTERRES
    41   19  144 1    
    42   20   21 2    
    43   20   22 1    
    44   22   23 1    
    45   22   24 1    
    46   22  145 1    
    47   23  146 1    
    48   23  147 1    
    49   23  148 1    
    50   24   25 am   BACKBONE|DICT|INTERRES
    51   24  149 1    
    52   25   26 2    
    53   25   27 1    
    54   27   28 1    
    55   27   29 1    
    56   27  150 1    
    57   28  151 1    
    58   28  152 1    
    59   28  153 1    
    60   29   30 am   BACKBONE|DICT|INTERRES
    61   29  154 1    
    62   30   31 2    
    63   30   32 1    
    64   32   33 1    
    65   32   34 1    
    66   32  155 1    
    67   33  156 1    
    68   33  157 1    
    69   33  158 1    
    70   34   35 am   BACKBONE|DICT|INTERRES
    71   34  159 1    
    72   35   36 2    
    73   35   37 1    
    74   37   38 1    
    75   37   39 1    
    76   37  160 1    
    77   38  161 1    
    78   38  162 1    
    79   38  163 1    
    80   39   40 am   BACKBONE|DICT|INTERRES
    81   39  164 1    
    82   40   41 2    
    83   40   42 1    
    84   42   43 1    
    85   42   44 1    
    86   42  165 1    
    87   43  166 1    
    88   43  167 1    
    89   43  168 1    
    90   44   45 am   BACKBONE|DICT|INTERRES
    91   44  169 1    
    92   45   46 2    
    93   45   47 1    
    94   47   48 1    
    95   47   49 1    
    96   47  170 1    
    97   48  171 1    
    98   48  172 1    
    99   48  173 1    
   100   49   50 am   BACKBONE|DICT|INTERRES
   101   49  174 1    
   102   50   51 2    
   103   50   52 1    
   104   52   53 1    
   105   52   54 1    
   106   52  175 1    
   107   53  176 1    
   108   53  177 1    
   109   53  178 1    
   110   54   55 am   BACKBONE|DICT|INTERRES
   111   54  179 1    
   112   55   56 2    
   113   55   57 1    
   114   57   58 1    
   115   57   59 1    
   116   57  180 1    
   117   58  181 1    
   118   58  182 1    
   119   58  183 1    
   120   59   60 am   BACKBONE|DICT|INTERRES
   121   59  184 1    
   122   60   61 2    
   123   60   62 1    
   124   62   63 1    
   125   62   64 1    
   126   62  185 1    
   127   63  186 1    
   128   63  187 1    
   129   63  188 1    
   130   64   65 am   BACKBONE|DICT|INTERRES
   131   64  189 1    
   132   65   66 2    
   133   67   68 2    
   134   67   69 am   BACKBONE|DICT|INTERRES
   135   69   70 1    
   136   69  190 1    
   137   70   71 1    
   138   70   72 1    
   139   70  191 1    
   140   71  192 1    
   141   71  193 1    
   142   71  194 1    
   143   72   73 2    
   144   72   74 am   BACKBONE|DICT|INTERRES
   145   74   75 1    
   146   74  195 1    
   147   75   76 1    
   148   75   77 1    
   149   75  196 1    
   150   76  197 1    
   151   76  198 1    
   152   76  199 1    
   153   77   78 2    
   154   77   79 am   BACKBONE|DICT|INTERRES
   155   79   80 1    
   156   79  200 1    
   157   80   81 1    
   158   80   82 1    
   159   80  201 1    
   160   81  202 1    
   161   81  203 1    
   162   81  204 1    
   163   82   83 2    
   164   82   84 am   BACKBONE|DICT|INTERRES
   165   84   85 1    
   166   84  205 1    
   167   85   86 1    
   168   85   87 1    
   169   85  206 1    
   170   86  207 1    
   171   86  208 1    
   172   86  209 1    
   173   87   88 2    
   174   87   89 am   BACKBONE|DICT|INTERRES
   175   89   90 1    
   176   89  210 1    
   177   90   91 1    
   178   90   92 1    
   179   90  211 1    
   180   91  212 1    
   181   91  213 1    
   182   91  214 1    
   183   92   93 2    
   184   92   94 am   BACKBONE|DICT|INTERRES
   185   94   95 1    
   186   94  215 1    
   187   95   96 1    
   188   95   97 1    
   189   95  216 1    
   190   96  217 1    
   191   96  218 1    
   192   96  219 1    
   193   97   98 2    
   194   97   99 am   BACKBONE|DICT|INTERRES
   195   99  100 1    
   196   99  220 1    
   197  100  101 1    
   198  100  102 1    
   199  100  221 1    
   200  101  222 1    
   201  101  223 1    
   202  101  224 1    
   203  102  103 2    
   204  102  104 am   BACKBONE|DICT|INTERRES
   205  104  105 1    
   206  104  225 1    
   207  105  106 1    
   208  105  107 1    
   209  105  226 1    
   210  106  227 1    
   211  106  228 1    
   212  106  229 1    
   213  107  108 2    
   214  107  109 am   BACKBONE|DICT|INTERRES
   215  109  110 1    
   216  109  230 1    
   217  110  111 1    
   218  110  112 1    
   219  110  231 1    
   220  111  232 1    
   221  111  233 1    
   222  111  234 1    
   223  112  113 2    
   224  112  114 am   BACKBONE|DICT|INTERRES
   225  114  115 1    
   226  114  235 1    
   227  115  116 1    
   228  115  117 1    
   229  115  236 1    
   230  116  237 1    
   231  116  238 1    
   232  116  239 1    
   233  117  118 2    
   234  117  119 am   BACKBONE|DICT|INTERRES
   235  119  120 1    
   236  119  240 1    
   237  120  121 1    
   238  120  124 1    
   239  120  241 1    
   240  121  122 am   BACKBONE|DICT|INTERRES
   241  121  123 2    
   242  122  242 1    
   243  122  243 1    
   244  124  125 1    
   245  124  244 1    
   246  124  245 1    
   247  125  126 1    
   248  126  246 1    
   249  126  247 1    
@<TRIPOS>SUBSTRUCTURE
     1 UNK         1 GROUP             0       ****    0 ROOT    
