@<TRIPOS>MOLECULE
3R540
247   249    1
SMALL
USER_CHARGES


@<TRIPOS>ATOM
      1 CA         -5.3093  -15.0737  -47.6334 C.3       0 UNK        -0.1800 
      2 C          -4.4016  -13.8780  -47.3816 C.2       0 UNK         0.5000 
      3 O          -4.7133  -13.0359  -46.5395 O.2       0 UNK        -0.5000 
      4 N          -3.2685  -13.8050  -48.0895 N.am      1 UNK        -0.5000 
      5 CA         -2.2864  -12.7135  -48.0419 C.3       1 UNK         0.1400 
      6 C6         -1.5643  -12.4883  -49.4037 C.3       23 UNK        -0.0398 
      7 S7         -2.6840  -12.5889  -50.8552 S.3       23 UNK        -0.2404 
      8 C8         -1.9981  -13.9347  -51.8936 C.3       23 UNK        -0.0205 
      9 C9         -1.3663  -15.0739  -51.1032 C.ar      23 UNK        -0.0193 
     10 C10         0.0132  -15.2865  -51.1752 C.ar      23 UNK        -0.1150 
     11 C11         0.6233  -16.2929  -50.4211 C.ar      23 UNK        -0.0193 
     12 C12        -0.1572  -17.0705  -49.5636 C.ar      23 UNK        -0.1150 
     13 C13        -1.5380  -16.8697  -49.4841 C.ar      23 UNK        -0.0193 
     14 C14        -2.1429  -15.8896  -50.2767 C.ar      23 UNK        -0.1150 
     15 C15        -2.3672  -17.7196  -48.5398 C.3       23 UNK        -0.0205 
     16 S16        -2.3612  -17.0009  -46.8670 S.3       23 UNK        -0.2404 
     17 C17        -3.2529  -18.2116  -45.8282 C.3       23 UNK        -0.0398 
     18 CA         -3.1469  -19.7026  -46.2358 C.3       11 UNK         0.1400 
     19 N          -1.7586  -20.1821  -46.3187 N.am      11 UNK        -0.5000 
     20 C          -1.3830  -21.4116  -46.7054 C.2       10 UNK         0.5000 
     21 O          -2.1748  -22.3108  -46.9858 O.2       10 UNK        -0.5000 
     22 CA          0.1228  -21.7064  -46.7474 C.3       10 UNK         0.1400 
     23 CB          0.7744  -21.0853  -47.9926 C.3       10 UNK        -0.1800 
     24 N           0.7767  -21.2279  -45.5324 N.am      10 UNK        -0.5000 
     25 C           0.7340  -21.8774  -44.3601 C.2       9 UNK         0.5000 
     26 O           0.2357  -22.9944  -44.2172 O.2       9 UNK        -0.5000 
     27 CA          1.3227  -21.1575  -43.1313 C.3       9 UNK         0.1400 
     28 CB          2.8091  -21.5081  -42.9673 C.3       9 UNK        -0.1800 
     29 N           1.1741  -19.7026  -43.1760 N.am      9 UNK        -0.5000 
     30 C           0.0046  -19.0479  -43.1987 C.2       8 UNK         0.5000 
     31 O          -1.0942  -19.6013  -43.1438 O.2       8 UNK        -0.5000 
     32 CA          0.0760  -17.5188  -43.3708 C.3       8 UNK         0.1400 
     33 CB          0.3178  -16.8392  -42.0154 C.3       8 UNK        -0.1800 
     34 N           1.0966  -17.0770  -44.3260 N.am      8 UNK        -0.5000 
     35 C           1.1871  -17.4782  -45.6032 C.2       7 UNK         0.5000 
     36 O           0.4539  -18.3245  -46.1095 O.2       7 UNK        -0.5000 
     37 CA          2.3284  -16.8814  -46.4371 C.3       7 UNK         0.1400 
     38 CB          2.0336  -15.4252  -46.8280 C.3       7 UNK        -0.1800 
     39 N           3.5929  -16.9661  -45.7118 N.am      7 UNK        -0.5000 
     40 C           4.3017  -18.0969  -45.5801 C.2       6 UNK         0.5000 
     41 O           4.0156  -19.1549  -46.1410 O.2       6 UNK        -0.5000 
     42 CA          5.5211  -18.0455  -44.6405 C.3       6 UNK         0.1400 
     43 CB          6.7735  -17.5917  -45.4054 C.3       6 UNK        -0.1800 
     44 N           5.3184  -17.1686  -43.4859 N.am      6 UNK        -0.5000 
     45 C           4.4201  -17.3821  -42.5138 C.2       5 UNK         0.5000 
     46 O           3.6719  -18.3580  -42.4735 O.2       5 UNK        -0.5000 
     47 CA          4.3088  -16.2951  -41.4288 C.3       5 UNK         0.1400 
     48 CB          5.3113  -16.5614  -40.2962 C.3       5 UNK        -0.1800 
     49 N           4.5012  -14.9337  -41.9380 N.am      5 UNK        -0.5000 
     50 C           3.7365  -14.3479  -42.8680 C.2       4 UNK         0.5000 
     51 O           2.8034  -14.9114  -43.4490 O.2       4 UNK        -0.5000 
     52 CA          4.1040  -12.9075  -43.2419 C.3       4 UNK         0.1400 
     53 CB          5.1937  -12.8928  -44.3259 C.3       4 UNK        -0.1800 
     54 N           2.9099  -12.2515  -43.7566 N.am      4 UNK        -0.5000 
     55 C           2.4835  -11.0248  -43.4392 C.2       3 UNK         0.5000 
     56 O           3.1077  -10.2491  -42.7138 O.2       3 UNK        -0.5000 
     57 CA          1.1296  -10.5846  -44.0307 C.3       3 UNK         0.1400 
     58 CB          1.3437   -9.6036  -45.1939 C.3       3 UNK        -0.1800 
     59 N           0.3256  -11.7090  -44.5126 N.am      3 UNK        -0.5000 
     60 C          -0.3881  -12.5450  -43.7507 C.2       2 UNK         0.5000 
     61 O          -0.4776  -12.4282  -42.5276 O.2       2 UNK        -0.5000 
     62 CA         -1.1175  -13.6971  -44.4818 C.3       2 UNK         0.1400 
     63 CB         -2.1295  -14.4261  -43.5788 C.3       2 UNK        -0.1800 
     64 N          -1.8219  -13.2846  -45.6984 N.am      2 UNK        -0.5000 
     65 C          -1.2919  -12.9331  -46.8772 C.2       1 UNK         0.5000 
     66 O          -0.0799  -12.8034  -47.0572 O.2       1 UNK        -0.5000 
     67 C          -4.0223  -20.5633  -45.3028 C.2       11 UNK         0.5000 
     68 O          -5.1848  -20.8077  -45.6260 O.2       11 UNK        -0.5000 
     69 N          -3.4327  -21.0663  -44.2090 N.am      12 UNK        -0.5000 
     70 CA         -4.0467  -21.9990  -43.2595 C.3       12 UNK         0.1400 
     71 CB         -3.0520  -22.2637  -42.1189 C.3       12 UNK        -0.1800 
     72 C          -4.5164  -23.3335  -43.8811 C.2       12 UNK         0.5000 
     73 O          -5.4231  -23.9624  -43.3343 O.2       12 UNK        -0.5000 
     74 N          -3.9105  -23.7316  -45.0073 N.am      13 UNK        -0.5000 
     75 CA         -4.2543  -24.9217  -45.7872 C.3       13 UNK         0.1400 
     76 CB         -2.9832  -25.7765  -45.9355 C.3       13 UNK        -0.1800 
     77 C          -4.8264  -24.5558  -47.1724 C.2       13 UNK         0.5000 
     78 O          -4.9724  -25.4441  -48.0138 O.2       13 UNK        -0.5000 
     79 N          -5.0815  -23.2594  -47.4195 N.am      14 UNK        -0.5000 
     80 CA         -5.4553  -22.6536  -48.7062 C.3       14 UNK         0.1400 
     81 CB         -6.9039  -23.0268  -49.0761 C.3       14 UNK        -0.1800 
     82 C          -4.4495  -22.9657  -49.8393 C.2       14 UNK         0.5000 
     83 O          -4.8455  -23.1174  -50.9962 O.2       14 UNK        -0.5000 
     84 N          -3.1687  -23.0961  -49.4625 N.am      15 UNK        -0.5000 
     85 CA         -2.0149  -23.5232  -50.2600 C.3       15 UNK         0.1400 
     86 CB         -1.6674  -22.4629  -51.3180 C.3       15 UNK        -0.1800 
     87 C          -2.1367  -24.9440  -50.8580 C.2       15 UNK         0.5000 
     88 O          -1.3994  -25.2669  -51.7905 O.2       15 UNK        -0.5000 
     89 N          -3.0408  -25.7609  -50.2927 N.am      16 UNK        -0.5000 
     90 CA         -3.5050  -27.0777  -50.7395 C.3       16 UNK         0.1400 
     91 CB         -2.3487  -28.0849  -50.8890 C.3       16 UNK        -0.1800 
     92 C          -4.3577  -26.9962  -52.0213 C.2       16 UNK         0.5000 
     93 O          -4.0708  -26.2071  -52.9229 O.2       16 UNK        -0.5000 
     94 N          -5.4194  -27.8148  -52.0702 N.am      17 UNK        -0.5000 
     95 CA         -6.3718  -27.9620  -53.1840 C.3       17 UNK         0.1400 
     96 CB         -5.6833  -28.6482  -54.3826 C.3       17 UNK        -0.1800 
     97 C          -7.0921  -26.6541  -53.5931 C.2       17 UNK         0.5000 
     98 O          -7.5615  -26.5432  -54.7270 O.2       17 UNK        -0.5000 
     99 N          -7.1579  -25.6901  -52.6617 N.am      18 UNK        -0.5000 
    100 CA        -7.6775  -24.3287  -52.8213 C.3       18 UNK         0.1400 
    101 CB        -9.2044  -24.3450  -53.0436 C.3       18 UNK        -0.1800 
    102 C         -6.9169  -23.4951  -53.8778 C.2       18 UNK         0.5000 
    103 O         -7.5204  -22.6479  -54.5391 O.2       18 UNK        -0.5000 
    104 N         -5.6033  -23.7350  -54.0147 N.am      19 UNK        -0.5000 
    105 CA        -4.7102  -22.9886  -54.9061 C.3       19 UNK         0.1400 
    106 CB        -3.3598  -23.7150  -54.9932 C.3       19 UNK        -0.1800 
    107 C         -4.5059  -21.5212  -54.4780 C.2       19 UNK         0.5000 
    108 O         -4.2856  -20.6663  -55.3375 O.2       19 UNK        -0.5000 
    109 N         -4.5962  -21.2647  -53.1654 N.am      20 UNK        -0.5000 
    110 CA        -4.5048  -19.9886  -52.4510 C.3       20 UNK         0.1400 
    111 CB        -5.6485  -19.0396  -52.8542 C.3       20 UNK        -0.1800 
    112 C         -3.1380  -19.2836  -52.5317 C.2       20 UNK         0.5000 
    113 O         -2.5648  -18.9799  -51.4888 O.2       20 UNK        -0.5000 
    114 N         -2.6528  -19.0106  -53.7470 N.am      21 UNK        -0.5000 
    115 CA        -1.4684  -18.2038  -54.0395 C.3       21 UNK         0.1400 
    116 CB        -1.5458  -17.7379  -55.5037 C.3       21 UNK        -0.1800 
    117 C         -0.1479  -18.9366  -53.7273 C.2       21 UNK         0.5000 
    118 O          0.5167  -19.4330  -54.6396 O.2       21 UNK        -0.5000 
    119 N          0.1972  -18.9907  -52.4372 N.am      22 UNK        -0.5000 
    120 CA         1.4444  -19.4966  -51.8297 C.3       22 UNK         0.1400 
    121 C          1.7055  -21.0238  -51.9796 C.2       22 UNK         0.5000 
    122 N          1.3480  -21.6489  -53.0916 N.am      22 UNK        -0.7600 
    123 O          2.2477  -21.6468  -51.0722 O.2       22 UNK        -0.5000 
    124 C124        2.7202  -18.7202  -52.2651 C.3       23 UNK        -0.0398 
    125 S125        2.6468  -16.8944  -52.2221 S.3       23 UNK        -0.2404 
    126 C126        2.1263  -16.5130  -50.5176 C.3       23 UNK        -0.0205 
    127 H127       -6.3011  -14.7356  -47.9330 H         1 UNK         0.0600 
    128 H128       -5.4090  -15.6656  -46.7238 H         1 UNK         0.0600 
    129 H129       -4.9197  -15.7208  -48.4190 H         1 UNK         0.0600 
    130 H130       -3.0287  -14.5559  -48.7203 H         1 UNK         0.3000 
    131 H131       -2.8226  -11.7891  -47.8174 H         1 UNK         0.0600 
    132 H132       -1.1056  -11.4984  -49.4088 H         1 UNK         0.0800 
    133 H133       -0.7324  -13.1802  -49.5227 H         1 UNK         0.0800 
    134 H134       -2.7947  -14.3359  -52.5215 H         1 UNK         0.0800 
    135 H135       -1.2681  -13.4985  -52.5772 H         1 UNK         0.0800 
    136 H136        0.6208  -14.6633  -51.8163 H         1 UNK         0.1150 
    137 H137        0.3052  -17.8303  -48.9505 H         1 UNK         0.1150 
    138 H138       -3.2126  -15.7437  -50.2347 H         1 UNK         0.1150 
    139 H139       -3.3920  -17.8073  -48.9028 H         1 UNK         0.0800 
    140 H140       -1.9505  -18.7260  -48.5340 H         1 UNK         0.0800 
    141 H141       -4.3001  -17.9039  -45.8208 H         1 UNK         0.0800 
    142 H142       -2.8989  -18.0794  -44.8048 H         1 UNK         0.0800 
    143 H143       -3.5787  -19.8143  -47.2318 H         1 UNK         0.0600 
    144 H144       -1.0339  -19.4930  -46.1290 H         1 UNK         0.3000 
    145 H145        0.2513  -22.7890  -46.8148 H         1 UNK         0.0600 
    146 H146        1.8415  -21.3043  -48.0306 H         1 UNK         0.0600 
    147 H147        0.3286  -21.4867  -48.9033 H         1 UNK         0.0600 
    148 H148        0.6557  -20.0037  -48.0264 H         1 UNK         0.0600 
    149 H149        1.1451  -20.2851  -45.5593 H         1 UNK         0.3000 
    150 H150        0.7857  -21.5183  -42.2517 H         1 UNK         0.0600 
    151 H151        2.9571  -22.5883  -42.9340 H         1 UNK         0.0600 
    152 H152        3.2103  -21.0972  -42.0407 H         1 UNK         0.0600 
    153 H153        3.4061  -21.1175  -43.7927 H         1 UNK         0.0600 
    154 H154        2.0339  -19.1608  -43.1696 H         1 UNK         0.3000 
    155 H155       -0.8870  -17.1824  -43.7572 H         1 UNK         0.0600 
    156 H156       -0.5186  -17.0167  -41.3384 H         1 UNK         0.0600 
    157 H157        0.4321  -15.7603  -42.1205 H         1 UNK         0.0600 
    158 H158        1.2152  -17.2228  -41.5314 H         1 UNK         0.0600 
    159 H159        1.7555  -16.3792  -43.9907 H         1 UNK         0.3000 
    160 H160        2.4094  -17.4634  -47.3573 H         1 UNK         0.0600 
    161 H161        1.9487  -14.7734  -45.9590 H         1 UNK         0.0600 
    162 H162        1.0941  -15.3556  -47.3783 H         1 UNK         0.0600 
    163 H163        2.8159  -15.0236  -47.4717 H         1 UNK         0.0600 
    164 H164        3.8616  -16.1577  -45.1697 H         1 UNK         0.3000 
    165 H165        5.6941  -19.0576  -44.2682 H         1 UNK         0.0600 
    166 H166        7.6588  -17.6290  -44.7704 H         1 UNK         0.0600 
    167 H167        6.9627  -18.2388  -46.2630 H         1 UNK         0.0600 
    168 H168        6.6703  -16.5723  -45.7797 H         1 UNK         0.0600 
    169 H169        5.8899  -16.3383  -43.4369 H         1 UNK         0.3000 
    170 H170        3.3037  -16.3490  -41.0082 H         1 UNK         0.0600 
    171 H171        5.1769  -17.5622  -39.8834 H         1 UNK         0.0600 
    172 H172        6.3424  -16.4852  -40.6436 H         1 UNK         0.0600 
    173 H173        5.1789  -15.8540  -39.4774 H         1 UNK         0.0600 
    174 H174        5.2550  -14.4052  -41.5227 H         1 UNK         0.3000 
    175 H175        4.4669  -12.3972  -42.3472 H         1 UNK         0.0600 
    176 H176        4.8711  -13.4136  -45.2287 H         1 UNK         0.0600 
    177 H177        5.4544  -11.8719  -44.6055 H         1 UNK         0.0600 
    178 H178        6.1061  -13.3757  -43.9742 H         1 UNK         0.0600 
    179 H179        2.3012  -12.8494  -44.2983 H         1 UNK         0.3000 
    180 H180        0.5763  -10.0689  -43.2432 H         1 UNK         0.0600 
    181 H181        1.8847  -10.0702  -46.0182 H         1 UNK         0.0600 
    182 H182        1.9187   -8.7341  -44.8727 H         1 UNK         0.0600 
    183 H183        0.3924   -9.2382  -45.5812 H         1 UNK         0.0600 
    184 H184        0.3478  -11.8980  -45.5122 H         1 UNK         0.3000 
    185 H185       -0.3499  -14.4190  -44.7678 H         1 UNK         0.0600 
    186 H186       -1.6625  -14.7914  -42.6647 H         1 UNK         0.0600 
    187 H187       -2.9481  -13.7678  -43.2855 H         1 UNK         0.0600 
    188 H188       -2.5605  -15.2886  -44.0877 H         1 UNK         0.0600 
    189 H189       -2.8338  -13.3183  -45.6550 H         1 UNK         0.3000 
    190 H190       -2.4865  -20.7647  -43.9941 H         1 UNK         0.3000 
    191 H191       -4.9275  -21.5085  -42.8406 H         1 UNK         0.0600 
    192 H192       -2.1303  -22.7149  -42.4889 H         1 UNK         0.0600 
    193 H193       -2.7882  -21.3401  -41.6032 H         1 UNK         0.0600 
    194 H194       -3.4758  -22.9405  -41.3759 H         1 UNK         0.0600 
    195 H195       -3.1832  -23.1463  -45.4047 H         1 UNK         0.3000 
    196 H196       -5.0128  -25.5167  -45.2754 H         1 UNK         0.0600 
    197 H197       -2.5758  -26.0472  -44.9613 H         1 UNK         0.0600 
    198 H198       -2.2055  -25.2458  -46.4868 H         1 UNK         0.0600 
    199 H199       -3.1896  -26.7057  -46.4682 H         1 UNK         0.0600 
    200 H200       -4.9581  -22.6023  -46.6577 H         1 UNK         0.3000 
    201 H201       -5.4181  -21.5738  -48.5568 H         1 UNK         0.0600 
    202 H202       -7.2464  -22.4498  -49.9354 H         1 UNK         0.0600 
    203 H203       -7.5872  -22.8143  -48.2538 H         1 UNK         0.0600 
    204 H204       -6.9983  -24.0841  -49.3258 H         1 UNK         0.0600 
    205 H205       -2.9531  -22.9172  -48.4828 H         1 UNK         0.3000 
    206 H206       -1.1771  -23.5715  -49.5632 H         1 UNK         0.0600 
    207 H207       -1.5229  -21.4816  -50.8664 H         1 UNK         0.0600 
    208 H208       -2.4419  -22.3812  -52.0761 H         1 UNK         0.0600 
    209 H209       -0.7448  -22.7236  -51.8322 H         1 UNK         0.0600 
    210 H210       -3.5908  -25.3771  -49.5318 H         1 UNK         0.3000 
    211 H211       -4.1496  -27.4362  -49.9354 H         1 UNK         0.0600 
    212 H212       -1.7306  -28.1138  -49.9917 H         1 UNK         0.0600 
    213 H213       -2.7335  -29.0921  -51.0522 H         1 UNK         0.0600 
    214 H214       -1.7045  -27.8473  -51.7358 H         1 UNK         0.0600 
    215 H215       -5.5942  -28.4168  -51.2771 H         1 UNK         0.3000 
    216 H216       -7.1547  -28.6325  -52.8271 H         1 UNK         0.0600 
    217 H217       -6.4051  -28.9020  -55.1598 H         1 UNK         0.0600 
    218 H218       -4.9275  -28.0055  -54.8354 H         1 UNK         0.0600 
    219 H219       -5.1972  -29.5757  -54.0803 H         1 UNK         0.0600 
    220 H220       -6.7255  -25.8853  -51.7704 H         1 UNK         0.3000 
    221 H221       -7.4953  -23.8285  -51.8709 H         1 UNK         0.0600 
    222 H222       -9.4692  -24.7715  -54.0114 H         1 UNK         0.0600 
    223 H223       -9.7091  -24.9252  -52.2712 H         1 UNK         0.0600 
    224 H224       -9.6156  -23.3355  -53.0085 H         1 UNK         0.0600 
    225 H225       -5.1739  -24.4605  -53.4497 H         1 UNK         0.3000 
    226 H226       -5.1572  -22.9809  -55.9022 H         1 UNK         0.0600 
    227 H227       -3.4809  -24.7226  -55.3914 H         1 UNK         0.0600 
    228 H228       -2.6692  -23.1851  -55.6503 H         1 UNK         0.0600 
    229 H229       -2.8849  -23.8007  -54.0151 H         1 UNK         0.0600 
    230 H230       -4.7448  -22.0656  -52.5545 H         1 UNK         0.3000 
    231 H231       -4.6557  -20.2388  -51.3999 H         1 UNK         0.0600 
    232 H232       -5.6239  -18.1262  -52.2586 H         1 UNK         0.0600 
    233 H233       -6.6203  -19.5068  -52.6941 H         1 UNK         0.0600 
    234 H234       -5.5874  -18.7466  -53.9026 H         1 UNK         0.0600 
    235 H235       -3.1687  -19.3779  -54.5422 H         1 UNK         0.3000 
    236 H236       -1.5000  -17.3105  -53.4112 H         1 UNK         0.0600 
    237 H237       -2.4341  -17.1300  -55.6766 H         1 UNK         0.0600 
    238 H238       -0.6798  -17.1289  -55.7665 H         1 UNK         0.0600 
    239 H239       -1.5783  -18.5818  -56.1941 H         1 UNK         0.0600 
    240 H240       -0.4881  -18.6407  -51.7764 H         1 UNK         0.3000 
    241 H241        1.3141  -19.3316  -50.7602 H         1 UNK         0.0600 
    242 H242        1.5193  -22.6352  -53.1999 H         1 UNK         0.3800 
    243 H243        0.9576  -21.1025  -53.8535 H         1 UNK         0.3800 
    244 H244        2.9868  -18.9950  -53.2873 H         1 UNK         0.0800 
    245 H245        3.5673  -19.0248  -51.6479 H         1 UNK         0.0800 
    246 H246        2.4607  -17.3013  -49.8422 H         1 UNK         0.0800 
    247 H247        2.6289  -15.6004  -50.1950 H         1 UNK         0.0800 
@<TRIPOS>BOND
     1    1    2 1    
     2    1  127 1    
     3    1  128 1    
     4    1  129 1    
     5    2    3 2    
     6    2    4 am   BACKBONE|DICT|INTERRES
     7    4    5 1    
     8    4  130 1    
     9    5    6 1    
    10    5   65 1    
    11    5  131 1    
    12    6    7 1    
    13    6  132 1    
    14    6  133 1    
    15    7    8 1    
    16    8    9 1    
    17    8  134 1    
    18    8  135 1    
    19    9   10 ar   
    20    9   14 ar   
    21   10   11 ar   
    22   10  136 1    
    23   11   12 ar   
    24   11  126 1    
    25   12   13 ar   
    26   12  137 1    
    27   13   14 ar   
    28   13   15 1    
    29   14  138 1    
    30   15   16 1    
    31   15  139 1    
    32   15  140 1    
    33   16   17 1    
    34   17   18 1    
    35   17  141 1    
    36   17  142 1    
    37   18   19 1    
    38   18   67 1    
    39   18  143 1    
    40   19   20 am   BACKBONE|DICT|INTERRES
    41   19  144 1    
    42   20   21 2    
    43   20   22 1    
    44   22   23 1    
    45   22   24 1    
    46   22  145 1    
    47   23  146 1    
    48   23  147 1    
    49   23  148 1    
    50   24   25 am   BACKBONE|DICT|INTERRES
    51   24  149 1    
    52   25   26 2    
    53   25   27 1    
    54   27   28 1    
    55   27   29 1    
    56   27  150 1    
    57   28  151 1    
    58   28  152 1    
    59   28  153 1    
    60   29   30 am   BACKBONE|DICT|INTERRES
    61   29  154 1    
    62   30   31 2    
    63   30   32 1    
    64   32   33 1    
    65   32   34 1    
    66   32  155 1    
    67   33  156 1    
    68   33  157 1    
    69   33  158 1    
    70   34   35 am   BACKBONE|DICT|INTERRES
    71   34  159 1    
    72   35   36 2    
    73   35   37 1    
    74   37   38 1    
    75   37   39 1    
    76   37  160 1    
    77   38  161 1    
    78   38  162 1    
    79   38  163 1    
    80   39   40 am   BACKBONE|DICT|INTERRES
    81   39  164 1    
    82   40   41 2    
    83   40   42 1    
    84   42   43 1    
    85   42   44 1    
    86   42  165 1    
    87   43  166 1    
    88   43  167 1    
    89   43  168 1    
    90   44   45 am   BACKBONE|DICT|INTERRES
    91   44  169 1    
    92   45   46 2    
    93   45   47 1    
    94   47   48 1    
    95   47   49 1    
    96   47  170 1    
    97   48  171 1    
    98   48  172 1    
    99   48  173 1    
   100   49   50 am   BACKBONE|DICT|INTERRES
   101   49  174 1    
   102   50   51 2    
   103   50   52 1    
   104   52   53 1    
   105   52   54 1    
   106   52  175 1    
   107   53  176 1    
   108   53  177 1    
   109   53  178 1    
   110   54   55 am   BACKBONE|DICT|INTERRES
   111   54  179 1    
   112   55   56 2    
   113   55   57 1    
   114   57   58 1    
   115   57   59 1    
   116   57  180 1    
   117   58  181 1    
   118   58  182 1    
   119   58  183 1    
   120   59   60 am   BACKBONE|DICT|INTERRES
   121   59  184 1    
   122   60   61 2    
   123   60   62 1    
   124   62   63 1    
   125   62   64 1    
   126   62  185 1    
   127   63  186 1    
   128   63  187 1    
   129   63  188 1    
   130   64   65 am   BACKBONE|DICT|INTERRES
   131   64  189 1    
   132   65   66 2    
   133   67   68 2    
   134   67   69 am   BACKBONE|DICT|INTERRES
   135   69   70 1    
   136   69  190 1    
   137   70   71 1    
   138   70   72 1    
   139   70  191 1    
   140   71  192 1    
   141   71  193 1    
   142   71  194 1    
   143   72   73 2    
   144   72   74 am   BACKBONE|DICT|INTERRES
   145   74   75 1    
   146   74  195 1    
   147   75   76 1    
   148   75   77 1    
   149   75  196 1    
   150   76  197 1    
   151   76  198 1    
   152   76  199 1    
   153   77   78 2    
   154   77   79 am   BACKBONE|DICT|INTERRES
   155   79   80 1    
   156   79  200 1    
   157   80   81 1    
   158   80   82 1    
   159   80  201 1    
   160   81  202 1    
   161   81  203 1    
   162   81  204 1    
   163   82   83 2    
   164   82   84 am   BACKBONE|DICT|INTERRES
   165   84   85 1    
   166   84  205 1    
   167   85   86 1    
   168   85   87 1    
   169   85  206 1    
   170   86  207 1    
   171   86  208 1    
   172   86  209 1    
   173   87   88 2    
   174   87   89 am   BACKBONE|DICT|INTERRES
   175   89   90 1    
   176   89  210 1    
   177   90   91 1    
   178   90   92 1    
   179   90  211 1    
   180   91  212 1    
   181   91  213 1    
   182   91  214 1    
   183   92   93 2    
   184   92   94 am   BACKBONE|DICT|INTERRES
   185   94   95 1    
   186   94  215 1    
   187   95   96 1    
   188   95   97 1    
   189   95  216 1    
   190   96  217 1    
   191   96  218 1    
   192   96  219 1    
   193   97   98 2    
   194   97   99 am   BACKBONE|DICT|INTERRES
   195   99  100 1    
   196   99  220 1    
   197  100  101 1    
   198  100  102 1    
   199  100  221 1    
   200  101  222 1    
   201  101  223 1    
   202  101  224 1    
   203  102  103 2    
   204  102  104 am   BACKBONE|DICT|INTERRES
   205  104  105 1    
   206  104  225 1    
   207  105  106 1    
   208  105  107 1    
   209  105  226 1    
   210  106  227 1    
   211  106  228 1    
   212  106  229 1    
   213  107  108 2    
   214  107  109 am   BACKBONE|DICT|INTERRES
   215  109  110 1    
   216  109  230 1    
   217  110  111 1    
   218  110  112 1    
   219  110  231 1    
   220  111  232 1    
   221  111  233 1    
   222  111  234 1    
   223  112  113 2    
   224  112  114 am   BACKBONE|DICT|INTERRES
   225  114  115 1    
   226  114  235 1    
   227  115  116 1    
   228  115  117 1    
   229  115  236 1    
   230  116  237 1    
   231  116  238 1    
   232  116  239 1    
   233  117  118 2    
   234  117  119 am   BACKBONE|DICT|INTERRES
   235  119  120 1    
   236  119  240 1    
   237  120  121 1    
   238  120  124 1    
   239  120  241 1    
   240  121  122 am   BACKBONE|DICT|INTERRES
   241  121  123 2    
   242  122  242 1    
   243  122  243 1    
   244  124  125 1    
   245  124  244 1    
   246  124  245 1    
   247  125  126 1    
   248  126  246 1    
   249  126  247 1    
@<TRIPOS>SUBSTRUCTURE
     1 UNK         1 GROUP             0       ****    0 ROOT    
