@<TRIPOS>MOLECULE
3R540
247   249    1
SMALL
USER_CHARGES


@<TRIPOS>ATOM
      1 CA          6.2976  -11.3278  -49.5355 C.3       0 UNK        -0.1800 
      2 C           5.5972  -12.4701  -48.8131 C.2       0 UNK         0.5000 
      3 O           5.9159  -12.7518  -47.6575 O.2       0 UNK        -0.5000 
      4 N           4.6521  -13.1333  -49.4897 N.am      1 UNK        -0.5000 
      5 CA          3.8157  -14.1975  -48.9285 C.3       1 UNK         0.1400 
      6 C6          3.1581  -15.0533  -50.0427 C.3       23 UNK        -0.0398 
      7 S7          1.9637  -14.1471  -51.0944 S.3       23 UNK        -0.2404 
      8 C8          1.5486  -15.3968  -52.3598 C.3       23 UNK        -0.0205 
      9 C9          0.8220  -16.6521  -51.8687 C.ar      23 UNK        -0.0193 
     10 C10         0.7346  -17.7413  -52.7411 C.ar      23 UNK        -0.1150 
     11 C11         0.0970  -18.9235  -52.3557 C.ar      23 UNK        -0.0193 
     12 C12        -0.4443  -19.0238  -51.0720 C.ar      23 UNK        -0.1150 
     13 C13        -0.3761  -17.9431  -50.1895 C.ar      23 UNK        -0.0193 
     14 C14         0.2366  -16.7557  -50.5989 C.ar      23 UNK        -0.1150 
     15 C15        -0.9619  -18.0593  -48.7915 C.3       23 UNK        -0.0205 
     16 S16         0.3234  -18.1764  -47.5029 S.3       23 UNK        -0.2404 
     17 C17         1.2670  -19.6737  -47.9571 C.3       23 UNK        -0.0398 
     18 CA          0.8199  -21.0018  -47.2971 C.3       11 UNK         0.1400 
     19 N           0.9181  -21.0209  -45.8323 N.am      11 UNK        -0.5000 
     20 C           0.9287  -22.1613  -45.1228 C.2       10 UNK         0.5000 
     21 O           0.8568  -23.2786  -45.6351 O.2       10 UNK        -0.5000 
     22 CA          0.9952  -22.0558  -43.5902 C.3       10 UNK         0.1400 
     23 CB          2.4135  -21.6982  -43.1218 C.3       10 UNK        -0.1800 
     24 N           0.0238  -21.1159  -43.0339 N.am      10 UNK        -0.5000 
     25 C          -1.3065  -21.2482  -43.1405 C.2       9 UNK         0.5000 
     26 O          -1.8580  -22.1769  -43.7296 O.2       9 UNK        -0.5000 
     27 CA         -2.1697  -20.1392  -42.5148 C.3       9 UNK         0.1400 
     28 CB         -2.2908  -20.3296  -40.9956 C.3       9 UNK        -0.1800 
     29 N          -1.6541  -18.8035  -42.8050 N.am      9 UNK        -0.5000 
     30 C          -1.5647  -18.2807  -44.0362 C.2       8 UNK         0.5000 
     31 O          -1.9706  -18.8448  -45.0519 O.2       8 UNK        -0.5000 
     32 CA         -0.8560  -16.9210  -44.1511 C.3       8 UNK         0.1400 
     33 CB         -1.7837  -15.7797  -43.7076 C.3       8 UNK        -0.1800 
     34 N           0.3839  -16.8738  -43.3766 N.am      8 UNK        -0.5000 
     35 C           1.4475  -17.6702  -43.5603 C.2       7 UNK         0.5000 
     36 O           1.5306  -18.5239  -44.4416 O.2       7 UNK        -0.5000 
     37 CA          2.5988  -17.5133  -42.5541 C.3       7 UNK         0.1400 
     38 CB          3.4965  -16.3225  -42.9268 C.3       7 UNK        -0.1800 
     39 N           2.1065  -17.3600  -41.1846 N.am      7 UNK        -0.5000 
     40 C           1.5005  -18.3323  -40.4875 C.2       6 UNK         0.5000 
     41 O           1.3233  -19.4723  -40.9152 O.2       6 UNK        -0.5000 
     42 CA          0.9669  -17.9532  -39.0943 C.3       6 UNK         0.1400 
     43 CB          2.0930  -17.9960  -38.0506 C.3       6 UNK        -0.1800 
     44 N           0.3380  -16.6320  -39.0779 N.am      6 UNK        -0.5000 
     45 C          -0.7986  -16.3285  -39.7206 C.2       5 UNK         0.5000 
     46 O          -1.4598  -17.1442  -40.3627 O.2       5 UNK        -0.5000 
     47 CA         -1.2399  -14.8525  -39.6817 C.3       5 UNK         0.1400 
     48 CB         -2.0679  -14.5695  -38.4195 C.3       5 UNK        -0.1800 
     49 N          -0.1236  -13.9024  -39.7564 N.am      5 UNK        -0.5000 
     50 C           0.7438  -13.8317  -40.7739 C.2       4 UNK         0.5000 
     51 O           0.7179  -14.5914  -41.7463 O.2       4 UNK        -0.5000 
     52 CA          1.8464  -12.7700  -40.6773 C.3       4 UNK         0.1400 
     53 CB          2.9430  -13.1999  -39.6882 C.3       4 UNK        -0.1800 
     54 N           2.4258  -12.6180  -42.0046 N.am      4 UNK        -0.5000 
     55 C           2.9075  -11.4959  -42.5434 C.2       3 UNK         0.5000 
     56 O           3.0045  -10.4316  -41.9309 O.2       3 UNK        -0.5000 
     57 CA          3.3601  -11.5704  -44.0172 C.3       3 UNK         0.1400 
     58 CB          4.8942  -11.5656  -44.1072 C.3       3 UNK        -0.1800 
     59 N           2.8543  -12.7350  -44.7541 N.am      3 UNK        -0.5000 
     60 C           1.5769  -12.9340  -45.1116 C.2       2 UNK         0.5000 
     61 O           0.6570  -12.1801  -44.7907 O.2       2 UNK        -0.5000 
     62 CA          1.2992  -14.1815  -45.9832 C.3       2 UNK         0.1400 
     63 CB         -0.0800  -14.1400  -46.6761 C.3       2 UNK        -0.1800 
     64 N           2.3511  -14.4582  -46.9726 N.am      2 UNK        -0.5000 
     65 C           2.7732  -13.6267  -47.9387 C.2       1 UNK         0.5000 
     66 O           2.3612  -12.4717  -48.0816 O.2       1 UNK        -0.5000 
     67 C          -0.5511  -21.4933  -47.8021 C.2       11 UNK         0.5000 
     68 O          -0.5979  -22.2031  -48.8073 O.2       11 UNK        -0.5000 
     69 N          -1.6321  -21.1626  -47.0784 N.am      12 UNK        -0.5000 
     70 CA         -2.9817  -21.6511  -47.3601 C.3       12 UNK         0.1400 
     71 CB         -4.0033  -20.9127  -46.4841 C.3       12 UNK        -0.1800 
     72 C          -3.1013  -23.1743  -47.1819 C.2       12 UNK         0.5000 
     73 O          -3.6787  -23.8360  -48.0430 O.2       12 UNK        -0.5000 
     74 N          -2.5199  -23.7077  -46.0980 N.am      13 UNK        -0.5000 
     75 CA         -2.4577  -25.1411  -45.8110 C.3       13 UNK         0.1400 
     76 CB         -1.9408  -25.3623  -44.3816 C.3       13 UNK        -0.1800 
     77 C          -1.5998  -25.9178  -46.8254 C.2       13 UNK         0.5000 
     78 O          -1.9972  -27.0078  -47.2372 O.2       13 UNK        -0.5000 
     79 N          -0.4583  -25.3390  -47.2263 N.am      14 UNK        -0.5000 
     80 CA          0.4499  -25.8991  -48.2292 C.3       14 UNK         0.1400 
     81 CB          1.7554  -25.0900  -48.2544 C.3       14 UNK        -0.1800 
     82 C          -0.1787  -25.9608  -49.6331 C.2       14 UNK         0.5000 
     83 O          -0.0280  -26.9702  -50.3225 O.2       14 UNK        -0.5000 
     84 N          -0.8873  -24.8918  -50.0208 N.am      15 UNK        -0.5000 
     85 CA         -1.6363  -24.8076  -51.2752 C.3       15 UNK         0.1400 
     86 CB         -1.9819  -23.3375  -51.5419 C.3       15 UNK        -0.1800 
     87 C          -2.9193  -25.6602  -51.2729 C.2       15 UNK         0.5000 
     88 O          -3.3765  -26.0670  -52.3415 O.2       15 UNK        -0.5000 
     89 N          -3.4930  -25.8788  -50.0813 N.am      16 UNK        -0.5000 
     90 CA         -4.7307  -26.5929  -49.7463 C.3       16 UNK         0.1400 
     91 CB         -4.6936  -28.0585  -50.2184 C.3       16 UNK        -0.1800 
     92 C          -6.0040  -25.8694  -50.2229 C.2       16 UNK         0.5000 
     93 O          -6.9160  -25.6511  -49.4250 O.2       16 UNK        -0.5000 
     94 N          -6.0338  -25.4881  -51.5043 N.am      17 UNK        -0.5000 
     95 CA         -7.0866  -24.6835  -52.1247 C.3       17 UNK         0.1400 
     96 CB         -7.0713  -24.9514  -53.6360 C.3       17 UNK        -0.1800 
     97 C          -6.9266  -23.1760  -51.8442 C.2       17 UNK         0.5000 
     98 O          -7.8892  -22.4271  -52.0175 O.2       17 UNK        -0.5000 
     99 N          -5.7198  -22.7590  -51.4289 N.am      18 UNK        -0.5000 
    100 CA        -5.3098  -21.3805  -51.1488 C.3       18 UNK         0.1400 
    101 CB        -5.9831  -20.8740  -49.8541 C.3       18 UNK        -0.1800 
    102 C         -5.5104  -20.4694  -52.3781 C.2       18 UNK         0.5000 
    103 O         -5.0898  -20.8425  -53.4753 O.2       18 UNK        -0.5000 
    104 N         -6.1606  -19.3125  -52.1932 N.am      19 UNK        -0.5000 
    105 CA        -6.4082  -18.2876  -53.2123 C.3       19 UNK         0.1400 
    106 CB        -7.1733  -17.1216  -52.5690 C.3       19 UNK        -0.1800 
    107 C         -7.1443  -18.7805  -54.4745 C.2       19 UNK         0.5000 
    108 O         -6.9573  -18.1931  -55.5402 O.2       19 UNK        -0.5000 
    109 N         -7.9273  -19.8631  -54.3561 N.am      20 UNK        -0.5000 
    110 CA        -8.6036  -20.5162  -55.4794 C.3       20 UNK         0.1400 
    111 CB        -9.6079  -21.5458  -54.9413 C.3       20 UNK        -0.1800 
    112 C         -7.6330  -21.1721  -56.4841 C.2       20 UNK         0.5000 
    113 O         -7.9897  -21.3076  -57.6553 O.2       20 UNK        -0.5000 
    114 N         -6.4313  -21.5463  -56.0230 N.am      21 UNK        -0.5000 
    115 CA        -5.3394  -22.0415  -56.8596 C.3       21 UNK         0.1400 
    116 CB        -4.7167  -23.2853  -56.2071 C.3       21 UNK        -0.1800 
    117 C         -4.2721  -20.9567  -57.0741 C.2       21 UNK         0.5000 
    118 O         -3.7843  -20.8028  -58.1947 O.2       21 UNK        -0.5000 
    119 N         -3.9181  -20.2375  -56.0017 N.am      22 UNK        -0.5000 
    120 CA        -2.8417  -19.2338  -55.9898 C.3       22 UNK         0.1400 
    121 C         -3.1870  -17.8911  -56.6956 C.2       22 UNK         0.5000 
    122 N         -4.4506  -17.5452  -56.9074 N.am      22 UNK        -0.7600 
    123 O         -2.2833  -17.1480  -57.0684 O.2       22 UNK        -0.5000 
    124 C124       -2.3135  -18.9758  -54.5567 C.3       23 UNK        -0.0398 
    125 S125       -1.7278  -20.5001  -53.7365 S.3       23 UNK        -0.2404 
    126 C126       -0.0016  -20.0926  -53.3253 C.3       23 UNK        -0.0205 
    127 H127        6.1453  -10.3936  -48.9949 H         1 UNK         0.0600 
    128 H128        7.3690  -11.5200  -49.5919 H         1 UNK         0.0600 
    129 H129        5.9210  -11.1986  -50.5505 H         1 UNK         0.0600 
    130 H130        4.4006  -12.8330  -50.4208 H         1 UNK         0.3000 
    131 H131        4.4737  -14.8597  -48.3612 H         1 UNK         0.0600 
    132 H132        2.6600  -15.9144  -49.5961 H         1 UNK         0.0800 
    133 H133        3.9344  -15.4694  -50.6863 H         1 UNK         0.0800 
    134 H134        2.4708  -15.6883  -52.8650 H         1 UNK         0.0800 
    135 H135        0.9242  -14.9175  -53.1148 H         1 UNK         0.0800 
    136 H136        1.1661  -17.6663  -53.7297 H         1 UNK         0.1150 
    137 H137       -0.9236  -19.9438  -50.7658 H         1 UNK         0.1150 
    138 H138        0.2674  -15.9265  -49.9074 H         1 UNK         0.1150 
    139 H139       -1.5762  -17.1813  -48.5879 H         1 UNK         0.0800 
    140 H140       -1.6343  -18.9143  -48.7229 H         1 UNK         0.0800 
    141 H141        2.3033  -19.4825  -47.6765 H         1 UNK         0.0800 
    142 H142        1.2896  -19.7835  -49.0411 H         1 UNK         0.0800 
    143 H143        1.5376  -21.7453  -47.6508 H         1 UNK         0.0600 
    144 H144        0.9891  -20.1235  -45.3571 H         1 UNK         0.3000 
    145 H145        0.7549  -23.0420  -43.1872 H         1 UNK         0.0600 
    146 H146        2.4870  -21.7217  -42.0346 H         1 UNK         0.0600 
    147 H147        3.1430  -22.4093  -43.5112 H         1 UNK         0.0600 
    148 H148        2.7135  -20.7060  -43.4567 H         1 UNK         0.0600 
    149 H149        0.3996  -20.3384  -42.5014 H         1 UNK         0.3000 
    150 H150       -3.1698  -20.2125  -42.9470 H         1 UNK         0.0600 
    151 H151       -2.6834  -21.3184  -40.7557 H         1 UNK         0.0600 
    152 H152       -2.9690  -19.5954  -40.5603 H         1 UNK         0.0600 
    153 H153       -1.3261  -20.2282  -40.4976 H         1 UNK         0.0600 
    154 H154       -1.3409  -18.2525  -42.0117 H         1 UNK         0.3000 
    155 H155       -0.5994  -16.7583  -45.1975 H         1 UNK         0.0600 
    156 H156       -2.1393  -15.9204  -42.6873 H         1 UNK         0.0600 
    157 H157       -2.6599  -15.7196  -44.3541 H         1 UNK         0.0600 
    158 H158       -1.2779  -14.8152  -43.7498 H         1 UNK         0.0600 
    159 H159        0.4303  -16.1700  -42.6436 H         1 UNK         0.3000 
    160 H160        3.2068  -18.4194  -42.5956 H         1 UNK         0.0600 
    161 H161        4.3326  -16.2265  -42.2339 H         1 UNK         0.0600 
    162 H162        2.9493  -15.3812  -42.9233 H         1 UNK         0.0600 
    163 H163        3.9158  -16.4514  -43.9254 H         1 UNK         0.0600 
    164 H164        2.1598  -16.4369  -40.7821 H         1 UNK         0.3000 
    165 H165        0.2132  -18.6925  -38.8141 H         1 UNK         0.0600 
    166 H166        1.7087  -17.8047  -37.0486 H         1 UNK         0.0600 
    167 H167        2.5704  -18.9767  -38.0327 H         1 UNK         0.0600 
    168 H168        2.8676  -17.2573  -38.2602 H         1 UNK         0.0600 
    169 H169        0.8171  -15.9007  -38.5740 H         1 UNK         0.3000 
    170 H170       -1.8774  -14.6792  -40.5509 H         1 UNK         0.0600 
    171 H171       -2.9169  -15.2510  -38.3488 H         1 UNK         0.0600 
    172 H172       -1.4744  -14.6890  -37.5122 H         1 UNK         0.0600 
    173 H173       -2.4677  -13.5554  -38.4289 H         1 UNK         0.0600 
    174 H174       -0.0338  -13.2527  -38.9883 H         1 UNK         0.3000 
    175 H175        1.3953  -11.8295  -40.3542 H         1 UNK         0.0600 
    176 H176        3.3987  -14.1473  -39.9794 H         1 UNK         0.0600 
    177 H177        3.7353  -12.4531  -39.6322 H         1 UNK         0.0600 
    178 H178        2.5420  -13.3212  -38.6814 H         1 UNK         0.0600 
    179 H179        2.2975  -13.4242  -42.6008 H         1 UNK         0.3000 
    180 H180        2.9871  -10.6725  -44.5140 H         1 UNK         0.0600 
    181 H181        5.3264  -12.4544  -43.6457 H         1 UNK         0.0600 
    182 H182        5.3146  -10.6953  -43.6015 H         1 UNK         0.0600 
    183 H183        5.2285  -11.5284  -45.1443 H         1 UNK         0.0600 
    184 H184        3.5488  -13.3905  -45.0816 H         1 UNK         0.3000 
    185 H185        1.2962  -15.0277  -45.2967 H         1 UNK         0.0600 
    186 H186       -0.8864  -14.0285  -45.9520 H         1 UNK         0.0600 
    187 H187       -0.1564  -13.3067  -47.3750 H         1 UNK         0.0600 
    188 H188       -0.2691  -15.0588  -47.2310 H         1 UNK         0.0600 
    189 H189        2.7495  -15.3858  -46.9287 H         1 UNK         0.3000 
    190 H190       -1.5253  -20.5485  -46.2777 H         1 UNK         0.3000 
    191 H191       -3.2066  -21.4230  -48.4041 H         1 UNK         0.0600 
    192 H192       -3.7951  -21.0466  -45.4222 H         1 UNK         0.0600 
    193 H193       -5.0149  -21.2759  -46.6684 H         1 UNK         0.0600 
    194 H194       -3.9987  -19.8430  -46.6936 H         1 UNK         0.0600 
    195 H195       -2.1030  -23.0901  -45.4062 H         1 UNK         0.3000 
    196 H196       -3.4742  -25.5362  -45.8672 H         1 UNK         0.0600 
    197 H197       -1.8896  -26.4254  -44.1434 H         1 UNK         0.0600 
    198 H198       -2.5999  -24.8966  -43.6488 H         1 UNK         0.0600 
    199 H199       -0.9424  -24.9453  -44.2453 H         1 UNK         0.0600 
    200 H200       -0.1700  -24.4693  -46.7867 H         1 UNK         0.3000 
    201 H201        0.6909  -26.9205  -47.9277 H         1 UNK         0.0600 
    202 H202        2.2463  -25.1031  -47.2812 H         1 UNK         0.0600 
    203 H203        1.5782  -24.0493  -48.5263 H         1 UNK         0.0600 
    204 H204        2.4579  -25.5040  -48.9787 H         1 UNK         0.0600 
    205 H205       -0.9106  -24.0714  -49.4219 H         1 UNK         0.3000 
    206 H206       -1.0010  -25.1647  -52.0883 H         1 UNK         0.0600 
    207 H207       -1.0787  -22.7399  -51.6650 H         1 UNK         0.0600 
    208 H208       -2.5755  -23.2250  -52.4504 H         1 UNK         0.0600 
    209 H209       -2.5486  -22.9110  -50.7149 H         1 UNK         0.0600 
    210 H210       -3.0794  -25.3997  -49.2894 H         1 UNK         0.3000 
    211 H211       -4.7677  -26.6049  -48.6557 H         1 UNK         0.0600 
    212 H212       -4.6778  -28.1416  -51.3052 H         1 UNK         0.0600 
    213 H213       -5.5711  -28.6009  -49.8646 H         1 UNK         0.0600 
    214 H214       -3.8144  -28.5725  -49.8295 H         1 UNK         0.0600 
    215 H215       -5.2260  -25.7187  -52.0772 H         1 UNK         0.3000 
    216 H216       -8.0564  -24.9928  -51.7295 H         1 UNK         0.0600 
    217 H217       -7.8224  -24.3555  -54.1549 H         1 UNK         0.0600 
    218 H218       -7.2815  -25.9989  -53.8523 H         1 UNK         0.0600 
    219 H219       -6.1005  -24.7099  -54.0666 H         1 UNK         0.0600 
    220 H220       -4.9998  -23.4585  -51.3361 H         1 UNK         0.3000 
    221 H221       -4.2353  -21.4002  -50.9713 H         1 UNK         0.0600 
    222 H222       -7.0629  -20.7682  -49.9653 H         1 UNK         0.0600 
    223 H223       -5.8078  -21.5691  -49.0330 H         1 UNK         0.0600 
    224 H224       -5.5782  -19.9092  -49.5460 H         1 UNK         0.0600 
    225 H225       -6.4990  -19.1038  -51.2653 H         1 UNK         0.3000 
    226 H226       -5.4355  -17.9150  -53.5381 H         1 UNK         0.0600 
    227 H227       -8.1435  -17.4408  -52.1862 H         1 UNK         0.0600 
    228 H228       -6.6108  -16.6875  -51.7422 H         1 UNK         0.0600 
    229 H229       -7.3517  -16.3239  -53.2916 H         1 UNK         0.0600 
    230 H230       -8.0060  -20.3123  -53.4533 H         1 UNK         0.3000 
    231 H231       -9.1639  -19.7510  -56.0209 H         1 UNK         0.0600 
    232 H232      -10.3307  -21.0809  -54.2707 H         1 UNK         0.0600 
    233 H233       -9.1098  -22.3459  -54.3951 H         1 UNK         0.0600 
    234 H234      -10.1689  -22.0060  -55.7556 H         1 UNK         0.0600 
    235 H235       -6.2040  -21.3653  -55.0509 H         1 UNK         0.3000 
    236 H236       -5.7110  -22.3354  -57.8434 H         1 UNK         0.0600 
    237 H237       -3.8387  -23.6210  -56.7604 H         1 UNK         0.0600 
    238 H238       -4.4043  -23.0929  -55.1796 H         1 UNK         0.0600 
    239 H239       -5.4255  -24.1125  -56.1994 H         1 UNK         0.0600 
    240 H240       -4.3318  -20.4543  -55.0984 H         1 UNK         0.3000 
    241 H241       -2.0103  -19.6555  -56.5584 H         1 UNK         0.0600 
    242 H242       -4.6464  -16.6744  -57.3746 H         1 UNK         0.3800 
    243 H243       -5.2235  -18.1007  -56.5592 H         1 UNK         0.3800 
    244 H244       -1.5021  -18.2470  -54.5813 H         1 UNK         0.0800 
    245 H245       -3.0947  -18.5376  -53.9346 H         1 UNK         0.0800 
    246 H246        0.4696  -20.9671  -52.8749 H         1 UNK         0.0800 
    247 H247        0.5455  -19.8877  -54.2468 H         1 UNK         0.0800 
@<TRIPOS>BOND
     1    1    2 1    
     2    1  127 1    
     3    1  128 1    
     4    1  129 1    
     5    2    3 2    
     6    2    4 am   BACKBONE|DICT|INTERRES
     7    4    5 1    
     8    4  130 1    
     9    5    6 1    
    10    5   65 1    
    11    5  131 1    
    12    6    7 1    
    13    6  132 1    
    14    6  133 1    
    15    7    8 1    
    16    8    9 1    
    17    8  134 1    
    18    8  135 1    
    19    9   10 ar   
    20    9   14 ar   
    21   10   11 ar   
    22   10  136 1    
    23   11   12 ar   
    24   11  126 1    
    25   12   13 ar   
    26   12  137 1    
    27   13   14 ar   
    28   13   15 1    
    29   14  138 1    
    30   15   16 1    
    31   15  139 1    
    32   15  140 1    
    33   16   17 1    
    34   17   18 1    
    35   17  141 1    
    36   17  142 1    
    37   18   19 1    
    38   18   67 1    
    39   18  143 1    
    40   19   20 am   BACKBONE|DICT|INTERRES
    41   19  144 1    
    42   20   21 2    
    43   20   22 1    
    44   22   23 1    
    45   22   24 1    
    46   22  145 1    
    47   23  146 1    
    48   23  147 1    
    49   23  148 1    
    50   24   25 am   BACKBONE|DICT|INTERRES
    51   24  149 1    
    52   25   26 2    
    53   25   27 1    
    54   27   28 1    
    55   27   29 1    
    56   27  150 1    
    57   28  151 1    
    58   28  152 1    
    59   28  153 1    
    60   29   30 am   BACKBONE|DICT|INTERRES
    61   29  154 1    
    62   30   31 2    
    63   30   32 1    
    64   32   33 1    
    65   32   34 1    
    66   32  155 1    
    67   33  156 1    
    68   33  157 1    
    69   33  158 1    
    70   34   35 am   BACKBONE|DICT|INTERRES
    71   34  159 1    
    72   35   36 2    
    73   35   37 1    
    74   37   38 1    
    75   37   39 1    
    76   37  160 1    
    77   38  161 1    
    78   38  162 1    
    79   38  163 1    
    80   39   40 am   BACKBONE|DICT|INTERRES
    81   39  164 1    
    82   40   41 2    
    83   40   42 1    
    84   42   43 1    
    85   42   44 1    
    86   42  165 1    
    87   43  166 1    
    88   43  167 1    
    89   43  168 1    
    90   44   45 am   BACKBONE|DICT|INTERRES
    91   44  169 1    
    92   45   46 2    
    93   45   47 1    
    94   47   48 1    
    95   47   49 1    
    96   47  170 1    
    97   48  171 1    
    98   48  172 1    
    99   48  173 1    
   100   49   50 am   BACKBONE|DICT|INTERRES
   101   49  174 1    
   102   50   51 2    
   103   50   52 1    
   104   52   53 1    
   105   52   54 1    
   106   52  175 1    
   107   53  176 1    
   108   53  177 1    
   109   53  178 1    
   110   54   55 am   BACKBONE|DICT|INTERRES
   111   54  179 1    
   112   55   56 2    
   113   55   57 1    
   114   57   58 1    
   115   57   59 1    
   116   57  180 1    
   117   58  181 1    
   118   58  182 1    
   119   58  183 1    
   120   59   60 am   BACKBONE|DICT|INTERRES
   121   59  184 1    
   122   60   61 2    
   123   60   62 1    
   124   62   63 1    
   125   62   64 1    
   126   62  185 1    
   127   63  186 1    
   128   63  187 1    
   129   63  188 1    
   130   64   65 am   BACKBONE|DICT|INTERRES
   131   64  189 1    
   132   65   66 2    
   133   67   68 2    
   134   67   69 am   BACKBONE|DICT|INTERRES
   135   69   70 1    
   136   69  190 1    
   137   70   71 1    
   138   70   72 1    
   139   70  191 1    
   140   71  192 1    
   141   71  193 1    
   142   71  194 1    
   143   72   73 2    
   144   72   74 am   BACKBONE|DICT|INTERRES
   145   74   75 1    
   146   74  195 1    
   147   75   76 1    
   148   75   77 1    
   149   75  196 1    
   150   76  197 1    
   151   76  198 1    
   152   76  199 1    
   153   77   78 2    
   154   77   79 am   BACKBONE|DICT|INTERRES
   155   79   80 1    
   156   79  200 1    
   157   80   81 1    
   158   80   82 1    
   159   80  201 1    
   160   81  202 1    
   161   81  203 1    
   162   81  204 1    
   163   82   83 2    
   164   82   84 am   BACKBONE|DICT|INTERRES
   165   84   85 1    
   166   84  205 1    
   167   85   86 1    
   168   85   87 1    
   169   85  206 1    
   170   86  207 1    
   171   86  208 1    
   172   86  209 1    
   173   87   88 2    
   174   87   89 am   BACKBONE|DICT|INTERRES
   175   89   90 1    
   176   89  210 1    
   177   90   91 1    
   178   90   92 1    
   179   90  211 1    
   180   91  212 1    
   181   91  213 1    
   182   91  214 1    
   183   92   93 2    
   184   92   94 am   BACKBONE|DICT|INTERRES
   185   94   95 1    
   186   94  215 1    
   187   95   96 1    
   188   95   97 1    
   189   95  216 1    
   190   96  217 1    
   191   96  218 1    
   192   96  219 1    
   193   97   98 2    
   194   97   99 am   BACKBONE|DICT|INTERRES
   195   99  100 1    
   196   99  220 1    
   197  100  101 1    
   198  100  102 1    
   199  100  221 1    
   200  101  222 1    
   201  101  223 1    
   202  101  224 1    
   203  102  103 2    
   204  102  104 am   BACKBONE|DICT|INTERRES
   205  104  105 1    
   206  104  225 1    
   207  105  106 1    
   208  105  107 1    
   209  105  226 1    
   210  106  227 1    
   211  106  228 1    
   212  106  229 1    
   213  107  108 2    
   214  107  109 am   BACKBONE|DICT|INTERRES
   215  109  110 1    
   216  109  230 1    
   217  110  111 1    
   218  110  112 1    
   219  110  231 1    
   220  111  232 1    
   221  111  233 1    
   222  111  234 1    
   223  112  113 2    
   224  112  114 am   BACKBONE|DICT|INTERRES
   225  114  115 1    
   226  114  235 1    
   227  115  116 1    
   228  115  117 1    
   229  115  236 1    
   230  116  237 1    
   231  116  238 1    
   232  116  239 1    
   233  117  118 2    
   234  117  119 am   BACKBONE|DICT|INTERRES
   235  119  120 1    
   236  119  240 1    
   237  120  121 1    
   238  120  124 1    
   239  120  241 1    
   240  121  122 am   BACKBONE|DICT|INTERRES
   241  121  123 2    
   242  122  242 1    
   243  122  243 1    
   244  124  125 1    
   245  124  244 1    
   246  124  245 1    
   247  125  126 1    
   248  126  246 1    
   249  126  247 1    
@<TRIPOS>SUBSTRUCTURE
     1 UNK         1 GROUP             0       ****    0 ROOT    
