@<TRIPOS>MOLECULE
3R540
247   249    1
SMALL
USER_CHARGES


@<TRIPOS>ATOM
      1 CA          0.9848  -11.0962  -49.0744 C.3       0 UNK        -0.1800 
      2 C           1.5115  -12.3957  -48.4856 C.2       0 UNK         0.5000 
      3 O           1.1341  -12.7666  -47.3742 O.2       0 UNK        -0.5000 
      4 N           2.3625  -13.1015  -49.2395 N.am      1 UNK        -0.5000 
      5 CA          3.0526  -14.3437  -48.8567 C.3       1 UNK         0.1400 
      6 C6          4.0646  -14.7975  -49.9398 C.3       23 UNK        -0.0398 
      7 S7          3.3661  -14.8802  -51.6295 S.3       23 UNK        -0.2404 
      8 C8          4.0801  -16.4273  -52.2668 C.3       23 UNK        -0.0205 
      9 C9          3.1787  -17.6248  -52.0087 C.ar      23 UNK        -0.0193 
     10 C10         2.1453  -17.9213  -52.9018 C.ar      23 UNK        -0.1150 
     11 C11         1.3387  -19.0460  -52.7097 C.ar      23 UNK        -0.0193 
     12 C12         1.5713  -19.8789  -51.6098 C.ar      23 UNK        -0.1150 
     13 C13         2.5972  -19.5890  -50.7037 C.ar      23 UNK        -0.0193 
     14 C14         3.3965  -18.4592  -50.9086 C.ar      23 UNK        -0.1150 
     15 C15         2.8742  -20.5095  -49.5233 C.3       23 UNK        -0.0205 
     16 S16         2.1637  -19.8770  -47.9703 S.3       23 UNK        -0.2404 
     17 C17         0.4817  -20.5831  -48.0083 C.3       23 UNK        -0.0398 
     18 CA          0.3861  -21.8995  -47.2054 C.3       11 UNK         0.1400 
     19 N           0.6817  -21.7210  -45.7817 N.am      11 UNK        -0.5000 
     20 C           1.0264  -22.7238  -44.9643 C.2       10 UNK         0.5000 
     21 O           1.1367  -23.8927  -45.3343 O.2       10 UNK        -0.5000 
     22 CA          1.2429  -22.3734  -43.4807 C.3       10 UNK         0.1400 
     23 CB          2.6191  -21.7277  -43.2601 C.3       10 UNK        -0.1800 
     24 N           0.1974  -21.4969  -42.9528 N.am      10 UNK        -0.5000 
     25 C          -1.0945  -21.8374  -42.8470 C.2       9 UNK         0.5000 
     26 O          -1.5359  -22.9460  -43.1471 O.2       9 UNK        -0.5000 
     27 CA         -2.0655  -20.7414  -42.3748 C.3       9 UNK         0.1400 
     28 CB         -2.0414  -20.5975  -40.8457 C.3       9 UNK        -0.1800 
     29 N          -1.7877  -19.4493  -43.0021 N.am      9 UNK        -0.5000 
     30 C          -1.9517  -19.1980  -44.3086 C.2       8 UNK         0.5000 
     31 O          -2.3728  -20.0208  -45.1169 O.2       8 UNK        -0.5000 
     32 CA         -1.5394  -17.8066  -44.8087 C.3       8 UNK         0.1400 
     33 CB         -2.6718  -16.8026  -44.5588 C.3       8 UNK        -0.1800 
     34 N          -0.3013  -17.3223  -44.1984 N.am      8 UNK        -0.5000 
     35 C           0.8854  -17.9391  -44.2980 C.2       7 UNK         0.5000 
     36 O           1.0634  -18.9709  -44.9428 O.2       7 UNK        -0.5000 
     37 CA          2.0425  -17.3540  -43.4694 C.3       7 UNK         0.1400 
     38 CB          2.6153  -16.0905  -44.1266 C.3       7 UNK        -0.1800 
     39 N           1.6392  -17.0460  -42.0978 N.am      7 UNK        -0.5000 
     40 C           1.2101  -17.9357  -41.1944 C.2       6 UNK         0.5000 
     41 O           1.1315  -19.1431  -41.4211 O.2       6 UNK        -0.5000 
     42 CA          0.7455  -17.3973  -39.8249 C.3       6 UNK         0.1400 
     43 CB          1.9253  -17.2729  -38.8424 C.3       6 UNK        -0.1800 
     44 N          -0.0419  -16.1566  -39.9006 N.am      6 UNK        -0.5000 
     45 C           0.3580  -14.9302  -40.2635 C.2       5 UNK         0.5000 
     46 O           1.5249  -14.6301  -40.5276 O.2       5 UNK        -0.5000 
     47 CA         -0.7499  -13.8683  -40.3981 C.3       5 UNK         0.1400 
     48 CB         -0.7777  -12.9577  -39.1614 C.3       5 UNK        -0.1800 
     49 N          -0.5909  -13.0438  -41.5992 N.am      5 UNK        -0.5000 
     50 C          -0.5284  -13.5076  -42.8552 C.2       4 UNK         0.5000 
     51 O          -0.6058  -14.7033  -43.1499 O.2       4 UNK        -0.5000 
     52 CA         -0.3110  -12.4512  -43.9558 C.3       4 UNK         0.1400 
     53 CB          1.1773  -12.0838  -44.0640 C.3       4 UNK        -0.1800 
     54 N          -0.7781  -12.8957  -45.2693 N.am      4 UNK        -0.5000 
     55 C          -2.0596  -13.1088  -45.5994 C.2       3 UNK         0.5000 
     56 O          -3.0016  -12.9097  -44.8311 O.2       3 UNK        -0.5000 
     57 CA         -2.3523  -13.6203  -47.0212 C.3       3 UNK         0.1400 
     58 CB         -2.5604  -12.4266  -47.9671 C.3       3 UNK        -0.1800 
     59 N          -1.2748  -14.4693  -47.5401 N.am      3 UNK        -0.5000 
     60 C          -1.4217  -15.7342  -47.9646 C.2       2 UNK         0.5000 
     61 O          -2.5002  -16.3327  -47.9680 O.2       2 UNK        -0.5000 
     62 CA         -0.1687  -16.4490  -48.5097 C.3       2 UNK         0.1400 
     63 CB         -0.4890  -17.3210  -49.7328 C.3       2 UNK        -0.1800 
     64 N           0.8724  -15.4936  -48.8838 N.am      2 UNK        -0.5000 
     65 C           2.1283  -15.5036  -48.4232 C.2       1 UNK         0.5000 
     66 O           2.5712  -16.3577  -47.6577 O.2       1 UNK        -0.5000 
     67 C          -0.9547  -22.6348  -47.4320 C.2       11 UNK         0.5000 
     68 O          -1.0453  -23.4365  -48.3593 O.2       11 UNK        -0.5000 
     69 N          -1.9535  -22.4221  -46.5614 N.am      12 UNK        -0.5000 
     70 CA         -3.2077  -23.1800  -46.5579 C.3       12 UNK         0.1400 
     71 CB         -4.2384  -22.5067  -45.6416 C.3       12 UNK        -0.1800 
     72 C          -3.0110  -24.6550  -46.1600 C.2       12 UNK         0.5000 
     73 O          -3.6575  -25.5266  -46.7403 O.2       12 UNK        -0.5000 
     74 N          -2.1018  -24.9263  -45.2128 N.am      13 UNK        -0.5000 
     75 CA         -1.6927  -26.2835  -44.8396 C.3       13 UNK         0.1400 
     76 CB         -0.8239  -26.2402  -43.5739 C.3       13 UNK        -0.1800 
     77 C          -0.9694  -27.0172  -45.9867 C.2       13 UNK         0.5000 
     78 O          -1.1319  -28.2297  -46.1324 O.2       13 UNK        -0.5000 
     79 N          -0.2379  -26.2656  -46.8204 N.am      14 UNK        -0.5000 
     80 CA          0.3917  -26.7227  -48.0588 C.3       14 UNK         0.1400 
     81 CB          1.5637  -25.7848  -48.4005 C.3       14 UNK        -0.1800 
     82 C          -0.6312  -26.8543  -49.2111 C.2       14 UNK         0.5000 
     83 O          -0.4940  -26.1995  -50.2452 O.2       14 UNK        -0.5000 
     84 N          -1.6322  -27.7223  -49.0082 N.am      15 UNK        -0.5000 
     85 CA         -2.6626  -28.1405  -49.9648 C.3       15 UNK         0.1400 
     86 CB         -2.0293  -28.9350  -51.1272 C.3       15 UNK        -0.1800 
     87 C          -3.5814  -26.9955  -50.4442 C.2       15 UNK         0.5000 
     88 O          -3.8509  -26.8792  -51.6412 O.2       15 UNK        -0.5000 
     89 N          -4.0722  -26.1913  -49.4896 N.am      16 UNK        -0.5000 
     90 CA         -5.0729  -25.1274  -49.6501 C.3       16 UNK         0.1400 
     91 CB         -6.4209  -25.7063  -50.1302 C.3       16 UNK        -0.1800 
     92 C          -4.6064  -23.9286  -50.5007 C.2       16 UNK         0.5000 
     93 O          -5.4440  -23.1788  -51.0048 O.2       16 UNK        -0.5000 
     94 N          -3.2883  -23.7293  -50.6205 N.am      17 UNK        -0.5000 
     95 CA         -2.6647  -22.6636  -51.4048 C.3       17 UNK         0.1400 
     96 CB         -1.2604  -23.1235  -51.8378 C.3       17 UNK        -0.1800 
     97 C          -2.6502  -21.3067  -50.6683 C.2       17 UNK         0.5000 
     98 O          -1.6118  -20.6544  -50.6078 O.2       17 UNK        -0.5000 
     99 N          -3.8008  -20.8881  -50.1268 N.am      18 UNK        -0.5000 
    100 CA        -4.0245  -19.5333  -49.6159 C.3       18 UNK         0.1400 
    101 CB        -5.3258  -19.5257  -48.8006 C.3       18 UNK        -0.1800 
    102 C         -4.1068  -18.5244  -50.7793 C.2       18 UNK         0.5000 
    103 O         -4.3792  -18.9319  -51.9100 O.2       18 UNK        -0.5000 
    104 N         -3.9181  -17.2271  -50.4945 N.am      19 UNK        -0.5000 
    105 CA        -3.8504  -16.1420  -51.4885 C.3       19 UNK         0.1400 
    106 CB        -3.6552  -14.7992  -50.7708 C.3       19 UNK        -0.1800 
    107 C         -5.0275  -16.0468  -52.4833 C.2       19 UNK         0.5000 
    108 O         -4.8316  -15.5661  -53.5994 O.2       19 UNK        -0.5000 
    109 N         -6.2130  -16.5234  -52.0813 N.am      20 UNK        -0.5000 
    110 CA        -7.3961  -16.6367  -52.9363 C.3       20 UNK         0.1400 
    111 CB        -8.6254  -16.8821  -52.0478 C.3       20 UNK        -0.1800 
    112 C         -7.2808  -17.7411  -54.0099 C.2       20 UNK         0.5000 
    113 O         -7.9381  -17.6392  -55.0466 O.2       20 UNK        -0.5000 
    114 N         -6.4696  -18.7739  -53.7452 N.am      21 UNK        -0.5000 
    115 CA        -6.2222  -19.9041  -54.6401 C.3       21 UNK         0.1400 
    116 CB        -6.1100  -21.1887  -53.8028 C.3       21 UNK        -0.1800 
    117 C         -4.9532  -19.7077  -55.4896 C.2       21 UNK         0.5000 
    118 O         -4.8698  -20.2868  -56.5738 O.2       21 UNK        -0.5000 
    119 N         -3.9919  -18.9146  -54.9941 N.am      22 UNK        -0.5000 
    120 CA        -2.7433  -18.5553  -55.6893 C.3       22 UNK         0.1400 
    121 C         -2.9808  -17.8298  -57.0453 C.2       22 UNK         0.5000 
    122 N         -2.1741  -18.1165  -58.0584 N.am      22 UNK        -0.7600 
    123 O         -3.8572  -16.9779  -57.1748 O.2       22 UNK        -0.5000 
    124 C124       -1.8054  -17.6993  -54.7995 C.3       23 UNK        -0.0398 
    125 S125       -1.3200  -18.5301  -53.2507 S.3       23 UNK        -0.2404 
    126 C126        0.2318  -19.3649  -53.7032 C.3       23 UNK        -0.0205 
    127 H127        0.8179  -10.3628  -48.2853 H         1 UNK         0.0600 
    128 H128        0.0398  -11.2705  -49.5882 H         1 UNK         0.0600 
    129 H129        1.6897  -10.6696  -49.7883 H         1 UNK         0.0600 
    130 H130        2.5973  -12.7588  -50.1608 H         1 UNK         0.3000 
    131 H131        3.6338  -14.0948  -47.9662 H         1 UNK         0.0600 
    132 H132        4.5129  -15.7552  -49.6694 H         1 UNK         0.0800 
    133 H133        4.8948  -14.0908  -49.9695 H         1 UNK         0.0800 
    134 H134        5.0725  -16.5902  -51.8436 H         1 UNK         0.0800 
    135 H135        4.2316  -16.3187  -53.3418 H         1 UNK         0.0800 
    136 H136        1.9722  -17.2779  -53.7531 H         1 UNK         0.1150 
    137 H137        0.9491  -20.7496  -51.4582 H         1 UNK         0.1150 
    138 H138        4.1947  -18.2374  -50.2145 H         1 UNK         0.1150 
    139 H139        2.5034  -21.5165  -49.7211 H         1 UNK         0.0800 
    140 H140        3.9528  -20.6081  -49.3937 H         1 UNK         0.0800 
    141 H141        0.2247  -20.7571  -49.0493 H         1 UNK         0.0800 
    142 H142       -0.2244  -19.8430  -47.6285 H         1 UNK         0.0800 
    143 H143        1.1569  -22.5607  -47.6074 H         1 UNK         0.0600 
    144 H144        0.6737  -20.7673  -45.4267 H         1 UNK         0.3000 
    145 H145        1.2125  -23.3057  -42.9129 H         1 UNK         0.0600 
    146 H146        2.7994  -21.5372  -42.2020 H         1 UNK         0.0600 
    147 H147        3.4173  -22.3804  -43.6154 H         1 UNK         0.0600 
    148 H148        2.7108  -20.7791  -43.7895 H         1 UNK         0.0600 
    149 H149        0.4867  -20.5717  -42.6505 H         1 UNK         0.3000 
    150 H150       -3.0736  -21.0440  -42.6661 H         1 UNK         0.0600 
    151 H151       -2.3034  -21.5407  -40.3647 H         1 UNK         0.0600 
    152 H152       -2.7599  -19.8507  -40.5077 H         1 UNK         0.0600 
    153 H153       -1.0573  -20.3081  -40.4782 H         1 UNK         0.0600 
    154 H154       -1.3933  -18.7287  -42.4172 H         1 UNK         0.3000 
    155 H155       -1.3736  -17.8829  -45.8841 H         1 UNK         0.0600 
    156 H156       -2.8608  -16.6600  -43.4942 H         1 UNK         0.0600 
    157 H157       -3.6014  -17.1363  -45.0217 H         1 UNK         0.0600 
    158 H158       -2.4309  -15.8327  -44.9859 H         1 UNK         0.0600 
    159 H159       -0.3621  -16.4490  -43.6772 H         1 UNK         0.3000 
    160 H160        2.8349  -18.1036  -43.4207 H         1 UNK         0.0600 
    161 H161        1.8477  -15.3329  -44.2840 H         1 UNK         0.0600 
    162 H162        3.0491  -16.3264  -45.0975 H         1 UNK         0.0600 
    163 H163        3.4050  -15.6487  -43.5189 H         1 UNK         0.0600 
    164 H164        1.6687  -16.0714  -41.8143 H         1 UNK         0.3000 
    165 H165        0.0657  -18.1465  -39.4160 H         1 UNK         0.0600 
    166 H166        2.6857  -16.5774  -39.1980 H         1 UNK         0.0600 
    167 H167        1.5891  -16.9321  -37.8633 H         1 UNK         0.0600 
    168 H168        2.4128  -18.2384  -38.7010 H         1 UNK         0.0600 
    169 H169       -1.0286  -16.2833  -39.7221 H         1 UNK         0.3000 
    170 H170       -1.7143  -14.3742  -40.4774 H         1 UNK         0.0600 
    171 H171        0.1534  -12.3996  -39.0527 H         1 UNK         0.0600 
    172 H172       -1.5961  -12.2396  -39.2167 H         1 UNK         0.0600 
    173 H173       -0.9191  -13.5403  -38.2501 H         1 UNK         0.0600 
    174 H174       -0.4814  -12.0527  -41.4431 H         1 UNK         0.3000 
    175 H175       -0.8723  -11.5546  -43.6850 H         1 UNK         0.0600 
    176 H176        1.5706  -11.7362  -43.1079 H         1 UNK         0.0600 
    177 H177        1.3328  -11.2841  -44.7886 H         1 UNK         0.0600 
    178 H178        1.7806  -12.9363  -44.3770 H         1 UNK         0.0600 
    179 H179       -0.0563  -13.0231  -45.9720 H         1 UNK         0.3000 
    180 H180       -3.2870  -14.1828  -46.9742 H         1 UNK         0.0600 
    181 H181       -2.7597  -12.7506  -48.9870 H         1 UNK         0.0600 
    182 H182       -1.6876  -11.7745  -47.9873 H         1 UNK         0.0600 
    183 H183       -3.4102  -11.8223  -47.6475 H         1 UNK         0.0600 
    184 H184       -0.3463  -14.0608  -47.5445 H         1 UNK         0.3000 
    185 H185        0.1826  -17.1040  -47.7098 H         1 UNK         0.0600 
    186 H186        0.4113  -17.8021  -50.1101 H         1 UNK         0.0600 
    187 H187       -1.1901  -18.1157  -49.4826 H         1 UNK         0.0600 
    188 H188       -0.9188  -16.7383  -50.5475 H         1 UNK         0.0600 
    189 H189        0.6022  -14.7563  -49.5189 H         1 UNK         0.3000 
    190 H190       -1.8631  -21.6933  -45.8587 H         1 UNK         0.3000 
    191 H191       -3.6063  -23.1618  -47.5737 H         1 UNK         0.0600 
    192 H192       -5.1783  -23.0602  -45.6371 H         1 UNK         0.0600 
    193 H193       -4.4617  -21.4941  -45.9765 H         1 UNK         0.0600 
    194 H194       -3.8852  -22.4502  -44.6119 H         1 UNK         0.0600 
    195 H195       -1.6624  -24.1596  -44.7126 H         1 UNK         0.3000 
    196 H196       -2.5960  -26.8509  -44.6061 H         1 UNK         0.0600 
    197 H197        0.0984  -25.6827  -43.7325 H         1 UNK         0.0600 
    198 H198       -1.3578  -25.7740  -42.7457 H         1 UNK         0.0600 
    199 H199       -0.5473  -27.2466  -43.2574 H         1 UNK         0.0600 
    200 H200       -0.1523  -25.2780  -46.6156 H         1 UNK         0.3000 
    201 H201        0.8113  -27.7161  -47.8877 H         1 UNK         0.0600 
    202 H202        2.1108  -26.1474  -49.2713 H         1 UNK         0.0600 
    203 H203        1.2227  -24.7754  -48.6274 H         1 UNK         0.0600 
    204 H204        2.2721  -25.7201  -47.5744 H         1 UNK         0.0600 
    205 H205       -1.6643  -28.1736  -48.0995 H         1 UNK         0.3000 
    206 H206       -3.3107  -28.8297  -49.4216 H         1 UNK         0.0600 
    207 H207       -1.4229  -29.7612  -50.7563 H         1 UNK         0.0600 
    208 H208       -2.7972  -29.3630  -51.7727 H         1 UNK         0.0600 
    209 H209       -1.3933  -28.3051  -51.7500 H         1 UNK         0.0600 
    210 H210       -3.7591  -26.3227  -48.5318 H         1 UNK         0.3000 
    211 H211       -5.2457  -24.7226  -48.6532 H         1 UNK         0.0600 
    212 H212       -6.7378  -26.5401  -49.5038 H         1 UNK         0.0600 
    213 H213       -6.3678  -26.0599  -51.1601 H         1 UNK         0.0600 
    214 H214       -7.2089  -24.9537  -50.0860 H         1 UNK         0.0600 
    215 H215       -2.6531  -24.3478  -50.1328 H         1 UNK         0.3000 
    216 H216       -3.2482  -22.5158  -52.3158 H         1 UNK         0.0600 
    217 H217       -0.7959  -22.3926  -52.4999 H         1 UNK         0.0600 
    218 H218       -1.3043  -24.0691  -52.3785 H         1 UNK         0.0600 
    219 H219       -0.5984  -23.2603  -50.9823 H         1 UNK         0.0600 
    220 H220       -4.6213  -21.4618  -50.2839 H         1 UNK         0.3000 
    221 H221       -3.1956  -19.2575  -48.9613 H         1 UNK         0.0600 
    222 H222       -5.2783  -20.2396  -47.9784 H         1 UNK         0.0600 
    223 H223       -6.1887  -19.7810  -49.4173 H         1 UNK         0.0600 
    224 H224       -5.5097  -18.5428  -48.3651 H         1 UNK         0.0600 
    225 H225       -3.6798  -16.9672  -49.5425 H         1 UNK         0.3000 
    226 H226       -2.9592  -16.3231  -52.0906 H         1 UNK         0.0600 
    227 H227       -2.6679  -14.7447  -50.3170 H         1 UNK         0.0600 
    228 H228       -3.7267  -13.9605  -51.4649 H         1 UNK         0.0600 
    229 H229       -4.4004  -14.6456  -49.9896 H         1 UNK         0.0600 
    230 H230       -6.2848  -16.9016  -51.1485 H         1 UNK         0.3000 
    231 H231       -7.5356  -15.6862  -53.4557 H         1 UNK         0.0600 
    232 H232       -8.5372  -17.8141  -51.4878 H         1 UNK         0.0600 
    233 H233       -9.5347  -16.9442  -52.6473 H         1 UNK         0.0600 
    234 H234       -8.7643  -16.0712  -51.3326 H         1 UNK         0.0600 
    235 H235       -5.9055  -18.7574  -52.8988 H         1 UNK         0.3000 
    236 H236       -7.0643  -20.0240  -55.3248 H         1 UNK         0.0600 
    237 H237       -7.0128  -21.3593  -53.2163 H         1 UNK         0.0600 
    238 H238       -5.9677  -22.0611  -54.4416 H         1 UNK         0.0600 
    239 H239       -5.2673  -21.1500  -53.1121 H         1 UNK         0.0600 
    240 H240       -4.1147  -18.5314  -54.0661 H         1 UNK         0.3000 
    241 H241       -2.2307  -19.4950  -55.9043 H         1 UNK         0.0600 
    242 H242       -1.4443  -18.8078  -57.9777 H         1 UNK         0.3800 
    243 H243       -2.3075  -17.6422  -58.9384 H         1 UNK         0.3800 
    244 H244       -2.2988  -16.7627  -54.5341 H         1 UNK         0.0800 
    245 H245       -0.9034  -17.4130  -55.3430 H         1 UNK         0.0800 
    246 H246        0.5475  -19.0830  -54.7081 H         1 UNK         0.0800 
    247 H247        0.0542  -20.4403  -53.7349 H         1 UNK         0.0800 
@<TRIPOS>BOND
     1    1    2 1    
     2    1  127 1    
     3    1  128 1    
     4    1  129 1    
     5    2    3 2    
     6    2    4 am   BACKBONE|DICT|INTERRES
     7    4    5 1    
     8    4  130 1    
     9    5    6 1    
    10    5   65 1    
    11    5  131 1    
    12    6    7 1    
    13    6  132 1    
    14    6  133 1    
    15    7    8 1    
    16    8    9 1    
    17    8  134 1    
    18    8  135 1    
    19    9   10 ar   
    20    9   14 ar   
    21   10   11 ar   
    22   10  136 1    
    23   11   12 ar   
    24   11  126 1    
    25   12   13 ar   
    26   12  137 1    
    27   13   14 ar   
    28   13   15 1    
    29   14  138 1    
    30   15   16 1    
    31   15  139 1    
    32   15  140 1    
    33   16   17 1    
    34   17   18 1    
    35   17  141 1    
    36   17  142 1    
    37   18   19 1    
    38   18   67 1    
    39   18  143 1    
    40   19   20 am   BACKBONE|DICT|INTERRES
    41   19  144 1    
    42   20   21 2    
    43   20   22 1    
    44   22   23 1    
    45   22   24 1    
    46   22  145 1    
    47   23  146 1    
    48   23  147 1    
    49   23  148 1    
    50   24   25 am   BACKBONE|DICT|INTERRES
    51   24  149 1    
    52   25   26 2    
    53   25   27 1    
    54   27   28 1    
    55   27   29 1    
    56   27  150 1    
    57   28  151 1    
    58   28  152 1    
    59   28  153 1    
    60   29   30 am   BACKBONE|DICT|INTERRES
    61   29  154 1    
    62   30   31 2    
    63   30   32 1    
    64   32   33 1    
    65   32   34 1    
    66   32  155 1    
    67   33  156 1    
    68   33  157 1    
    69   33  158 1    
    70   34   35 am   BACKBONE|DICT|INTERRES
    71   34  159 1    
    72   35   36 2    
    73   35   37 1    
    74   37   38 1    
    75   37   39 1    
    76   37  160 1    
    77   38  161 1    
    78   38  162 1    
    79   38  163 1    
    80   39   40 am   BACKBONE|DICT|INTERRES
    81   39  164 1    
    82   40   41 2    
    83   40   42 1    
    84   42   43 1    
    85   42   44 1    
    86   42  165 1    
    87   43  166 1    
    88   43  167 1    
    89   43  168 1    
    90   44   45 am   BACKBONE|DICT|INTERRES
    91   44  169 1    
    92   45   46 2    
    93   45   47 1    
    94   47   48 1    
    95   47   49 1    
    96   47  170 1    
    97   48  171 1    
    98   48  172 1    
    99   48  173 1    
   100   49   50 am   BACKBONE|DICT|INTERRES
   101   49  174 1    
   102   50   51 2    
   103   50   52 1    
   104   52   53 1    
   105   52   54 1    
   106   52  175 1    
   107   53  176 1    
   108   53  177 1    
   109   53  178 1    
   110   54   55 am   BACKBONE|DICT|INTERRES
   111   54  179 1    
   112   55   56 2    
   113   55   57 1    
   114   57   58 1    
   115   57   59 1    
   116   57  180 1    
   117   58  181 1    
   118   58  182 1    
   119   58  183 1    
   120   59   60 am   BACKBONE|DICT|INTERRES
   121   59  184 1    
   122   60   61 2    
   123   60   62 1    
   124   62   63 1    
   125   62   64 1    
   126   62  185 1    
   127   63  186 1    
   128   63  187 1    
   129   63  188 1    
   130   64   65 am   BACKBONE|DICT|INTERRES
   131   64  189 1    
   132   65   66 2    
   133   67   68 2    
   134   67   69 am   BACKBONE|DICT|INTERRES
   135   69   70 1    
   136   69  190 1    
   137   70   71 1    
   138   70   72 1    
   139   70  191 1    
   140   71  192 1    
   141   71  193 1    
   142   71  194 1    
   143   72   73 2    
   144   72   74 am   BACKBONE|DICT|INTERRES
   145   74   75 1    
   146   74  195 1    
   147   75   76 1    
   148   75   77 1    
   149   75  196 1    
   150   76  197 1    
   151   76  198 1    
   152   76  199 1    
   153   77   78 2    
   154   77   79 am   BACKBONE|DICT|INTERRES
   155   79   80 1    
   156   79  200 1    
   157   80   81 1    
   158   80   82 1    
   159   80  201 1    
   160   81  202 1    
   161   81  203 1    
   162   81  204 1    
   163   82   83 2    
   164   82   84 am   BACKBONE|DICT|INTERRES
   165   84   85 1    
   166   84  205 1    
   167   85   86 1    
   168   85   87 1    
   169   85  206 1    
   170   86  207 1    
   171   86  208 1    
   172   86  209 1    
   173   87   88 2    
   174   87   89 am   BACKBONE|DICT|INTERRES
   175   89   90 1    
   176   89  210 1    
   177   90   91 1    
   178   90   92 1    
   179   90  211 1    
   180   91  212 1    
   181   91  213 1    
   182   91  214 1    
   183   92   93 2    
   184   92   94 am   BACKBONE|DICT|INTERRES
   185   94   95 1    
   186   94  215 1    
   187   95   96 1    
   188   95   97 1    
   189   95  216 1    
   190   96  217 1    
   191   96  218 1    
   192   96  219 1    
   193   97   98 2    
   194   97   99 am   BACKBONE|DICT|INTERRES
   195   99  100 1    
   196   99  220 1    
   197  100  101 1    
   198  100  102 1    
   199  100  221 1    
   200  101  222 1    
   201  101  223 1    
   202  101  224 1    
   203  102  103 2    
   204  102  104 am   BACKBONE|DICT|INTERRES
   205  104  105 1    
   206  104  225 1    
   207  105  106 1    
   208  105  107 1    
   209  105  226 1    
   210  106  227 1    
   211  106  228 1    
   212  106  229 1    
   213  107  108 2    
   214  107  109 am   BACKBONE|DICT|INTERRES
   215  109  110 1    
   216  109  230 1    
   217  110  111 1    
   218  110  112 1    
   219  110  231 1    
   220  111  232 1    
   221  111  233 1    
   222  111  234 1    
   223  112  113 2    
   224  112  114 am   BACKBONE|DICT|INTERRES
   225  114  115 1    
   226  114  235 1    
   227  115  116 1    
   228  115  117 1    
   229  115  236 1    
   230  116  237 1    
   231  116  238 1    
   232  116  239 1    
   233  117  118 2    
   234  117  119 am   BACKBONE|DICT|INTERRES
   235  119  120 1    
   236  119  240 1    
   237  120  121 1    
   238  120  124 1    
   239  120  241 1    
   240  121  122 am   BACKBONE|DICT|INTERRES
   241  121  123 2    
   242  122  242 1    
   243  122  243 1    
   244  124  125 1    
   245  124  244 1    
   246  124  245 1    
   247  125  126 1    
   248  126  246 1    
   249  126  247 1    
@<TRIPOS>SUBSTRUCTURE
     1 UNK         1 GROUP             0       ****    0 ROOT    
