@<TRIPOS>MOLECULE
3R540
247   249    1
SMALL
USER_CHARGES


@<TRIPOS>ATOM
      1 CA         -1.1523  -10.6737  -50.8590 C.3       0 UNK        -0.1800 
      2 C          -1.7521  -11.0310  -49.5065 C.2       0 UNK         0.5000 
      3 O          -2.7300  -10.4098  -49.0905 O.2       0 UNK        -0.5000 
      4 N          -1.1619  -12.0225  -48.8224 N.am      1 UNK        -0.5000 
      5 CA         -1.5792  -12.5542  -47.5122 C.3       1 UNK         0.1400 
      6 C6         -2.9922  -13.2075  -47.5182 C.3       23 UNK        -0.0398 
      7 S7         -3.1986  -14.4439  -48.8465 S.3       23 UNK        -0.2404 
      8 C8         -3.0306  -16.0046  -47.9315 C.3       23 UNK        -0.0205 
      9 C9         -2.8043  -17.1608  -48.8895 C.ar      23 UNK        -0.0193 
     10 C10        -3.8827  -17.9127  -49.3656 C.ar      23 UNK        -0.1150 
     11 C11        -3.6676  -18.9739  -50.2495 C.ar      23 UNK        -0.0193 
     12 C12        -2.3665  -19.2717  -50.6616 C.ar      23 UNK        -0.1150 
     13 C13        -1.2827  -18.5229  -50.1992 C.ar      23 UNK        -0.0193 
     14 C14        -1.5075  -17.4713  -49.3079 C.ar      23 UNK        -0.1150 
     15 C15         0.1271  -18.8388  -50.6756 C.3       23 UNK        -0.0205 
     16 S16         0.6621  -20.5177  -50.2153 S.3       23 UNK        -0.2404 
     17 C17         0.6960  -20.3869  -48.3952 C.3       23 UNK        -0.0398 
     18 CA          0.0009  -21.5603  -47.6646 C.3       11 UNK         0.1400 
     19 N           0.3502  -21.5599  -46.2416 N.am      11 UNK        -0.5000 
     20 C           0.0924  -22.5546  -45.3822 C.2       10 UNK         0.5000 
     21 O          -0.4533  -23.6101  -45.6993 O.2       10 UNK        -0.5000 
     22 CA          0.4606  -22.3061  -43.9083 C.3       10 UNK         0.1400 
     23 CB          1.9696  -22.4789  -43.6814 C.3       10 UNK        -0.1800 
     24 N           0.0400  -20.9841  -43.4432 N.am      10 UNK        -0.5000 
     25 C          -1.2342  -20.5722  -43.3860 C.2       9 UNK         0.5000 
     26 O          -2.1951  -21.2815  -43.6780 O.2       9 UNK        -0.5000 
     27 CA         -1.4767  -19.1096  -42.9814 C.3       9 UNK         0.1400 
     28 CB         -1.4519  -18.9484  -41.4553 C.3       9 UNK        -0.1800 
     29 N          -0.5140  -18.1995  -43.6019 N.am      9 UNK        -0.5000 
     30 C          -0.4809  -17.9273  -44.9141 C.2       8 UNK         0.5000 
     31 O          -1.2797  -18.3843  -45.7301 O.2       8 UNK        -0.5000 
     32 CA          0.6737  -17.0380  -45.4032 C.3       8 UNK         0.1400 
     33 CB          0.3469  -15.5502  -45.2041 C.3       8 UNK        -0.1800 
     34 N           1.9379  -17.3673  -44.7416 N.am      8 UNK        -0.5000 
     35 C           2.6039  -18.5138  -44.9454 C.2       7 UNK         0.5000 
     36 O           2.2239  -19.3919  -45.7191 O.2       7 UNK        -0.5000 
     37 CA          3.8857  -18.7442  -44.1246 C.3       7 UNK         0.1400 
     38 CB          5.0983  -18.1303  -44.8396 C.3       7 UNK        -0.1800 
     39 N           3.8158  -18.2224  -42.7595 N.am      7 UNK        -0.5000 
     40 C           2.9308  -18.6030  -41.8284 C.2       6 UNK         0.5000 
     41 O           2.0475  -19.4382  -42.0304 O.2       6 UNK        -0.5000 
     42 CA          3.0203  -17.9263  -40.4439 C.3       6 UNK         0.1400 
     43 CB          4.2268  -16.9735  -40.2807 C.3       6 UNK        -0.1800 
     44 N           1.7811  -17.2261  -40.0938 N.am      6 UNK        -0.5000 
     45 C           1.1716  -16.2661  -40.8042 C.2       5 UNK         0.5000 
     46 O           1.5557  -15.8831  -41.9114 O.2       5 UNK        -0.5000 
     47 CA         -0.0852  -15.6145  -40.1921 C.3       5 UNK         0.1400 
     48 CB         -0.5637  -16.2432  -38.8625 C.3       5 UNK        -0.1800 
     49 N           0.1015  -14.1693  -40.0583 N.am      5 UNK        -0.5000 
     50 C           1.0050  -13.5297  -39.3034 C.2       4 UNK         0.5000 
     51 O           1.7720  -14.0885  -38.5168 O.2       4 UNK        -0.5000 
     52 CA          1.0847  -12.0039  -39.5117 C.3       4 UNK         0.1400 
     53 CB          1.8692  -11.2928  -38.3943 C.3       4 UNK        -0.1800 
     54 N           1.7075  -11.6888  -40.7977 N.am      4 UNK        -0.5000 
     55 C           1.1142  -11.7987  -41.9923 C.2       3 UNK         0.5000 
     56 O          -0.0596  -12.1498  -42.1435 O.2       3 UNK        -0.5000 
     57 CA          2.0006  -11.5060  -43.2174 C.3       3 UNK         0.1400 
     58 CB          2.7518  -12.7766  -43.6453 C.3       3 UNK        -0.1800 
     59 N           1.2296  -10.9996  -44.3538 N.am      3 UNK        -0.5000 
     60 C           0.6050   -9.8139  -44.3852 C.2       2 UNK         0.5000 
     61 O           0.6592   -8.9930  -43.4676 O.2       2 UNK        -0.5000 
     62 CA         -0.1926   -9.4623  -45.6563 C.3       2 UNK         0.1400 
     63 CB          0.5337   -8.3731  -46.4622 C.3       2 UNK        -0.1800 
     64 N          -0.4399  -10.6033  -46.5409 N.am      2 UNK        -0.5000 
     65 C          -1.4121  -11.5124  -46.3772 C.2       1 UNK         0.5000 
     66 O          -2.1569  -11.5365  -45.3965 O.2       1 UNK        -0.5000 
     67 C          -1.5292  -21.5919  -47.8892 C.2       11 UNK         0.5000 
     68 O          -1.9938  -22.3057  -48.7786 O.2       11 UNK        -0.5000 
     69 N          -2.2872  -20.8643  -47.0545 N.am      12 UNK        -0.5000 
     70 CA         -3.7501  -20.8792  -47.0540 C.3       12 UNK         0.1400 
     71 CB         -4.2826  -19.7271  -46.1887 C.3       12 UNK        -0.1800 
     72 C          -4.3355  -22.2265  -46.5927 C.2       12 UNK         0.5000 
     73 O          -5.2975  -22.7031  -47.1956 O.2       12 UNK        -0.5000 
     74 N          -3.7491  -22.8152  -45.5401 N.am      13 UNK        -0.5000 
     75 CA         -4.1319  -24.1165  -44.9911 C.3       13 UNK         0.1400 
     76 CB         -3.4271  -24.3404  -43.6444 C.3       13 UNK        -0.1800 
     77 C          -3.8390  -25.2716  -45.9632 C.2       13 UNK         0.5000 
     78 O          -4.7110  -26.1104  -46.1955 O.2       13 UNK        -0.5000 
     79 N          -2.6382  -25.2723  -46.5558 N.am      14 UNK        -0.5000 
     80 CA         -2.2036  -26.2116  -47.5896 C.3       14 UNK         0.1400 
     81 CB         -0.6673  -26.3071  -47.5642 C.3       14 UNK        -0.1800 
     82 C          -2.7457  -25.8061  -48.9754 C.2       14 UNK         0.5000 
     83 O          -1.9700  -25.6327  -49.9153 O.2       14 UNK        -0.5000 
     84 N          -4.0751  -25.6673  -49.0797 N.am      15 UNK        -0.5000 
     85 CA         -4.8050  -25.1558  -50.2444 C.3       15 UNK         0.1400 
     86 CB         -6.3054  -25.1210  -49.9201 C.3       15 UNK        -0.1800 
     87 C          -4.5553  -25.9281  -51.5553 C.2       15 UNK         0.5000 
     88 O          -4.6123  -25.3335  -52.6309 O.2       15 UNK        -0.5000 
     89 N          -4.2399  -27.2255  -51.4440 N.am      16 UNK        -0.5000 
     90 CA         -3.8509  -28.0951  -52.5570 C.3       16 UNK         0.1400 
     91 CB         -3.8581  -29.5517  -52.0676 C.3       16 UNK        -0.1800 
     92 C          -2.4807  -27.7425  -53.1772 C.2       16 UNK         0.5000 
     93 O          -2.2072  -28.1622  -54.3023 O.2       16 UNK        -0.5000 
     94 N          -1.6503  -26.9890  -52.4451 N.am      17 UNK        -0.5000 
     95 CA         -0.3201  -26.5345  -52.8457 C.3       17 UNK         0.1400 
     96 CB          0.7248  -27.2398  -51.9618 C.3       17 UNK        -0.1800 
     97 C          -0.2136  -24.9981  -52.7589 C.2       17 UNK         0.5000 
     98 O           0.8895  -24.4735  -52.5961 O.2       17 UNK        -0.5000 
     99 N          -1.3563  -24.3016  -52.8561 N.am      18 UNK        -0.5000 
    100 CA        -1.4747  -22.8468  -52.7879 C.3       18 UNK         0.1400 
    101 CB        -2.9622  -22.4609  -52.8387 C.3       18 UNK        -0.1800 
    102 C         -0.7113  -22.1477  -53.9249 C.2       18 UNK         0.5000 
    103 O         -1.1073  -22.2724  -55.0854 O.2       18 UNK        -0.5000 
    104 N          0.3341  -21.3870  -53.5756 N.am      19 UNK        -0.5000 
    105 CA         1.1483  -20.6107  -54.5185 C.3       19 UNK         0.1400 
    106 CB         2.3943  -20.0809  -53.7926 C.3       19 UNK        -0.1800 
    107 C          0.3742  -19.4573  -55.1902 C.2       19 UNK         0.5000 
    108 O          0.7399  -19.0335  -56.2865 O.2       19 UNK        -0.5000 
    109 N         -0.6985  -18.9970  -54.5325 N.am      20 UNK        -0.5000 
    110 CA        -1.6461  -18.0052  -55.0399 C.3       20 UNK         0.1400 
    111 CB        -2.2891  -17.2936  -53.8385 C.3       20 UNK        -0.1800 
    112 C         -2.7244  -18.6109  -55.9669 C.2       20 UNK         0.5000 
    113 O         -3.5296  -17.8535  -56.5096 O.2       20 UNK        -0.5000 
    114 N         -2.7297  -19.9456  -56.1324 N.am      21 UNK        -0.5000 
    115 CA        -3.6572  -20.7391  -56.9486 C.3       21 UNK         0.1400 
    116 CB        -3.4729  -20.4289  -58.4492 C.3       21 UNK        -0.1800 
    117 C         -5.1220  -20.6252  -56.4747 C.2       21 UNK         0.5000 
    118 O         -6.0313  -20.4507  -57.2888 O.2       21 UNK        -0.5000 
    119 N         -5.3108  -20.7099  -55.1522 N.am      22 UNK        -0.5000 
    120 CA        -6.6092  -20.6554  -54.4620 C.3       22 UNK         0.1400 
    121 C         -7.5704  -21.8110  -54.8617 C.2       22 UNK         0.5000 
    122 N         -8.8713  -21.5561  -54.9025 N.am      22 UNK        -0.7600 
    123 O         -7.1541  -22.9441  -55.0921 O.2       22 UNK        -0.5000 
    124 C124       -6.4315  -20.6198  -52.9223 C.3       23 UNK        -0.0398 
    125 S125       -5.4028  -19.2169  -52.3738 S.3       23 UNK        -0.2404 
    126 C126       -4.8311  -19.8107  -50.7541 C.3       23 UNK        -0.0205 
    127 H127       -0.2924  -11.2991  -51.1002 H         1 UNK         0.0600 
    128 H128       -0.8277   -9.6331  -50.8624 H         1 UNK         0.0600 
    129 H129       -1.8967  -10.8026  -51.6446 H         1 UNK         0.0600 
    130 H130       -0.3688  -12.4902  -49.2386 H         1 UNK         0.3000 
    131 H131       -0.8649  -13.3450  -47.2798 H         1 UNK         0.0600 
    132 H132       -3.1999  -13.6828  -46.5580 H         1 UNK         0.0800 
    133 H133       -3.7634  -12.4466  -47.6469 H         1 UNK         0.0800 
    134 H134       -2.1939  -15.9409  -47.2363 H         1 UNK         0.0800 
    135 H135       -3.9236  -16.1754  -47.3284 H         1 UNK         0.0800 
    136 H136       -4.8873  -17.6727  -49.0471 H         1 UNK         0.1150 
    137 H137       -2.1916  -20.0927  -51.3382 H         1 UNK         0.1150 
    138 H138       -0.6758  -16.8845  -48.9446 H         1 UNK         0.1150 
    139 H139        0.1611  -18.7348  -51.7594 H         1 UNK         0.0800 
    140 H140        0.8442  -18.1180  -50.2794 H         1 UNK         0.0800 
    141 H141        0.2785  -19.4346  -48.0651 H         1 UNK         0.0800 
    142 H142        1.7498  -20.3585  -48.1161 H         1 UNK         0.0800 
    143 H143        0.3993  -22.4886  -48.0803 H         1 UNK         0.0600 
    144 H144        0.8417  -20.7376  -45.9029 H         1 UNK         0.3000 
    145 H145       -0.0606  -23.0517  -43.3044 H         1 UNK         0.0600 
    146 H146        2.5494  -21.7585  -44.2581 H         1 UNK         0.0600 
    147 H147        2.2964  -23.4762  -43.9783 H         1 UNK         0.0600 
    148 H148        2.2276  -22.3504  -42.6300 H         1 UNK         0.0600 
    149 H149        0.7719  -20.3541  -43.1258 H         1 UNK         0.3000 
    150 H150       -2.4749  -18.8351  -43.3293 H         1 UNK         0.0600 
    151 H151       -2.1275  -19.6590  -40.9772 H         1 UNK         0.0600 
    152 H152       -1.7809  -17.9518  -41.1655 H         1 UNK         0.0600 
    153 H153       -0.4568  -19.1153  -41.0429 H         1 UNK         0.0600 
    154 H154        0.2222  -17.8324  -43.0162 H         1 UNK         0.3000 
    155 H155        0.7928  -17.2144  -46.4746 H         1 UNK         0.0600 
    156 H156       -0.6008  -15.2894  -45.6738 H         1 UNK         0.0600 
    157 H157        1.1138  -14.9185  -45.6517 H         1 UNK         0.0600 
    158 H158        0.2642  -15.2893  -44.1489 H         1 UNK         0.0600 
    159 H159        2.2741  -16.7196  -44.0405 H         1 UNK         0.3000 
    160 H160        4.0424  -19.8223  -44.0561 H         1 UNK         0.0600 
    161 H161        6.0260  -18.3679  -44.3187 H         1 UNK         0.0600 
    162 H162        5.0188  -17.0445  -44.9077 H         1 UNK         0.0600 
    163 H163        5.1897  -18.5173  -45.8555 H         1 UNK         0.0600 
    164 H164        4.4902  -17.5128  -42.5137 H         1 UNK         0.3000 
    165 H165        3.1364  -18.7344  -39.7205 H         1 UNK         0.0600 
    166 H166        4.2660  -16.5711  -39.2682 H         1 UNK         0.0600 
    167 H167        5.1701  -17.4937  -40.4520 H         1 UNK         0.0600 
    168 H168        4.1791  -16.1254  -40.9650 H         1 UNK         0.0600 
    169 H169        1.3739  -17.4839  -39.2065 H         1 UNK         0.3000 
    170 H170       -0.8809  -15.7473  -40.9258 H         1 UNK         0.0600 
    171 H171        0.1760  -16.1517  -38.0669 H         1 UNK         0.0600 
    172 H172       -1.4781  -15.7620  -38.5153 H         1 UNK         0.0600 
    173 H173       -0.7896  -17.3031  -38.9828 H         1 UNK         0.0600 
    174 H174       -0.3836  -13.6050  -40.7488 H         1 UNK         0.3000 
    175 H175        0.0654  -11.6115  -39.5029 H         1 UNK         0.0600 
    176 H176        2.9120  -11.6115  -38.3643 H         1 UNK         0.0600 
    177 H177        1.8537  -10.2112  -38.5298 H         1 UNK         0.0600 
    178 H178        1.4326  -11.5029  -37.4171 H         1 UNK         0.0600 
    179 H179        2.6831  -11.4306  -40.7623 H         1 UNK         0.3000 
    180 H180        2.7338  -10.7442  -42.9439 H         1 UNK         0.0600 
    181 H181        3.3878  -12.5919  -44.5111 H         1 UNK         0.0600 
    182 H182        2.0633  -13.5826  -43.8961 H         1 UNK         0.0600 
    183 H183        3.3940  -13.1408  -42.8423 H         1 UNK         0.0600 
    184 H184        1.1106  -11.6212  -45.1385 H         1 UNK         0.3000 
    185 H185       -1.1540   -9.0578  -45.3327 H         1 UNK         0.0600 
    186 H186        0.7025   -7.4826  -45.8552 H         1 UNK         0.0600 
    187 H187        1.5058   -8.7165  -46.8182 H         1 UNK         0.0600 
    188 H188       -0.0529   -8.0664  -47.3285 H         1 UNK         0.0600 
    189 H189        0.1201  -10.6522  -47.3796 H         1 UNK         0.3000 
    190 H190       -1.8396  -20.2468  -46.3860 H         1 UNK         0.3000 
    191 H191       -4.0853  -20.7135  -48.0780 H         1 UNK         0.0600 
    192 H192       -3.9153  -18.7646  -46.5432 H         1 UNK         0.0600 
    193 H193       -3.9835  -19.8329  -45.1461 H         1 UNK         0.0600 
    194 H194       -5.3721  -19.6900  -46.2168 H         1 UNK         0.0600 
    195 H195       -3.0051  -22.3203  -45.0554 H         1 UNK         0.3000 
    196 H196       -5.2085  -24.0998  -44.8094 H         1 UNK         0.0600 
    197 H197       -3.7041  -23.5713  -42.9233 H         1 UNK         0.0600 
    198 H198       -2.3418  -24.3239  -43.7487 H         1 UNK         0.0600 
    199 H199       -3.7022  -25.3041  -43.2141 H         1 UNK         0.0600 
    200 H200       -1.9704  -24.5453  -46.3082 H         1 UNK         0.3000 
    201 H201       -2.6006  -27.2027  -47.3610 H         1 UNK         0.0600 
    202 H202       -0.3058  -26.5987  -46.5781 H         1 UNK         0.0600 
    203 H203       -0.2022  -25.3547  -47.8225 H         1 UNK         0.0600 
    204 H204       -0.3090  -27.0517  -48.2761 H         1 UNK         0.0600 
    205 H205       -4.6217  -25.8303  -48.2414 H         1 UNK         0.3000 
    206 H206       -4.4703  -24.1294  -50.3986 H         1 UNK         0.0600 
    207 H207       -6.6944  -26.1182  -49.7105 H         1 UNK         0.0600 
    208 H208       -6.5065  -24.4926  -49.0521 H         1 UNK         0.0600 
    209 H209       -6.8770  -24.7123  -50.7546 H         1 UNK         0.0600 
    210 H210       -4.2104  -27.6302  -50.5198 H         1 UNK         0.3000 
    211 H211       -4.6007  -27.9940  -53.3444 H         1 UNK         0.0600 
    212 H212       -3.1344  -29.7101  -51.2670 H         1 UNK         0.0600 
    213 H213       -3.6072  -30.2381  -52.8773 H         1 UNK         0.0600 
    214 H214       -4.8415  -29.8384  -51.6945 H         1 UNK         0.0600 
    215 H215       -1.9566  -26.6480  -51.5367 H         1 UNK         0.3000 
    216 H216       -0.1227  -26.7982  -53.8863 H         1 UNK         0.0600 
    217 H217        1.7397  -26.9785  -52.2635 H         1 UNK         0.0600 
    218 H218        0.6354  -28.3236  -52.0355 H         1 UNK         0.0600 
    219 H219        0.6096  -26.9643  -50.9126 H         1 UNK         0.0600 
    220 H220       -2.2161  -24.8138  -52.9953 H         1 UNK         0.3000 
    221 H221       -1.0689  -22.5185  -51.8288 H         1 UNK         0.0600 
    222 H222       -3.4736  -22.9322  -53.6792 H         1 UNK         0.0600 
    223 H223       -3.4717  -22.7613  -51.9254 H         1 UNK         0.0600 
    224 H224       -3.0937  -21.3846  -52.9449 H         1 UNK         0.0600 
    225 H225        0.6158  -21.3559  -52.6044 H         1 UNK         0.3000 
    226 H226        1.4780  -21.2864  -55.3106 H         1 UNK         0.0600 
    227 H227        2.9789  -20.8965  -53.3667 H         1 UNK         0.0600 
    228 H228        3.0458  -19.5406  -54.4806 H         1 UNK         0.0600 
    229 H229        2.1343  -19.3975  -52.9843 H         1 UNK         0.0600 
    230 H230       -0.9166  -19.4077  -53.6384 H         1 UNK         0.3000 
    231 H231       -1.1015  -17.2592  -55.6224 H         1 UNK         0.0600 
    232 H232       -2.9761  -16.5116  -54.1639 H         1 UNK         0.0600 
    233 H233       -1.5360  -16.8207  -53.2078 H         1 UNK         0.0600 
    234 H234       -2.8547  -17.9875  -53.2182 H         1 UNK         0.0600 
    235 H235       -2.0139  -20.4891  -55.6642 H         1 UNK         0.3000 
    236 H236       -3.3747  -21.7821  -56.7978 H         1 UNK         0.0600 
    237 H237       -3.7829  -19.4133  -58.6967 H         1 UNK         0.0600 
    238 H238       -2.4315  -20.5445  -58.7496 H         1 UNK         0.0600 
    239 H239       -4.0643  -21.1090  -59.0632 H         1 UNK         0.0600 
    240 H240       -4.5048  -20.8324  -54.5607 H         1 UNK         0.3000 
    241 H241       -7.0804  -19.7186  -54.7662 H         1 UNK         0.0600 
    242 H242       -9.5075  -22.2997  -55.1462 H         1 UNK         0.3800 
    243 H243       -9.2386  -20.6363  -54.7119 H         1 UNK         0.3800 
    244 H244       -5.9849  -21.5535  -52.5752 H         1 UNK         0.0800 
    245 H245       -7.3996  -20.5379  -52.4249 H         1 UNK         0.0800 
    246 H246       -5.6603  -19.7803  -50.0455 H         1 UNK         0.0800 
    247 H247       -4.5223  -20.8544  -50.8197 H         1 UNK         0.0800 
@<TRIPOS>BOND
     1    1    2 1    
     2    1  127 1    
     3    1  128 1    
     4    1  129 1    
     5    2    3 2    
     6    2    4 am   BACKBONE|DICT|INTERRES
     7    4    5 1    
     8    4  130 1    
     9    5    6 1    
    10    5   65 1    
    11    5  131 1    
    12    6    7 1    
    13    6  132 1    
    14    6  133 1    
    15    7    8 1    
    16    8    9 1    
    17    8  134 1    
    18    8  135 1    
    19    9   10 ar   
    20    9   14 ar   
    21   10   11 ar   
    22   10  136 1    
    23   11   12 ar   
    24   11  126 1    
    25   12   13 ar   
    26   12  137 1    
    27   13   14 ar   
    28   13   15 1    
    29   14  138 1    
    30   15   16 1    
    31   15  139 1    
    32   15  140 1    
    33   16   17 1    
    34   17   18 1    
    35   17  141 1    
    36   17  142 1    
    37   18   19 1    
    38   18   67 1    
    39   18  143 1    
    40   19   20 am   BACKBONE|DICT|INTERRES
    41   19  144 1    
    42   20   21 2    
    43   20   22 1    
    44   22   23 1    
    45   22   24 1    
    46   22  145 1    
    47   23  146 1    
    48   23  147 1    
    49   23  148 1    
    50   24   25 am   BACKBONE|DICT|INTERRES
    51   24  149 1    
    52   25   26 2    
    53   25   27 1    
    54   27   28 1    
    55   27   29 1    
    56   27  150 1    
    57   28  151 1    
    58   28  152 1    
    59   28  153 1    
    60   29   30 am   BACKBONE|DICT|INTERRES
    61   29  154 1    
    62   30   31 2    
    63   30   32 1    
    64   32   33 1    
    65   32   34 1    
    66   32  155 1    
    67   33  156 1    
    68   33  157 1    
    69   33  158 1    
    70   34   35 am   BACKBONE|DICT|INTERRES
    71   34  159 1    
    72   35   36 2    
    73   35   37 1    
    74   37   38 1    
    75   37   39 1    
    76   37  160 1    
    77   38  161 1    
    78   38  162 1    
    79   38  163 1    
    80   39   40 am   BACKBONE|DICT|INTERRES
    81   39  164 1    
    82   40   41 2    
    83   40   42 1    
    84   42   43 1    
    85   42   44 1    
    86   42  165 1    
    87   43  166 1    
    88   43  167 1    
    89   43  168 1    
    90   44   45 am   BACKBONE|DICT|INTERRES
    91   44  169 1    
    92   45   46 2    
    93   45   47 1    
    94   47   48 1    
    95   47   49 1    
    96   47  170 1    
    97   48  171 1    
    98   48  172 1    
    99   48  173 1    
   100   49   50 am   BACKBONE|DICT|INTERRES
   101   49  174 1    
   102   50   51 2    
   103   50   52 1    
   104   52   53 1    
   105   52   54 1    
   106   52  175 1    
   107   53  176 1    
   108   53  177 1    
   109   53  178 1    
   110   54   55 am   BACKBONE|DICT|INTERRES
   111   54  179 1    
   112   55   56 2    
   113   55   57 1    
   114   57   58 1    
   115   57   59 1    
   116   57  180 1    
   117   58  181 1    
   118   58  182 1    
   119   58  183 1    
   120   59   60 am   BACKBONE|DICT|INTERRES
   121   59  184 1    
   122   60   61 2    
   123   60   62 1    
   124   62   63 1    
   125   62   64 1    
   126   62  185 1    
   127   63  186 1    
   128   63  187 1    
   129   63  188 1    
   130   64   65 am   BACKBONE|DICT|INTERRES
   131   64  189 1    
   132   65   66 2    
   133   67   68 2    
   134   67   69 am   BACKBONE|DICT|INTERRES
   135   69   70 1    
   136   69  190 1    
   137   70   71 1    
   138   70   72 1    
   139   70  191 1    
   140   71  192 1    
   141   71  193 1    
   142   71  194 1    
   143   72   73 2    
   144   72   74 am   BACKBONE|DICT|INTERRES
   145   74   75 1    
   146   74  195 1    
   147   75   76 1    
   148   75   77 1    
   149   75  196 1    
   150   76  197 1    
   151   76  198 1    
   152   76  199 1    
   153   77   78 2    
   154   77   79 am   BACKBONE|DICT|INTERRES
   155   79   80 1    
   156   79  200 1    
   157   80   81 1    
   158   80   82 1    
   159   80  201 1    
   160   81  202 1    
   161   81  203 1    
   162   81  204 1    
   163   82   83 2    
   164   82   84 am   BACKBONE|DICT|INTERRES
   165   84   85 1    
   166   84  205 1    
   167   85   86 1    
   168   85   87 1    
   169   85  206 1    
   170   86  207 1    
   171   86  208 1    
   172   86  209 1    
   173   87   88 2    
   174   87   89 am   BACKBONE|DICT|INTERRES
   175   89   90 1    
   176   89  210 1    
   177   90   91 1    
   178   90   92 1    
   179   90  211 1    
   180   91  212 1    
   181   91  213 1    
   182   91  214 1    
   183   92   93 2    
   184   92   94 am   BACKBONE|DICT|INTERRES
   185   94   95 1    
   186   94  215 1    
   187   95   96 1    
   188   95   97 1    
   189   95  216 1    
   190   96  217 1    
   191   96  218 1    
   192   96  219 1    
   193   97   98 2    
   194   97   99 am   BACKBONE|DICT|INTERRES
   195   99  100 1    
   196   99  220 1    
   197  100  101 1    
   198  100  102 1    
   199  100  221 1    
   200  101  222 1    
   201  101  223 1    
   202  101  224 1    
   203  102  103 2    
   204  102  104 am   BACKBONE|DICT|INTERRES
   205  104  105 1    
   206  104  225 1    
   207  105  106 1    
   208  105  107 1    
   209  105  226 1    
   210  106  227 1    
   211  106  228 1    
   212  106  229 1    
   213  107  108 2    
   214  107  109 am   BACKBONE|DICT|INTERRES
   215  109  110 1    
   216  109  230 1    
   217  110  111 1    
   218  110  112 1    
   219  110  231 1    
   220  111  232 1    
   221  111  233 1    
   222  111  234 1    
   223  112  113 2    
   224  112  114 am   BACKBONE|DICT|INTERRES
   225  114  115 1    
   226  114  235 1    
   227  115  116 1    
   228  115  117 1    
   229  115  236 1    
   230  116  237 1    
   231  116  238 1    
   232  116  239 1    
   233  117  118 2    
   234  117  119 am   BACKBONE|DICT|INTERRES
   235  119  120 1    
   236  119  240 1    
   237  120  121 1    
   238  120  124 1    
   239  120  241 1    
   240  121  122 am   BACKBONE|DICT|INTERRES
   241  121  123 2    
   242  122  242 1    
   243  122  243 1    
   244  124  125 1    
   245  124  244 1    
   246  124  245 1    
   247  125  126 1    
   248  126  246 1    
   249  126  247 1    
@<TRIPOS>SUBSTRUCTURE
     1 UNK         1 GROUP             0       ****    0 ROOT    
