@<TRIPOS>MOLECULE
3R540
247   249    1
SMALL
USER_CHARGES


@<TRIPOS>ATOM
      1 CA          2.7915  -14.6250  -47.3185 C.3       0 UNK        -0.1800 
      2 C           1.4769  -14.6904  -48.0816 C.2       0 UNK         0.5000 
      3 O           0.9499  -13.6536  -48.4814 O.2       0 UNK        -0.5000 
      4 N           0.9385  -15.9021  -48.2745 N.am      1 UNK        -0.5000 
      5 CA         -0.2719  -16.2405  -49.0440 C.3       1 UNK         0.1400 
      6 C6         -0.2203  -15.7343  -50.5129 C.3       23 UNK        -0.0398 
      7 S7         -1.0475  -16.8588  -51.6926 S.3       23 UNK        -0.2404 
      8 C8          0.3184  -17.3071  -52.8135 C.3       23 UNK        -0.0205 
      9 C9          1.1387  -18.4741  -52.2839 C.ar      23 UNK        -0.0193 
     10 C10         0.8564  -19.7730  -52.7101 C.ar      23 UNK        -0.1150 
     11 C11         1.6111  -20.8577  -52.2550 C.ar      23 UNK        -0.0193 
     12 C12         2.6590  -20.6345  -51.3558 C.ar      23 UNK        -0.1150 
     13 C13         2.9475  -19.3388  -50.9129 C.ar      23 UNK        -0.0193 
     14 C14         2.1903  -18.2630  -51.3892 C.ar      23 UNK        -0.1150 
     15 C15         4.0701  -19.0870  -49.9128 C.3       23 UNK        -0.0205 
     16 S16         3.7879  -19.8581  -48.2808 S.3       23 UNK        -0.2404 
     17 C17         2.0631  -19.4066  -47.8884 C.3       23 UNK        -0.0398 
     18 CA          1.2207  -20.6675  -47.5785 C.3       11 UNK         0.1400 
     19 N           1.3315  -21.0696  -46.1744 N.am      11 UNK        -0.5000 
     20 C           0.8483  -22.2098  -45.6630 C.2       10 UNK         0.5000 
     21 O           0.3203  -23.0932  -46.3383 O.2       10 UNK        -0.5000 
     22 CA          0.9053  -22.3557  -44.1310 C.3       10 UNK         0.1400 
     23 CB          2.3065  -22.7783  -43.6655 C.3       10 UNK        -0.1800 
     24 N           0.5008  -21.1257  -43.4462 N.am      10 UNK        -0.5000 
     25 C          -0.7284  -20.5936  -43.5224 C.2       9 UNK         0.5000 
     26 O          -1.6666  -21.1341  -44.1077 O.2       9 UNK        -0.5000 
     27 CA         -0.9344  -19.2067  -42.8868 C.3       9 UNK         0.1400 
     28 CB         -1.1937  -19.3260  -41.3781 C.3       9 UNK        -0.1800 
     29 N           0.1976  -18.3117  -43.1174 N.am      9 UNK        -0.5000 
     30 C           0.5857  -17.8491  -44.3122 C.2       8 UNK         0.5000 
     31 O          -0.0022  -18.0814  -45.3654 O.2       8 UNK        -0.5000 
     32 CA          1.8854  -17.0326  -44.3531 C.3       8 UNK         0.1400 
     33 CB          1.6224  -15.5649  -44.0075 C.3       8 UNK        -0.1800 
     34 N           2.9134  -17.5825  -43.4734 N.am      8 UNK        -0.5000 
     35 C           3.5371  -18.7489  -43.6889 C.2       7 UNK         0.5000 
     36 O           3.3224  -19.4659  -44.6657 O.2       7 UNK        -0.5000 
     37 CA          4.5356  -19.2058  -42.6106 C.3       7 UNK         0.1400 
     38 CB          5.9097  -18.5580  -42.8359 C.3       7 UNK        -0.1800 
     39 N           4.0695  -18.9011  -41.2568 N.am      7 UNK        -0.5000 
     40 C           3.0188  -19.4941  -40.6732 C.2       6 UNK         0.5000 
     41 O           2.3567  -20.3873  -41.2023 O.2       6 UNK        -0.5000 
     42 CA          2.6100  -18.9596  -39.2872 C.3       6 UNK         0.1400 
     43 CB          3.4737  -19.5924  -38.1858 C.3       6 UNK        -0.1800 
     44 N           2.6691  -17.4966  -39.1760 N.am      6 UNK        -0.5000 
     45 C           1.9569  -16.6518  -39.9336 C.2       5 UNK         0.5000 
     46 O           1.2411  -17.0182  -40.8652 O.2       5 UNK        -0.5000 
     47 CA          2.0952  -15.1475  -39.6324 C.3       5 UNK         0.1400 
     48 CB          3.2597  -14.5481  -40.4360 C.3       5 UNK        -0.1800 
     49 N           0.8697  -14.4090  -39.9514 N.am      5 UNK        -0.5000 
     50 C          -0.3068  -14.5778  -39.3309 C.2       4 UNK         0.5000 
     51 O          -0.4622  -15.3266  -38.3644 O.2       4 UNK        -0.5000 
     52 CA         -1.5129  -13.7628  -39.8413 C.3       4 UNK         0.1400 
     53 CB         -1.8886  -12.6717  -38.8253 C.3       4 UNK        -0.1800 
     54 N          -1.3208  -13.1302  -41.1503 N.am      4 UNK        -0.5000 
     55 C          -1.3954  -13.7637  -42.3272 C.2       3 UNK         0.5000 
     56 O          -1.5315  -14.9838  -42.4467 O.2       3 UNK        -0.5000 
     57 CA         -1.3346  -12.8731  -43.5785 C.3       3 UNK         0.1400 
     58 CB          0.0525  -12.2318  -43.7774 C.3       3 UNK        -0.1800 
     59 N          -1.7180  -13.6623  -44.7481 N.am      3 UNK        -0.5000 
     60 C          -2.2717  -13.1650  -45.8585 C.2       2 UNK         0.5000 
     61 O          -2.3878  -11.9576  -46.0774 O.2       2 UNK        -0.5000 
     62 CA         -2.7577  -14.1868  -46.8986 C.3       2 UNK         0.1400 
     63 CB         -3.7607  -13.5750  -47.9002 C.3       2 UNK        -0.1800 
     64 N          -1.6024  -14.7316  -47.6032 N.am      2 UNK        -0.5000 
     65 C          -1.5976  -15.8372  -48.3565 C.2       1 UNK         0.5000 
     66 O          -2.5916  -16.5419  -48.5224 O.2       1 UNK        -0.5000 
     67 C          -0.2476  -20.4995  -48.0195 C.2       11 UNK         0.5000 
     68 O          -0.5990  -20.9830  -49.0910 O.2       11 UNK        -0.5000 
     69 N          -1.0894  -19.8725  -47.1857 N.am      12 UNK        -0.5000 
     70 CA         -2.5279  -19.7162  -47.4173 C.3       12 UNK         0.1400 
     71 CB         -3.1508  -18.8443  -46.3156 C.3       12 UNK        -0.1800 
     72 C          -3.2646  -21.0627  -47.5104 C.2       12 UNK         0.5000 
     73 O          -4.1037  -21.2322  -48.3959 O.2       12 UNK        -0.5000 
     74 N          -2.9174  -22.0014  -46.6190 N.am      13 UNK        -0.5000 
     75 CA         -3.4215  -23.3737  -46.6183 C.3       13 UNK         0.1400 
     76 CB         -2.9860  -24.0868  -45.3296 C.3       13 UNK        -0.1800 
     77 C          -2.9799  -24.1588  -47.8664 C.2       13 UNK         0.5000 
     78 O          -3.8154  -24.8106  -48.4946 O.2       13 UNK        -0.5000 
     79 N          -1.6945  -24.0408  -48.2351 N.am      14 UNK        -0.5000 
     80 CA         -1.1219  -24.6103  -49.4594 C.3       14 UNK         0.1400 
     81 CB          0.3988  -24.3936  -49.4761 C.3       14 UNK        -0.1800 
     82 C          -1.7634  -24.0381  -50.7367 C.2       14 UNK         0.5000 
     83 O          -1.9899  -24.7830  -51.6890 O.2       14 UNK        -0.5000 
     84 N          -2.0952  -22.7420  -50.7066 N.am      15 UNK        -0.5000 
     85 CA         -2.8242  -21.9963  -51.7314 C.3       15 UNK         0.1400 
     86 CB         -2.5371  -20.4965  -51.5485 C.3       15 UNK        -0.1800 
     87 C          -4.3436  -22.2644  -51.7431 C.2       15 UNK         0.5000 
     88 O          -5.0742  -21.4662  -52.3263 O.2       15 UNK        -0.5000 
     89 N          -4.8064  -23.3420  -51.0914 N.am      16 UNK        -0.5000 
     90 CA         -6.1941  -23.8115  -51.0344 C.3       16 UNK         0.1400 
     91 CB         -6.6506  -24.3095  -52.4220 C.3       16 UNK        -0.1800 
     92 C          -7.1510  -22.7716  -50.4162 C.2       16 UNK         0.5000 
     93 O          -8.2008  -22.4741  -50.9886 O.2       16 UNK        -0.5000 
     94 N          -6.7465  -22.2386  -49.2548 N.am      17 UNK        -0.5000 
     95 CA         -7.3952  -21.1701  -48.4897 C.3       17 UNK         0.1400 
     96 CB         -8.8272  -21.5542  -48.0590 C.3       17 UNK        -0.1800 
     97 C          -7.3045  -19.8177  -49.2226 C.2       17 UNK         0.5000 
     98 O          -8.3173  -19.1458  -49.4266 O.2       17 UNK        -0.5000 
     99 N          -6.0664  -19.4529  -49.5863 N.am      18 UNK        -0.5000 
    100 CA        -5.6578  -18.1906  -50.2117 C.3       18 UNK         0.1400 
    101 CB        -5.8620  -17.0125  -49.2365 C.3       18 UNK        -0.1800 
    102 C         -6.2966  -17.9425  -51.5966 C.2       18 UNK         0.5000 
    103 O         -6.6463  -16.8072  -51.9236 O.2       18 UNK        -0.5000 
    104 N         -6.4044  -19.0035  -52.4068 N.am      19 UNK        -0.5000 
    105 CA        -6.8630  -18.9650  -53.7989 C.3       19 UNK         0.1400 
    106 CB        -7.6470  -20.2541  -54.0998 C.3       19 UNK        -0.1800 
    107 C         -5.6946  -18.7763  -54.7924 C.2       19 UNK         0.5000 
    108 O         -5.9047  -18.8754  -56.0019 O.2       19 UNK        -0.5000 
    109 N         -4.4851  -18.5273  -54.2689 N.am      20 UNK        -0.5000 
    110 CA        -3.1998  -18.2681  -54.9315 C.3       20 UNK         0.1400 
    111 CB        -3.2787  -17.0414  -55.8588 C.3       20 UNK        -0.1800 
    112 C         -2.5761  -19.4772  -55.6552 C.2       20 UNK         0.5000 
    113 O         -1.3545  -19.6221  -55.6251 O.2       20 UNK        -0.5000 
    114 N         -3.3993  -20.3239  -56.2823 N.am      21 UNK        -0.5000 
    115 CA        -2.9873  -21.5702  -56.9230 C.3       21 UNK         0.1400 
    116 CB        -4.1202  -22.0620  -57.8379 C.3       21 UNK        -0.1800 
    117 C         -2.6286  -22.6260  -55.8624 C.2       21 UNK         0.5000 
    118 O         -3.5013  -23.0235  -55.0886 O.2       21 UNK        -0.5000 
    119 N         -1.3571  -23.0409  -55.8308 N.am      22 UNK        -0.5000 
    120 CA        -0.8349  -24.0394  -54.8863 C.3       22 UNK         0.1400 
    121 C         -1.3931  -25.4619  -55.1627 C.2       22 UNK         0.5000 
    122 N         -1.8808  -26.1528  -54.1430 N.am      22 UNK        -0.7600 
    123 O         -1.3477  -25.9550  -56.2876 O.2       22 UNK        -0.5000 
    124 C124        0.7152  -24.0628  -54.8364 C.3       23 UNK        -0.0398 
    125 S125        1.4626  -22.4259  -54.5314 S.3       23 UNK        -0.2404 
    126 C126        1.2698  -22.2638  -52.7270 C.3       23 UNK        -0.0205 
    127 H127        3.1637  -15.6156  -47.0583 H         1 UNK         0.0600 
    128 H128        2.6653  -14.0503  -46.4014 H         1 UNK         0.0600 
    129 H129        3.5495  -14.1308  -47.9261 H         1 UNK         0.0600 
    130 H130        1.4056  -16.6960  -47.8656 H         1 UNK         0.3000 
    131 H131       -0.2730  -17.3316  -49.0672 H         1 UNK         0.0600 
    132 H132        0.8151  -15.6075  -50.8271 H         1 UNK         0.0800 
    133 H133       -0.6622  -14.7404  -50.6063 H         1 UNK         0.0800 
    134 H134       -0.1039  -17.5703  -53.7844 H         1 UNK         0.0800 
    135 H135        0.9593  -16.4438  -52.9972 H         1 UNK         0.0800 
    136 H136        0.0458  -19.9449  -53.4042 H         1 UNK         0.1150 
    137 H137        3.2430  -21.4665  -50.9882 H         1 UNK         0.1150 
    138 H138        2.4175  -17.2601  -51.0583 H         1 UNK         0.1150 
    139 H139        5.0047  -19.4694  -50.3251 H         1 UNK         0.0800 
    140 H140        4.2203  -18.0163  -49.7656 H         1 UNK         0.0800 
    141 H141        1.6402  -18.8395  -48.7160 H         1 UNK         0.0800 
    142 H142        2.0666  -18.7236  -47.0407 H         1 UNK         0.0800 
    143 H143        1.6095  -21.4951  -48.1758 H         1 UNK         0.0600 
    144 H144        1.8125  -20.4240  -45.5561 H         1 UNK         0.3000 
    145 H145        0.2036  -23.1425  -43.8464 H         1 UNK         0.0600 
    146 H146        2.3304  -22.9412  -42.5878 H         1 UNK         0.0600 
    147 H147        2.6105  -23.7105  -44.1429 H         1 UNK         0.0600 
    148 H148        3.0581  -22.0267  -43.9056 H         1 UNK         0.0600 
    149 H149        1.2076  -20.6534  -42.8927 H         1 UNK         0.3000 
    150 H150       -1.8143  -18.7538  -43.3475 H         1 UNK         0.0600 
    151 H151       -2.0563  -19.9630  -41.1789 H         1 UNK         0.0600 
    152 H152       -1.3987  -18.3500  -40.9371 H         1 UNK         0.0600 
    153 H153       -0.3387  -19.7549  -40.8550 H         1 UNK         0.0600 
    154 H154        0.6991  -17.9918  -42.2908 H         1 UNK         0.3000 
    155 H155        2.2682  -17.0685  -45.3735 H         1 UNK         0.0600 
    156 H156        0.9046  -15.1371  -44.7080 H         1 UNK         0.0600 
    157 H157        1.2107  -15.4505  -43.0051 H         1 UNK         0.0600 
    158 H158        2.5352  -14.9726  -44.0677 H         1 UNK         0.0600 
    159 H159        3.0946  -17.0851  -42.6150 H         1 UNK         0.3000 
    160 H160        4.6494  -20.2884  -42.6987 H         1 UNK         0.0600 
    161 H161        5.8666  -17.4726  -42.7378 H         1 UNK         0.0600 
    162 H162        6.2871  -18.7829  -43.8345 H         1 UNK         0.0600 
    163 H163        6.6432  -18.9313  -42.1210 H         1 UNK         0.0600 
    164 H164        4.5572  -18.1749  -40.7532 H         1 UNK         0.3000 
    165 H165        1.5735  -19.2587  -39.1173 H         1 UNK         0.0600 
    166 H166        3.1239  -19.3024  -37.1948 H         1 UNK         0.0600 
    167 H167        3.4345  -20.6814  -38.2363 H         1 UNK         0.0600 
    168 H168        4.5200  -19.2970  -38.2729 H         1 UNK         0.0600 
    169 H169        3.2495  -17.1247  -38.4379 H         1 UNK         0.3000 
    170 H170        2.3003  -15.0221  -38.5673 H         1 UNK         0.0600 
    171 H171        3.0945  -14.6296  -41.5106 H         1 UNK         0.0600 
    172 H172        3.3999  -13.4934  -40.1987 H         1 UNK         0.0600 
    173 H173        4.1973  -15.0571  -40.2087 H         1 UNK         0.0600 
    174 H174        0.9025  -13.7913  -40.7474 H         1 UNK         0.3000 
    175 H175       -2.3540  -14.4554  -39.9171 H         1 UNK         0.0600 
    176 H176       -2.7911  -12.1415  -39.1304 H         1 UNK         0.0600 
    177 H177       -1.0897  -11.9382  -38.7092 H         1 UNK         0.0600 
    178 H178       -2.0850  -13.1009  -37.8418 H         1 UNK         0.0600 
    179 H179       -1.1998  -12.1274  -41.1431 H         1 UNK         0.3000 
    180 H180       -2.0713  -12.0788  -43.4390 H         1 UNK         0.0600 
    181 H181        0.0756  -11.6089  -44.6716 H         1 UNK         0.0600 
    182 H182        0.8412  -12.9742  -43.8724 H         1 UNK         0.0600 
    183 H183        0.3125  -11.5894  -42.9357 H         1 UNK         0.0600 
    184 H184       -1.6828  -14.6636  -44.5988 H         1 UNK         0.3000 
    185 H185       -3.2573  -14.9952  -46.3602 H         1 UNK         0.0600 
    186 H186       -4.6000  -13.1127  -47.3794 H         1 UNK         0.0600 
    187 H187       -3.2932  -12.8088  -48.5197 H         1 UNK         0.0600 
    188 H188       -4.1751  -14.3318  -48.5649 H         1 UNK         0.0600 
    189 H189       -0.7503  -14.1813  -47.5617 H         1 UNK         0.3000 
    190 H190       -0.7147  -19.4281  -46.3506 H         1 UNK         0.3000 
    191 H191       -2.6511  -19.2024  -48.3721 H         1 UNK         0.0600 
    192 H192       -2.6236  -17.8970  -46.2081 H         1 UNK         0.0600 
    193 H193       -4.1901  -18.6121  -46.5503 H         1 UNK         0.0600 
    194 H194       -3.1398  -19.3411  -45.3466 H         1 UNK         0.0600 
    195 H195       -2.2586  -21.7554  -45.8858 H         1 UNK         0.3000 
    196 H196       -4.5125  -23.3267  -46.6247 H         1 UNK         0.0600 
    197 H197       -3.3768  -25.1044  -45.2955 H         1 UNK         0.0600 
    198 H198       -3.3573  -23.5650  -44.4474 H         1 UNK         0.0600 
    199 H199       -1.9010  -24.1485  -45.2467 H         1 UNK         0.0600 
    200 H200       -1.0606  -23.5161  -47.6382 H         1 UNK         0.3000 
    201 H201       -1.3131  -25.6851  -49.4450 H         1 UNK         0.0600 
    202 H202        0.8699  -24.8309  -48.5957 H         1 UNK         0.0600 
    203 H203        0.6561  -23.3349  -49.5020 H         1 UNK         0.0600 
    204 H204        0.8491  -24.8604  -50.3530 H         1 UNK         0.0600 
    205 H205       -1.7917  -22.1941  -49.9052 H         1 UNK         0.3000 
    206 H206       -2.4405  -22.2894  -52.7074 H         1 UNK         0.0600 
    207 H207       -2.9241  -19.9147  -52.3830 H         1 UNK         0.0600 
    208 H208       -2.9883  -20.1106  -50.6356 H         1 UNK         0.0600 
    209 H209       -1.4692  -20.3006  -51.4915 H         1 UNK         0.0600 
    210 H210       -4.1379  -23.9079  -50.5850 H         1 UNK         0.3000 
    211 H211       -6.1984  -24.6693  -50.3605 H         1 UNK         0.0600 
    212 H212       -6.7024  -23.4975  -53.1480 H         1 UNK         0.0600 
    213 H213       -7.6404  -24.7641  -52.3682 H         1 UNK         0.0600 
    214 H214       -5.9674  -25.0632  -52.8137 H         1 UNK         0.0600 
    215 H215       -5.8206  -22.4876  -48.9278 H         1 UNK         0.3000 
    216 H216       -6.8092  -21.0582  -47.5761 H         1 UNK         0.0600 
    217 H217       -9.2338  -20.8134  -47.3698 H         1 UNK         0.0600 
    218 H218       -8.8403  -22.5160  -47.5464 H         1 UNK         0.0600 
    219 H219       -9.5108  -21.6149  -48.9059 H         1 UNK         0.0600 
    220 H220       -5.3143  -20.0984  -49.3601 H         1 UNK         0.3000 
    221 H221       -4.5848  -18.2747  -50.3884 H         1 UNK         0.0600 
    222 H222       -6.9174  -16.8260  -49.0370 H         1 UNK         0.0600 
    223 H223       -5.3659  -17.1980  -48.2841 H         1 UNK         0.0600 
    224 H224       -5.4382  -16.0943  -49.6437 H         1 UNK         0.0600 
    225 H225       -6.0540  -19.9089  -52.0982 H         1 UNK         0.3000 
    226 H226       -7.5429  -18.1220  -53.9358 H         1 UNK         0.0600 
    227 H227       -8.4416  -20.4132  -53.3704 H         1 UNK         0.0600 
    228 H228       -8.1139  -20.2077  -55.0842 H         1 UNK         0.0600 
    229 H229       -7.0017  -21.1326  -54.0866 H         1 UNK         0.0600 
    230 H230       -4.4456  -18.5207  -53.2611 H         1 UNK         0.3000 
    231 H231       -2.5135  -18.0143  -54.1234 H         1 UNK         0.0600 
    232 H232       -3.9314  -17.2169  -56.7141 H         1 UNK         0.0600 
    233 H233       -2.2926  -16.7880  -56.2499 H         1 UNK         0.0600 
    234 H234       -3.6505  -16.1670  -55.3246 H         1 UNK         0.0600 
    235 H235       -4.3919  -20.1164  -56.2638 H         1 UNK         0.3000 
    236 H236       -2.1118  -21.3712  -57.5448 H         1 UNK         0.0600 
    237 H237       -4.3404  -21.3335  -58.6185 H         1 UNK         0.0600 
    238 H238       -3.8453  -22.9954  -58.3306 H         1 UNK         0.0600 
    239 H239       -5.0399  -22.2426  -57.2799 H         1 UNK         0.0600 
    240 H240       -0.6904  -22.6562  -56.4836 H         1 UNK         0.3000 
    241 H241       -1.1763  -23.7366  -53.8985 H         1 UNK         0.0600 
    242 H242       -1.9433  -25.7342  -53.2150 H         1 UNK         0.3800 
    243 H243       -2.2366  -27.0828  -54.2956 H         1 UNK         0.3800 
    244 H244        1.0611  -24.7520  -54.0638 H         1 UNK         0.0800 
    245 H245        1.1172  -24.4385  -55.7789 H         1 UNK         0.0800 
    246 H246        1.8937  -23.0066  -52.2277 H         1 UNK         0.0800 
    247 H247        0.2392  -22.4791  -52.4466 H         1 UNK         0.0800 
@<TRIPOS>BOND
     1    1    2 1    
     2    1  127 1    
     3    1  128 1    
     4    1  129 1    
     5    2    3 2    
     6    2    4 am   BACKBONE|DICT|INTERRES
     7    4    5 1    
     8    4  130 1    
     9    5    6 1    
    10    5   65 1    
    11    5  131 1    
    12    6    7 1    
    13    6  132 1    
    14    6  133 1    
    15    7    8 1    
    16    8    9 1    
    17    8  134 1    
    18    8  135 1    
    19    9   10 ar   
    20    9   14 ar   
    21   10   11 ar   
    22   10  136 1    
    23   11   12 ar   
    24   11  126 1    
    25   12   13 ar   
    26   12  137 1    
    27   13   14 ar   
    28   13   15 1    
    29   14  138 1    
    30   15   16 1    
    31   15  139 1    
    32   15  140 1    
    33   16   17 1    
    34   17   18 1    
    35   17  141 1    
    36   17  142 1    
    37   18   19 1    
    38   18   67 1    
    39   18  143 1    
    40   19   20 am   BACKBONE|DICT|INTERRES
    41   19  144 1    
    42   20   21 2    
    43   20   22 1    
    44   22   23 1    
    45   22   24 1    
    46   22  145 1    
    47   23  146 1    
    48   23  147 1    
    49   23  148 1    
    50   24   25 am   BACKBONE|DICT|INTERRES
    51   24  149 1    
    52   25   26 2    
    53   25   27 1    
    54   27   28 1    
    55   27   29 1    
    56   27  150 1    
    57   28  151 1    
    58   28  152 1    
    59   28  153 1    
    60   29   30 am   BACKBONE|DICT|INTERRES
    61   29  154 1    
    62   30   31 2    
    63   30   32 1    
    64   32   33 1    
    65   32   34 1    
    66   32  155 1    
    67   33  156 1    
    68   33  157 1    
    69   33  158 1    
    70   34   35 am   BACKBONE|DICT|INTERRES
    71   34  159 1    
    72   35   36 2    
    73   35   37 1    
    74   37   38 1    
    75   37   39 1    
    76   37  160 1    
    77   38  161 1    
    78   38  162 1    
    79   38  163 1    
    80   39   40 am   BACKBONE|DICT|INTERRES
    81   39  164 1    
    82   40   41 2    
    83   40   42 1    
    84   42   43 1    
    85   42   44 1    
    86   42  165 1    
    87   43  166 1    
    88   43  167 1    
    89   43  168 1    
    90   44   45 am   BACKBONE|DICT|INTERRES
    91   44  169 1    
    92   45   46 2    
    93   45   47 1    
    94   47   48 1    
    95   47   49 1    
    96   47  170 1    
    97   48  171 1    
    98   48  172 1    
    99   48  173 1    
   100   49   50 am   BACKBONE|DICT|INTERRES
   101   49  174 1    
   102   50   51 2    
   103   50   52 1    
   104   52   53 1    
   105   52   54 1    
   106   52  175 1    
   107   53  176 1    
   108   53  177 1    
   109   53  178 1    
   110   54   55 am   BACKBONE|DICT|INTERRES
   111   54  179 1    
   112   55   56 2    
   113   55   57 1    
   114   57   58 1    
   115   57   59 1    
   116   57  180 1    
   117   58  181 1    
   118   58  182 1    
   119   58  183 1    
   120   59   60 am   BACKBONE|DICT|INTERRES
   121   59  184 1    
   122   60   61 2    
   123   60   62 1    
   124   62   63 1    
   125   62   64 1    
   126   62  185 1    
   127   63  186 1    
   128   63  187 1    
   129   63  188 1    
   130   64   65 am   BACKBONE|DICT|INTERRES
   131   64  189 1    
   132   65   66 2    
   133   67   68 2    
   134   67   69 am   BACKBONE|DICT|INTERRES
   135   69   70 1    
   136   69  190 1    
   137   70   71 1    
   138   70   72 1    
   139   70  191 1    
   140   71  192 1    
   141   71  193 1    
   142   71  194 1    
   143   72   73 2    
   144   72   74 am   BACKBONE|DICT|INTERRES
   145   74   75 1    
   146   74  195 1    
   147   75   76 1    
   148   75   77 1    
   149   75  196 1    
   150   76  197 1    
   151   76  198 1    
   152   76  199 1    
   153   77   78 2    
   154   77   79 am   BACKBONE|DICT|INTERRES
   155   79   80 1    
   156   79  200 1    
   157   80   81 1    
   158   80   82 1    
   159   80  201 1    
   160   81  202 1    
   161   81  203 1    
   162   81  204 1    
   163   82   83 2    
   164   82   84 am   BACKBONE|DICT|INTERRES
   165   84   85 1    
   166   84  205 1    
   167   85   86 1    
   168   85   87 1    
   169   85  206 1    
   170   86  207 1    
   171   86  208 1    
   172   86  209 1    
   173   87   88 2    
   174   87   89 am   BACKBONE|DICT|INTERRES
   175   89   90 1    
   176   89  210 1    
   177   90   91 1    
   178   90   92 1    
   179   90  211 1    
   180   91  212 1    
   181   91  213 1    
   182   91  214 1    
   183   92   93 2    
   184   92   94 am   BACKBONE|DICT|INTERRES
   185   94   95 1    
   186   94  215 1    
   187   95   96 1    
   188   95   97 1    
   189   95  216 1    
   190   96  217 1    
   191   96  218 1    
   192   96  219 1    
   193   97   98 2    
   194   97   99 am   BACKBONE|DICT|INTERRES
   195   99  100 1    
   196   99  220 1    
   197  100  101 1    
   198  100  102 1    
   199  100  221 1    
   200  101  222 1    
   201  101  223 1    
   202  101  224 1    
   203  102  103 2    
   204  102  104 am   BACKBONE|DICT|INTERRES
   205  104  105 1    
   206  104  225 1    
   207  105  106 1    
   208  105  107 1    
   209  105  226 1    
   210  106  227 1    
   211  106  228 1    
   212  106  229 1    
   213  107  108 2    
   214  107  109 am   BACKBONE|DICT|INTERRES
   215  109  110 1    
   216  109  230 1    
   217  110  111 1    
   218  110  112 1    
   219  110  231 1    
   220  111  232 1    
   221  111  233 1    
   222  111  234 1    
   223  112  113 2    
   224  112  114 am   BACKBONE|DICT|INTERRES
   225  114  115 1    
   226  114  235 1    
   227  115  116 1    
   228  115  117 1    
   229  115  236 1    
   230  116  237 1    
   231  116  238 1    
   232  116  239 1    
   233  117  118 2    
   234  117  119 am   BACKBONE|DICT|INTERRES
   235  119  120 1    
   236  119  240 1    
   237  120  121 1    
   238  120  124 1    
   239  120  241 1    
   240  121  122 am   BACKBONE|DICT|INTERRES
   241  121  123 2    
   242  122  242 1    
   243  122  243 1    
   244  124  125 1    
   245  124  244 1    
   246  124  245 1    
   247  125  126 1    
   248  126  246 1    
   249  126  247 1    
@<TRIPOS>SUBSTRUCTURE
     1 UNK         1 GROUP             0       ****    0 ROOT    
