@<TRIPOS>MOLECULE
3R540
247   249    1
SMALL
USER_CHARGES


@<TRIPOS>ATOM
      1 CA          0.1588  -10.4045  -49.5912 C.3       0 UNK        -0.1800 
      2 C           0.5525  -11.8678  -49.4488 C.2       0 UNK         0.5000 
      3 O           1.6887  -12.2312  -49.7569 O.2       0 UNK        -0.5000 
      4 N          -0.3792  -12.7101  -48.9870 N.am      1 UNK        -0.5000 
      5 CA         -0.1815  -14.1432  -48.7504 C.3       1 UNK         0.1400 
      6 C6         -1.5143  -14.9369  -48.7807 C.3       23 UNK        -0.0398 
      7 S7         -2.4672  -14.7075  -50.3218 S.3       23 UNK        -0.2404 
      8 C8         -1.5386  -15.7249  -51.5142 C.3       23 UNK        -0.0205 
      9 C9         -1.5468  -17.2044  -51.1602 C.ar      23 UNK        -0.0193 
     10 C10        -2.7288  -17.9433  -51.2616 C.ar      23 UNK        -0.1150 
     11 C11        -2.7406  -19.3102  -50.9720 C.ar      23 UNK        -0.0193 
     12 C12        -1.5564  -19.9335  -50.5714 C.ar      23 UNK        -0.1150 
     13 C13        -0.3668  -19.2079  -50.4615 C.ar      23 UNK        -0.0193 
     14 C14        -0.3682  -17.8424  -50.7616 C.ar      23 UNK        -0.1150 
     15 C15         0.9248  -19.9160  -50.0724 C.3       23 UNK        -0.0205 
     16 S16         1.7282  -19.2190  -48.5909 S.3       23 UNK        -0.2404 
     17 C17         0.4827  -19.4911  -47.2890 C.3       23 UNK        -0.0398 
     18 CA          0.3451  -20.9825  -46.8628 C.3       11 UNK         0.1400 
     19 N           0.5054  -21.1844  -45.4186 N.am      11 UNK        -0.5000 
     20 C           0.5043  -22.3727  -44.7948 C.2       10 UNK         0.5000 
     21 O           0.4443  -23.4539  -45.3801 O.2       10 UNK        -0.5000 
     22 CA          0.5047  -22.3506  -43.2541 C.3       10 UNK         0.1400 
     23 CB          1.9255  -22.1735  -42.6988 C.3       10 UNK        -0.1800 
     24 N          -0.3785  -21.3162  -42.7113 N.am      10 UNK        -0.5000 
     25 C          -1.7101  -21.3062  -42.8733 C.2       9 UNK         0.5000 
     26 O          -2.3355  -22.2057  -43.4344 O.2       9 UNK        -0.5000 
     27 CA         -2.4660  -20.0610  -42.3769 C.3       9 UNK         0.1400 
     28 CB         -2.7230  -20.1407  -40.8651 C.3       9 UNK        -0.1800 
     29 N          -1.7674  -18.8158  -42.6953 N.am      9 UNK        -0.5000 
     30 C          -1.5144  -18.3785  -43.9377 C.2       8 UNK         0.5000 
     31 O          -1.8914  -18.9541  -44.9579 O.2       8 UNK        -0.5000 
     32 CA         -0.6462  -17.1155  -44.0602 C.3       8 UNK         0.1400 
     33 CB         -1.4874  -15.8564  -43.8027 C.3       8 UNK        -0.1800 
     34 N           0.4999  -17.1414  -43.1508 N.am      8 UNK        -0.5000 
     35 C           1.4913  -18.0430  -43.1842 C.2       7 UNK         0.5000 
     36 O           1.5732  -18.9349  -44.0253 O.2       7 UNK        -0.5000 
     37 CA          2.5364  -17.9757  -42.0573 C.3       7 UNK         0.1400 
     38 CB          3.6375  -16.9514  -42.3665 C.3       7 UNK        -0.1800 
     39 N           1.9222  -17.6634  -40.7695 N.am      7 UNK        -0.5000 
     40 C           1.1392  -18.5081  -40.0847 C.2       6 UNK         0.5000 
     41 O           0.8919  -19.6590  -40.4465 O.2       6 UNK        -0.5000 
     42 CA          0.4919  -17.9497  -38.8045 C.3       6 UNK         0.1400 
     43 CB          1.4641  -18.0421  -37.6190 C.3       6 UNK        -0.1800 
     44 N           0.0514  -16.5620  -38.9666 N.am      6 UNK        -0.5000 
     45 C          -0.9547  -16.1840  -39.7673 C.2       5 UNK         0.5000 
     46 O          -1.6389  -16.9725  -40.4187 O.2       5 UNK        -0.5000 
     47 CA         -1.2131  -14.6710  -39.8939 C.3       5 UNK         0.1400 
     48 CB         -2.1409  -14.1875  -38.7695 C.3       5 UNK        -0.1800 
     49 N           0.0091  -13.8602  -39.8987 N.am      5 UNK        -0.5000 
     50 C           0.9715  -13.9338  -40.8273 C.2       4 UNK         0.5000 
     51 O           0.9708  -14.7450  -41.7542 O.2       4 UNK        -0.5000 
     52 CA          2.1519  -12.9706  -40.6725 C.3       4 UNK         0.1400 
     53 CB          3.1899  -13.5395  -39.6899 C.3       4 UNK        -0.1800 
     54 N           2.7824  -12.7614  -41.9743 N.am      4 UNK        -0.5000 
     55 C           3.3454  -11.6165  -42.3759 C.2       3 UNK         0.5000 
     56 O           3.3687  -10.5975  -41.6832 O.2       3 UNK        -0.5000 
     57 CA          4.0223  -11.5864  -43.7607 C.3       3 UNK         0.1400 
     58 CB          5.5423  -11.4114  -43.6028 C.3       3 UNK        -0.1800 
     59 N           3.7846  -12.7799  -44.5780 N.am      3 UNK        -0.5000 
     60 C           2.7819  -12.9191  -45.4545 C.2       2 UNK         0.5000 
     61 O           1.8700  -12.0984  -45.5804 O.2       2 UNK        -0.5000 
     62 CA          2.8722  -14.1581  -46.3722 C.3       2 UNK         0.1400 
     63 CB          2.8027  -15.4769  -45.5769 C.3       2 UNK        -0.1800 
     64 N           1.9039  -14.1360  -47.4744 N.am      2 UNK        -0.5000 
     65 C           0.5819  -14.3488  -47.4255 C.2       1 UNK         0.5000 
     66 O          -0.0351  -14.6605  -46.4080 O.2       1 UNK        -0.5000 
     67 C          -0.9878  -21.5721  -47.3607 C.2       11 UNK         0.5000 
     68 O          -0.9881  -22.3650  -48.2997 O.2       11 UNK        -0.5000 
     69 N          -2.0907  -21.2050  -46.6949 N.am      12 UNK        -0.5000 
     70 CA         -3.4425  -21.6682  -47.0006 C.3       12 UNK         0.1400 
     71 CB         -4.4524  -20.9084  -46.1278 C.3       12 UNK        -0.1800 
     72 C          -3.6182  -23.1896  -46.8519 C.2       12 UNK         0.5000 
     73 O          -4.2850  -23.8018  -47.6857 O.2       12 UNK        -0.5000 
     74 N          -2.9947  -23.7728  -45.8185 N.am      13 UNK        -0.5000 
     75 CA         -2.9585  -25.2155  -45.5785 C.3       13 UNK         0.1400 
     76 CB         -2.3903  -25.4884  -44.1776 C.3       13 UNK        -0.1800 
     77 C          -2.1587  -25.9789  -46.6513 C.2       13 UNK         0.5000 
     78 O          -2.5885  -27.0520  -47.0767 O.2       13 UNK        -0.5000 
     79 N          -1.0211  -25.4119  -47.0767 N.am      14 UNK        -0.5000 
     80 CA         -0.1748  -25.9541  -48.1412 C.3       14 UNK         0.1400 
     81 CB          1.2057  -25.2821  -48.0778 C.3       14 UNK        -0.1800 
     82 C          -0.7839  -25.7817  -49.5456 C.2       14 UNK         0.5000 
     83 O          -0.5019  -26.5911  -50.4299 O.2       14 UNK        -0.5000 
     84 N          -1.5637  -24.7085  -49.7362 N.am      15 UNK        -0.5000 
     85 CA         -2.2127  -24.2164  -50.9586 C.3       15 UNK         0.1400 
     86 CB         -3.1634  -25.2630  -51.5667 C.3       15 UNK        -0.1800 
     87 C          -1.2305  -23.6671  -52.0121 C.2       15 UNK         0.5000 
     88 O          -1.5391  -22.6652  -52.6576 O.2       15 UNK        -0.5000 
     89 N          -0.0705  -24.3232  -52.1659 N.am      16 UNK        -0.5000 
     90 CA          1.1051  -23.9339  -52.9578 C.3       16 UNK         0.1400 
     91 CB          1.7487  -22.6739  -52.3442 C.3       16 UNK        -0.1800 
     92 C           0.8519  -23.7657  -54.4725 C.2       16 UNK         0.5000 
     93 O           1.6836  -23.1742  -55.1629 O.2       16 UNK        -0.5000 
     94 N          -0.2928  -24.2711  -54.9572 N.am      17 UNK        -0.5000 
     95 CA         -0.8502  -24.0812  -56.3011 C.3       17 UNK         0.1400 
     96 CB          0.0099  -24.8012  -57.3611 C.3       17 UNK        -0.1800 
     97 C          -1.1166  -22.5962  -56.6437 C.2       17 UNK         0.5000 
     98 O          -1.0486  -22.2141  -57.8140 O.2       17 UNK        -0.5000 
     99 N          -1.4098  -21.7813  -55.6185 N.am      18 UNK        -0.5000 
    100 CA        -1.7318  -20.3610  -55.7459 C.3       18 UNK         0.1400 
    101 CB        -1.7479  -19.7318  -54.3455 C.3       18 UNK        -0.1800 
    102 C         -3.0864  -20.1432  -56.4431 C.2       18 UNK         0.5000 
    103 O         -3.9956  -20.9615  -56.2867 O.2       18 UNK        -0.5000 
    104 N         -3.2149  -19.0188  -57.1603 N.am      19 UNK        -0.5000 
    105 CA        -4.4054  -18.6431  -57.9341 C.3       19 UNK         0.1400 
    106 CB        -4.0952  -17.3745  -58.7434 C.3       19 UNK        -0.1800 
    107 C         -5.6786  -18.4429  -57.0866 C.2       19 UNK         0.5000 
    108 O         -6.7838  -18.6216  -57.5995 O.2       19 UNK        -0.5000 
    109 N         -5.5010  -18.0985  -55.8040 N.am      20 UNK        -0.5000 
    110 CA        -6.5720  -17.9794  -54.8135 C.3       20 UNK         0.1400 
    111 CB        -6.0480  -17.1639  -53.6228 C.3       20 UNK        -0.1800 
    112 C         -7.1110  -19.3407  -54.3269 C.2       20 UNK         0.5000 
    113 O         -8.1905  -19.3750  -53.7348 O.2       20 UNK        -0.5000 
    114 N         -6.3503  -20.4237  -54.5547 N.am      21 UNK        -0.5000 
    115 CA        -6.5909  -21.8304  -54.2040 C.3       21 UNK         0.1400 
    116 CB        -7.8572  -22.3686  -54.8961 C.3       21 UNK        -0.1800 
    117 C         -6.6104  -22.1422  -52.6938 C.2       21 UNK         0.5000 
    118 O         -6.0423  -23.1554  -52.2878 O.2       21 UNK        -0.5000 
    119 N         -7.2533  -21.2805  -51.8968 N.am      22 UNK        -0.5000 
    120 CA        -7.4411  -21.3881  -50.4383 C.3       22 UNK         0.1400 
    121 C         -8.3638  -22.5638  -49.9851 C.2       22 UNK         0.5000 
    122 N         -9.1375  -23.1810  -50.8702 N.am      22 UNK        -0.7600 
    123 O         -8.4162  -22.9003  -48.8052 O.2       22 UNK        -0.5000 
    124 C124       -6.1046  -21.3380  -49.6453 C.3       23 UNK        -0.0398 
    125 S125       -5.2209  -19.7483  -49.8210 S.3       23 UNK        -0.2404 
    126 C126       -4.0163  -20.1243  -51.1308 C.3       23 UNK        -0.0205 
    127 H127        0.2797  -10.0823  -50.6254 H         1 UNK         0.0600 
    128 H128        0.7955   -9.7827  -48.9619 H         1 UNK         0.0600 
    129 H129       -0.8781  -10.2335  -49.3007 H         1 UNK         0.0600 
    130 H130       -1.2913  -12.3532  -48.7412 H         1 UNK         0.3000 
    131 H131        0.4472  -14.5433  -49.5485 H         1 UNK         0.0600 
    132 H132       -1.3303  -16.0020  -48.6306 H         1 UNK         0.0800 
    133 H133       -2.1598  -14.6279  -47.9567 H         1 UNK         0.0800 
    134 H134       -0.5183  -15.3483  -51.5966 H         1 UNK         0.0800 
    135 H135       -1.9856  -15.5977  -52.5012 H         1 UNK         0.0800 
    136 H136       -3.6395  -17.4500  -51.5654 H         1 UNK         0.1150 
    137 H137       -1.5580  -20.9942  -50.3698 H         1 UNK         0.1150 
    138 H138        0.5531  -17.2813  -50.6921 H         1 UNK         0.1150 
    139 H139        0.7520  -20.9814  -49.9155 H         1 UNK         0.0800 
    140 H140        1.6219  -19.8436  -50.9079 H         1 UNK         0.0800 
    141 H141       -0.4633  -19.0465  -47.6062 H         1 UNK         0.0800 
    142 H142        0.7975  -18.8794  -46.4455 H         1 UNK         0.0800 
    143 H143        1.1425  -21.5630  -47.3317 H         1 UNK         0.0600 
    144 H144        0.6299  -20.3470  -44.8560 H         1 UNK         0.3000 
    145 H145        0.1303  -23.3171  -42.9107 H         1 UNK         0.0600 
    146 H146        1.9289  -22.2016  -41.6090 H         1 UNK         0.0600 
    147 H147        2.5806  -22.9726  -43.0477 H         1 UNK         0.0600 
    148 H148        2.3697  -21.2286  -43.0094 H         1 UNK         0.0600 
    149 H149        0.0601  -20.5580  -42.2012 H         1 UNK         0.3000 
    150 H150       -3.4328  -20.0365  -42.8834 H         1 UNK         0.0600 
    151 H151       -3.2607  -21.0541  -40.6081 H         1 UNK         0.0600 
    152 H152       -3.3276  -19.3002  -40.5240 H         1 UNK         0.0600 
    153 H153       -1.7932  -20.1351  -40.2960 H         1 UNK         0.0600 
    154 H154       -1.4709  -18.2464  -41.9082 H         1 UNK         0.3000 
    155 H155       -0.2589  -17.0665  -45.0796 H         1 UNK         0.0600 
    156 H156       -2.2698  -15.7555  -44.5556 H         1 UNK         0.0600 
    157 H157       -0.8758  -14.9552  -43.8483 H         1 UNK         0.0600 
    158 H158       -1.9726  -15.8817  -42.8282 H         1 UNK         0.0600 
    159 H159        0.5531  -16.3875  -42.4704 H         1 UNK         0.3000 
    160 H160        3.0063  -18.9585  -41.9795 H         1 UNK         0.0600 
    161 H161        3.2363  -15.9464  -42.4951 H         1 UNK         0.0600 
    162 H162        4.1643  -17.2194  -43.2826 H         1 UNK         0.0600 
    163 H163        4.3785  -16.9159  -41.5678 H         1 UNK         0.0600 
    164 H164        2.0304  -16.7198  -40.4303 H         1 UNK         0.3000 
    165 H165       -0.3829  -18.5633  -38.5782 H         1 UNK         0.0600 
    166 H166        0.9888  -17.7160  -36.6937 H         1 UNK         0.0600 
    167 H167        1.7971  -19.0697  -37.4676 H         1 UNK         0.0600 
    168 H168        2.3522  -17.4285  -37.7750 H         1 UNK         0.0600 
    169 H169        0.5621  -15.8530  -38.4615 H         1 UNK         0.3000 
    170 H170       -1.7216  -14.5042  -40.8453 H         1 UNK         0.0600 
    171 H171       -3.0688  -14.7610  -38.7554 H         1 UNK         0.0600 
    172 H172       -1.6753  -14.2921  -37.7887 H         1 UNK         0.0600 
    173 H173       -2.4109  -13.1398  -38.9037 H         1 UNK         0.0600 
    174 H174        0.0943  -13.1765  -39.1602 H         1 UNK         0.3000 
    175 H175        1.7646  -12.0250  -40.2870 H         1 UNK         0.0600 
    176 H176        3.5990  -14.4875  -40.0419 H         1 UNK         0.0600 
    177 H177        4.0216  -12.8482  -39.5531 H         1 UNK         0.0600 
    178 H178        2.7499  -13.7140  -38.7073 H         1 UNK         0.0600 
    179 H179        2.7154  -13.5396  -42.6162 H         1 UNK         0.3000 
    180 H180        3.6391  -10.7081  -44.2847 H         1 UNK         0.0600 
    181 H181        5.9916  -12.2529  -43.0738 H         1 UNK         0.0600 
    182 H182        5.7785  -10.5070  -43.0404 H         1 UNK         0.0600 
    183 H183        6.0323  -11.3233  -44.5727 H         1 UNK         0.0600 
    184 H184        4.4955  -13.4955  -44.5307 H         1 UNK         0.3000 
    185 H185        3.8497  -14.1165  -46.8551 H         1 UNK         0.0600 
    186 H186        3.7007  -15.6104  -44.9756 H         1 UNK         0.0600 
    187 H187        1.9494  -15.4927  -44.8993 H         1 UNK         0.0600 
    188 H188        2.7257  -16.3419  -46.2362 H         1 UNK         0.0600 
    189 H189        2.2645  -13.7728  -48.3493 H         1 UNK         0.3000 
    190 H190       -2.0046  -20.5170  -45.9495 H         1 UNK         0.3000 
    191 H191       -3.6342  -21.4221  -48.0452 H         1 UNK         0.0600 
    192 H192       -4.2609  -21.0621  -45.0658 H         1 UNK         0.0600 
    193 H193       -5.4725  -21.2375  -46.3268 H         1 UNK         0.0600 
    194 H194       -4.4113  -19.8367  -46.3239 H         1 UNK         0.0600 
    195 H195       -2.5215  -23.1848  -45.1387 H         1 UNK         0.3000 
    196 H196       -3.9857  -25.5851  -45.6046 H         1 UNK         0.0600 
    197 H197       -2.3720  -26.5579  -43.9645 H         1 UNK         0.0600 
    198 H198       -2.9975  -25.0132  -43.4069 H         1 UNK         0.0600 
    199 H199       -1.3708  -25.1152  -44.0764 H         1 UNK         0.0600 
    200 H200       -0.7054  -24.5524  -46.6378 H         1 UNK         0.3000 
    201 H201       -0.0415  -27.0236  -47.9658 H         1 UNK         0.0600 
    202 H202        1.6824  -25.4522  -47.1123 H         1 UNK         0.0600 
    203 H203        1.1359  -24.2042  -48.2299 H         1 UNK         0.0600 
    204 H204        1.8715  -25.6800  -48.8446 H         1 UNK         0.0600 
    205 H205       -1.6023  -24.0481  -48.9643 H         1 UNK         0.3000 
    206 H206       -2.8237  -23.3725  -50.6355 H         1 UNK         0.0600 
    207 H207       -3.8940  -25.6014  -50.8319 H         1 UNK         0.0600 
    208 H208       -3.7193  -24.8386  -52.4037 H         1 UNK         0.0600 
    209 H209       -2.6301  -26.1371  -51.9405 H         1 UNK         0.0600 
    210 H210        0.0298  -25.1787  -51.6268 H         1 UNK         0.3000 
    211 H211        1.8191  -24.7528  -52.8611 H         1 UNK         0.0600 
    212 H212        1.1102  -21.7987  -52.4696 H         1 UNK         0.0600 
    213 H213        2.7070  -22.4498  -52.8137 H         1 UNK         0.0600 
    214 H214        1.9355  -22.8056  -51.2783 H         1 UNK         0.0600 
    215 H215       -0.9000  -24.7321  -54.2951 H         1 UNK         0.3000 
    216 H216       -1.8287  -24.5633  -56.2922 H         1 UNK         0.0600 
    217 H217       -0.4820  -24.7941  -58.3344 H         1 UNK         0.0600 
    218 H218        0.1766  -25.8441  -57.0917 H         1 UNK         0.0600 
    219 H219        0.9836  -24.3266  -57.4850 H         1 UNK         0.0600 
    220 H220       -1.4583  -22.1681  -54.6817 H         1 UNK         0.3000 
    221 H221       -0.9472  -19.8845  -56.3372 H         1 UNK         0.0600 
    222 H222       -2.5178  -20.1836  -53.7199 H         1 UNK         0.0600 
    223 H223       -0.7915  -19.8637  -53.8386 H         1 UNK         0.0600 
    224 H224       -1.9464  -18.6604  -54.3913 H         1 UNK         0.0600 
    225 H225       -2.4273  -18.3898  -57.2249 H         1 UNK         0.3000 
    226 H226       -4.6105  -19.4538  -58.6363 H         1 UNK         0.0600 
    227 H227       -3.8511  -16.5328  -58.0941 H         1 UNK         0.0600 
    228 H228       -3.2553  -17.5328  -59.4201 H         1 UNK         0.0600 
    229 H229       -4.9503  -17.0808  -59.3538 H         1 UNK         0.0600 
    230 H230       -4.5578  -17.9566  -55.4748 H         1 UNK         0.3000 
    231 H231       -7.4056  -17.4355  -55.2626 H         1 UNK         0.0600 
    232 H232       -6.8259  -17.0190  -52.8718 H         1 UNK         0.0600 
    233 H233       -5.7098  -16.1758  -53.9352 H         1 UNK         0.0600 
    234 H234       -5.2143  -17.6689  -53.1375 H         1 UNK         0.0600 
    235 H235       -5.4901  -20.2836  -55.0735 H         1 UNK         0.3000 
    236 H236       -5.7414  -22.3772  -54.6165 H         1 UNK         0.0600 
    237 H237       -7.9735  -23.4380  -54.7161 H         1 UNK         0.0600 
    238 H238       -8.7614  -21.8776  -54.5357 H         1 UNK         0.0600 
    239 H239       -7.8052  -22.2248  -55.9754 H         1 UNK         0.0600 
    240 H240       -7.7074  -20.4903  -52.3481 H         1 UNK         0.3000 
    241 H241       -8.0051  -20.4966  -50.1625 H         1 UNK         0.0600 
    242 H242       -9.1257  -22.9080  -51.8393 H         1 UNK         0.3800 
    243 H243       -9.7403  -23.9291  -50.5655 H         1 UNK         0.3800 
    244 H244       -6.2987  -21.4537  -48.5788 H         1 UNK         0.0800 
    245 H245       -5.4548  -22.1724  -49.9106 H         1 UNK         0.0800 
    246 H246       -4.4676  -19.9120  -52.1004 H         1 UNK         0.0800 
    247 H247       -3.7802  -21.1888  -51.1334 H         1 UNK         0.0800 
@<TRIPOS>BOND
     1    1    2 1    
     2    1  127 1    
     3    1  128 1    
     4    1  129 1    
     5    2    3 2    
     6    2    4 am   BACKBONE|DICT|INTERRES
     7    4    5 1    
     8    4  130 1    
     9    5    6 1    
    10    5   65 1    
    11    5  131 1    
    12    6    7 1    
    13    6  132 1    
    14    6  133 1    
    15    7    8 1    
    16    8    9 1    
    17    8  134 1    
    18    8  135 1    
    19    9   10 ar   
    20    9   14 ar   
    21   10   11 ar   
    22   10  136 1    
    23   11   12 ar   
    24   11  126 1    
    25   12   13 ar   
    26   12  137 1    
    27   13   14 ar   
    28   13   15 1    
    29   14  138 1    
    30   15   16 1    
    31   15  139 1    
    32   15  140 1    
    33   16   17 1    
    34   17   18 1    
    35   17  141 1    
    36   17  142 1    
    37   18   19 1    
    38   18   67 1    
    39   18  143 1    
    40   19   20 am   BACKBONE|DICT|INTERRES
    41   19  144 1    
    42   20   21 2    
    43   20   22 1    
    44   22   23 1    
    45   22   24 1    
    46   22  145 1    
    47   23  146 1    
    48   23  147 1    
    49   23  148 1    
    50   24   25 am   BACKBONE|DICT|INTERRES
    51   24  149 1    
    52   25   26 2    
    53   25   27 1    
    54   27   28 1    
    55   27   29 1    
    56   27  150 1    
    57   28  151 1    
    58   28  152 1    
    59   28  153 1    
    60   29   30 am   BACKBONE|DICT|INTERRES
    61   29  154 1    
    62   30   31 2    
    63   30   32 1    
    64   32   33 1    
    65   32   34 1    
    66   32  155 1    
    67   33  156 1    
    68   33  157 1    
    69   33  158 1    
    70   34   35 am   BACKBONE|DICT|INTERRES
    71   34  159 1    
    72   35   36 2    
    73   35   37 1    
    74   37   38 1    
    75   37   39 1    
    76   37  160 1    
    77   38  161 1    
    78   38  162 1    
    79   38  163 1    
    80   39   40 am   BACKBONE|DICT|INTERRES
    81   39  164 1    
    82   40   41 2    
    83   40   42 1    
    84   42   43 1    
    85   42   44 1    
    86   42  165 1    
    87   43  166 1    
    88   43  167 1    
    89   43  168 1    
    90   44   45 am   BACKBONE|DICT|INTERRES
    91   44  169 1    
    92   45   46 2    
    93   45   47 1    
    94   47   48 1    
    95   47   49 1    
    96   47  170 1    
    97   48  171 1    
    98   48  172 1    
    99   48  173 1    
   100   49   50 am   BACKBONE|DICT|INTERRES
   101   49  174 1    
   102   50   51 2    
   103   50   52 1    
   104   52   53 1    
   105   52   54 1    
   106   52  175 1    
   107   53  176 1    
   108   53  177 1    
   109   53  178 1    
   110   54   55 am   BACKBONE|DICT|INTERRES
   111   54  179 1    
   112   55   56 2    
   113   55   57 1    
   114   57   58 1    
   115   57   59 1    
   116   57  180 1    
   117   58  181 1    
   118   58  182 1    
   119   58  183 1    
   120   59   60 am   BACKBONE|DICT|INTERRES
   121   59  184 1    
   122   60   61 2    
   123   60   62 1    
   124   62   63 1    
   125   62   64 1    
   126   62  185 1    
   127   63  186 1    
   128   63  187 1    
   129   63  188 1    
   130   64   65 am   BACKBONE|DICT|INTERRES
   131   64  189 1    
   132   65   66 2    
   133   67   68 2    
   134   67   69 am   BACKBONE|DICT|INTERRES
   135   69   70 1    
   136   69  190 1    
   137   70   71 1    
   138   70   72 1    
   139   70  191 1    
   140   71  192 1    
   141   71  193 1    
   142   71  194 1    
   143   72   73 2    
   144   72   74 am   BACKBONE|DICT|INTERRES
   145   74   75 1    
   146   74  195 1    
   147   75   76 1    
   148   75   77 1    
   149   75  196 1    
   150   76  197 1    
   151   76  198 1    
   152   76  199 1    
   153   77   78 2    
   154   77   79 am   BACKBONE|DICT|INTERRES
   155   79   80 1    
   156   79  200 1    
   157   80   81 1    
   158   80   82 1    
   159   80  201 1    
   160   81  202 1    
   161   81  203 1    
   162   81  204 1    
   163   82   83 2    
   164   82   84 am   BACKBONE|DICT|INTERRES
   165   84   85 1    
   166   84  205 1    
   167   85   86 1    
   168   85   87 1    
   169   85  206 1    
   170   86  207 1    
   171   86  208 1    
   172   86  209 1    
   173   87   88 2    
   174   87   89 am   BACKBONE|DICT|INTERRES
   175   89   90 1    
   176   89  210 1    
   177   90   91 1    
   178   90   92 1    
   179   90  211 1    
   180   91  212 1    
   181   91  213 1    
   182   91  214 1    
   183   92   93 2    
   184   92   94 am   BACKBONE|DICT|INTERRES
   185   94   95 1    
   186   94  215 1    
   187   95   96 1    
   188   95   97 1    
   189   95  216 1    
   190   96  217 1    
   191   96  218 1    
   192   96  219 1    
   193   97   98 2    
   194   97   99 am   BACKBONE|DICT|INTERRES
   195   99  100 1    
   196   99  220 1    
   197  100  101 1    
   198  100  102 1    
   199  100  221 1    
   200  101  222 1    
   201  101  223 1    
   202  101  224 1    
   203  102  103 2    
   204  102  104 am   BACKBONE|DICT|INTERRES
   205  104  105 1    
   206  104  225 1    
   207  105  106 1    
   208  105  107 1    
   209  105  226 1    
   210  106  227 1    
   211  106  228 1    
   212  106  229 1    
   213  107  108 2    
   214  107  109 am   BACKBONE|DICT|INTERRES
   215  109  110 1    
   216  109  230 1    
   217  110  111 1    
   218  110  112 1    
   219  110  231 1    
   220  111  232 1    
   221  111  233 1    
   222  111  234 1    
   223  112  113 2    
   224  112  114 am   BACKBONE|DICT|INTERRES
   225  114  115 1    
   226  114  235 1    
   227  115  116 1    
   228  115  117 1    
   229  115  236 1    
   230  116  237 1    
   231  116  238 1    
   232  116  239 1    
   233  117  118 2    
   234  117  119 am   BACKBONE|DICT|INTERRES
   235  119  120 1    
   236  119  240 1    
   237  120  121 1    
   238  120  124 1    
   239  120  241 1    
   240  121  122 am   BACKBONE|DICT|INTERRES
   241  121  123 2    
   242  122  242 1    
   243  122  243 1    
   244  124  125 1    
   245  124  244 1    
   246  124  245 1    
   247  125  126 1    
   248  126  246 1    
   249  126  247 1    
@<TRIPOS>SUBSTRUCTURE
     1 UNK         1 GROUP             0       ****    0 ROOT    
