@<TRIPOS>MOLECULE
3R540
247   249    1
SMALL
USER_CHARGES


@<TRIPOS>ATOM
      1 CA          3.9856  -17.5667  -46.0474 C.3       0 UNK        -0.1800 
      2 C           5.0732  -17.1461  -47.0362 C.2       0 UNK         0.5000 
      3 O           6.1402  -17.7561  -47.0321 O.2       0 UNK        -0.5000 
      4 N           4.8823  -16.1401  -47.9043 N.am      1 UNK        -0.5000 
      5 CA          3.7170  -15.2564  -48.0448 C.3       1 UNK         0.1400 
      6 C6          3.8360  -14.4072  -49.3368 C.3       23 UNK        -0.0398 
      7 S7          2.2391  -13.7661  -49.9505 S.3       23 UNK        -0.2404 
      8 C8          2.1872  -14.4249  -51.6500 C.3       23 UNK        -0.0205 
      9 C9          1.5087  -15.7844  -51.7054 C.ar      23 UNK        -0.0193 
     10 C10         0.1801  -15.8844  -52.1271 C.ar      23 UNK        -0.1150 
     11 C11        -0.4668  -17.1223  -52.1556 C.ar      23 UNK        -0.0193 
     12 C12         0.2235  -18.2667  -51.7482 C.ar      23 UNK        -0.1150 
     13 C13         1.5553  -18.1818  -51.3332 C.ar      23 UNK        -0.0193 
     14 C14         2.1979  -16.9406  -51.3296 C.ar      23 UNK        -0.1150 
     15 C15         2.2842  -19.4282  -50.8513 C.3       23 UNK        -0.0205 
     16 S16         2.8037  -19.3064  -49.1067 S.3       23 UNK        -0.2404 
     17 C17         1.2469  -18.8806  -48.2525 C.3       23 UNK        -0.0398 
     18 CA          0.5816  -20.0803  -47.5442 C.3       11 UNK         0.1400 
     19 N          -0.3609  -19.6283  -46.5190 N.am      11 UNK        -0.5000 
     20 C          -1.0190  -20.4251  -45.6670 C.2       10 UNK         0.5000 
     21 O          -0.8455  -21.6398  -45.5909 O.2       10 UNK        -0.5000 
     22 CA         -2.0964  -19.7593  -44.7955 C.3       10 UNK         0.1400 
     23 CB         -1.4874  -19.1576  -43.5221 C.3       10 UNK        -0.1800 
     24 N          -2.8368  -18.7343  -45.5331 N.am      10 UNK        -0.5000 
     25 C          -3.6927  -19.0022  -46.5291 C.2       9 UNK         0.5000 
     26 O          -3.9951  -20.1400  -46.8884 O.2       9 UNK        -0.5000 
     27 CA         -4.2598  -17.7968  -47.2937 C.3       9 UNK         0.1400 
     28 CB         -5.5083  -17.2329  -46.6023 C.3       9 UNK        -0.1800 
     29 N          -3.2614  -16.7448  -47.4871 N.am      9 UNK        -0.5000 
     30 C          -2.2497  -16.8461  -48.3624 C.2       8 UNK         0.5000 
     31 O          -2.0810  -17.8287  -49.0851 O.2       8 UNK        -0.5000 
     32 CA         -1.2453  -15.6791  -48.4301 C.3       8 UNK         0.1400 
     33 CB         -1.7331  -14.6167  -49.4252 C.3       8 UNK        -0.1800 
     34 N          -1.0012  -15.0230  -47.1473 N.am      8 UNK        -0.5000 
     35 C          -0.5476  -15.6022  -46.0291 C.2       7 UNK         0.5000 
     36 O          -0.2731  -16.8007  -45.9425 O.2       7 UNK        -0.5000 
     37 CA         -0.4287  -14.7033  -44.7779 C.3       7 UNK         0.1400 
     38 CB         -0.6662  -13.2011  -45.0524 C.3       7 UNK        -0.1800 
     39 N          -1.3043  -15.1426  -43.6874 N.am      7 UNK        -0.5000 
     40 C          -2.6207  -15.4041  -43.7524 C.2       6 UNK         0.5000 
     41 O          -3.2771  -15.3492  -44.7934 O.2       6 UNK        -0.5000 
     42 CA         -3.3128  -15.8136  -42.4389 C.3       6 UNK         0.1400 
     43 CB         -4.5123  -16.7533  -42.6616 C.3       6 UNK        -0.1800 
     44 N          -2.3585  -16.4417  -41.5248 N.am      6 UNK        -0.5000 
     45 C          -2.2096  -16.1312  -40.2332 C.2       5 UNK         0.5000 
     46 O          -2.9280  -15.3324  -39.6307 O.2       5 UNK        -0.5000 
     47 CA         -1.0476  -16.8148  -39.4843 C.3       5 UNK         0.1400 
     48 CB         -1.5515  -18.0783  -38.7694 C.3       5 UNK        -0.1800 
     49 N           0.1268  -17.1683  -40.2960 N.am      5 UNK        -0.5000 
     50 C           0.8443  -16.3338  -41.0615 C.2       4 UNK         0.5000 
     51 O           0.4913  -15.1880  -41.3516 O.2       4 UNK        -0.5000 
     52 CA          2.1709  -16.8895  -41.6167 C.3       4 UNK         0.1400 
     53 CB          1.9467  -17.6318  -42.9418 C.3       4 UNK        -0.1800 
     54 N           3.1648  -15.8342  -41.8208 N.am      4 UNK        -0.5000 
     55 C           3.7301  -15.1130  -40.8446 C.2       3 UNK         0.5000 
     56 O           3.5221  -15.3222  -39.6479 O.2       3 UNK        -0.5000 
     57 CA          4.6740  -13.9557  -41.2378 C.3       3 UNK         0.1400 
     58 CB          6.1449  -14.3274  -40.9633 C.3       3 UNK        -0.1800 
     59 N           4.5139  -13.4099  -42.5962 N.am      3 UNK        -0.5000 
     60 C           4.7928  -13.9904  -43.7707 C.2       2 UNK         0.5000 
     61 O           5.1416  -15.1660  -43.8898 O.2       2 UNK        -0.5000 
     62 CA          4.6859  -13.0857  -45.0114 C.3       2 UNK         0.1400 
     63 CB          5.8950  -12.1393  -45.0899 C.3       2 UNK        -0.1800 
     64 N           4.6439  -13.8793  -46.2377 N.am      2 UNK        -0.5000 
     65 C           3.5281  -14.3514  -46.8063 C.2       1 UNK         0.5000 
     66 O           2.3972  -14.1271  -46.3787 O.2       1 UNK        -0.5000 
     67 C          -0.0891  -21.0383  -48.5522 C.2       11 UNK         0.5000 
     68 O           0.4574  -22.1050  -48.8324 O.2       11 UNK        -0.5000 
     69 N          -1.2835  -20.6682  -49.0393 N.am      12 UNK        -0.5000 
     70 CA         -2.1040  -21.5023  -49.9175 C.3       12 UNK         0.1400 
     71 CB         -3.3142  -20.7016  -50.4102 C.3       12 UNK        -0.1800 
     72 C          -2.5572  -22.8083  -49.2415 C.2       12 UNK         0.5000 
     73 O          -2.4632  -23.8675  -49.8592 O.2       12 UNK        -0.5000 
     74 N          -2.9910  -22.7209  -47.9758 N.am      13 UNK        -0.5000 
     75 CA         -3.3784  -23.8723  -47.1590 C.3       13 UNK         0.1400 
     76 CB         -3.9926  -23.3895  -45.8371 C.3       13 UNK        -0.1800 
     77 C          -2.2100  -24.8444  -46.9055 C.2       13 UNK         0.5000 
     78 O          -2.3984  -26.0559  -47.0137 O.2       13 UNK        -0.5000 
     79 N          -1.0136  -24.3038  -46.6317 N.am      14 UNK        -0.5000 
     80 CA          0.2346  -25.0592  -46.4880 C.3       14 UNK         0.1400 
     81 CB          1.3388  -24.1307  -45.9608 C.3       14 UNK        -0.1800 
     82 C           0.6771  -25.7480  -47.7947 C.2       14 UNK         0.5000 
     83 O           1.2319  -26.8460  -47.7450 O.2       14 UNK        -0.5000 
     84 N           0.3823  -25.1158  -48.9385 N.am      15 UNK        -0.5000 
     85 CA          0.5701  -25.6624  -50.2847 C.3       15 UNK         0.1400 
     86 CB          0.6617  -24.4966  -51.2844 C.3       15 UNK        -0.1800 
     87 C          -0.5282  -26.6682  -50.7023 C.2       15 UNK         0.5000 
     88 O          -0.4507  -27.2093  -51.8061 O.2       15 UNK        -0.5000 
     89 N          -1.5207  -26.9014  -49.8290 N.am      16 UNK        -0.5000 
     90 CA         -2.6801  -27.7853  -49.9903 C.3       16 UNK         0.1400 
     91 CB         -2.2446  -29.2543  -50.1764 C.3       16 UNK        -0.1800 
     92 C          -3.6826  -27.3068  -51.0620 C.2       16 UNK         0.5000 
     93 O          -4.4101  -28.1242  -51.6301 O.2       16 UNK        -0.5000 
     94 N          -3.7263  -25.9916  -51.3002 N.am      17 UNK        -0.5000 
     95 CA         -4.7126  -25.3180  -52.1387 C.3       17 UNK         0.1400 
     96 CB         -3.9969  -24.2146  -52.9365 C.3       17 UNK        -0.1800 
     97 C          -5.8317  -24.7225  -51.2645 C.2       17 UNK         0.5000 
     98 O          -5.7401  -24.7304  -50.0333 O.2       17 UNK        -0.5000 
     99 N          -6.8717  -24.1961  -51.9229 N.am      18 UNK        -0.5000 
    100 CA        -7.9272  -23.4033  -51.2908 C.3       18 UNK         0.1400 
    101 CB        -9.0797  -23.2205  -52.2899 C.3       18 UNK        -0.1800 
    102 C         -7.3939  -22.0391  -50.8094 C.2       18 UNK         0.5000 
    103 O         -6.3950  -21.5486  -51.3431 O.2       18 UNK        -0.5000 
    104 N         -8.0753  -21.4531  -49.8159 N.am      19 UNK        -0.5000 
    105 CA        -7.7149  -20.2017  -49.1447 C.3       19 UNK         0.1400 
    106 CB        -8.7959  -19.8543  -48.1086 C.3       19 UNK        -0.1800 
    107 C         -7.4800  -19.0316  -50.1213 C.2       19 UNK         0.5000 
    108 O         -8.4337  -18.5097  -50.7010 O.2       19 UNK        -0.5000 
    109 N         -6.1985  -18.6801  -50.2873 N.am      20 UNK        -0.5000 
    110 CA        -5.6524  -17.6315  -51.1531 C.3       20 UNK         0.1400 
    111 CB        -6.1682  -16.2380  -50.7390 C.3       20 UNK        -0.1800 
    112 C         -5.8016  -17.9115  -52.6651 C.2       20 UNK         0.5000 
    113 O         -5.7038  -16.9780  -53.4623 O.2       20 UNK        -0.5000 
    114 N         -5.9881  -19.1848  -53.0487 N.am      21 UNK        -0.5000 
    115 CA        -5.9645  -19.6272  -54.4487 C.3       21 UNK         0.1400 
    116 CB        -6.7310  -20.9511  -54.5774 C.3       21 UNK        -0.1800 
    117 C         -4.5286  -19.7779  -54.9918 C.2       21 UNK         0.5000 
    118 O         -4.3282  -19.7290  -56.2053 O.2       21 UNK        -0.5000 
    119 N         -3.5663  -19.9539  -54.0765 N.am      22 UNK        -0.5000 
    120 CA        -2.1098  -20.0235  -54.3000 C.3       22 UNK         0.1400 
    121 C         -1.5946  -21.3277  -54.9802 C.2       22 UNK         0.5000 
    122 N         -2.4386  -22.3069  -55.2761 N.am      22 UNK        -0.7600 
    123 O         -0.3982  -21.4679  -55.2169 O.2       22 UNK        -0.5000 
    124 C124       -1.5056  -18.7554  -54.9779 C.3       23 UNK        -0.0398 
    125 S125       -2.1181  -17.1324  -54.3938 S.3       23 UNK        -0.2404 
    126 C126       -1.9215  -17.2098  -52.5879 C.3       23 UNK        -0.0205 
    127 H127        4.3575  -17.4431  -45.0316 H         1 UNK         0.0600 
    128 H128        3.7483  -18.6213  -46.1860 H         1 UNK         0.0600 
    129 H129        3.0574  -17.0069  -46.1322 H         1 UNK         0.0600 
    130 H130        5.6428  -15.9332  -48.5354 H         1 UNK         0.3000 
    131 H131        2.8357  -15.8946  -48.1397 H         1 UNK         0.0600 
    132 H132        4.5168  -13.5653  -49.1963 H         1 UNK         0.0800 
    133 H133        4.2900  -15.0064  -50.1259 H         1 UNK         0.0800 
    134 H134        3.1899  -14.4839  -52.0751 H         1 UNK         0.0800 
    135 H135        1.6437  -13.7141  -52.2743 H         1 UNK         0.0800 
    136 H136       -0.3584  -14.9956  -52.4248 H         1 UNK         0.1150 
    137 H137       -0.2797  -19.2219  -51.7326 H         1 UNK         0.1150 
    138 H138        3.2252  -16.8763  -51.0020 H         1 UNK         0.1150 
    139 H139        1.6620  -20.3161  -50.9739 H         1 UNK         0.0800 
    140 H140        3.1669  -19.5858  -51.4722 H         1 UNK         0.0800 
    141 H141        0.5473  -18.3876  -48.9252 H         1 UNK         0.0800 
    142 H142        1.5050  -18.1228  -47.5140 H         1 UNK         0.0800 
    143 H143        1.3589  -20.6433  -47.0230 H         1 UNK         0.0600 
    144 H144       -0.5155  -18.6259  -46.4549 H         1 UNK         0.3000 
    145 H145       -2.7983  -20.5389  -44.4928 H         1 UNK         0.0600 
    146 H146       -0.8129  -19.8650  -43.0376 H         1 UNK         0.0600 
    147 H147       -2.2649  -18.9178  -42.7990 H         1 UNK         0.0600 
    148 H148       -0.9224  -18.2509  -43.7361 H         1 UNK         0.0600 
    149 H149       -2.6018  -17.7690  -45.3508 H         1 UNK         0.3000 
    150 H150       -4.5614  -18.1540  -48.2769 H         1 UNK         0.0600 
    151 H151       -6.2797  -17.9982  -46.5085 H         1 UNK         0.0600 
    152 H152       -5.9365  -16.4079  -47.1714 H         1 UNK         0.0600 
    153 H153       -5.2871  -16.8684  -45.6003 H         1 UNK         0.0600 
    154 H154       -3.3077  -15.9456  -46.8647 H         1 UNK         0.3000 
    155 H155       -0.2948  -16.0784  -48.7894 H         1 UNK         0.0600 
    156 H156       -2.6326  -14.1132  -49.0687 H         1 UNK         0.0600 
    157 H157       -0.9683  -13.8594  -49.5988 H         1 UNK         0.0600 
    158 H158       -1.9725  -15.0589  -50.3899 H         1 UNK         0.0600 
    159 H159       -1.2126  -14.0370  -47.1079 H         1 UNK         0.3000 
    160 H160        0.5949  -14.8156  -44.4186 H         1 UNK         0.0600 
    161 H161       -1.6883  -12.9974  -45.3740 H         1 UNK         0.0600 
    162 H162        0.0116  -12.8249  -45.8198 H         1 UNK         0.0600 
    163 H163       -0.4828  -12.6122  -44.1536 H         1 UNK         0.0600 
    164 H164       -0.8518  -15.1927  -42.7792 H         1 UNK         0.3000 
    165 H165       -3.6889  -14.8855  -42.0040 H         1 UNK         0.0600 
    166 H166       -4.9580  -17.0540  -41.7133 H         1 UNK         0.0600 
    167 H167       -5.2931  -16.2575  -43.2389 H         1 UNK         0.0600 
    168 H168       -4.2291  -17.6571  -43.1999 H         1 UNK         0.0600 
    169 H169       -1.7155  -17.1052  -41.9303 H         1 UNK         0.3000 
    170 H170       -0.7054  -16.1101  -38.7238 H         1 UNK         0.0600 
    171 H171       -2.4089  -17.8540  -38.1332 H         1 UNK         0.0600 
    172 H172       -1.8624  -18.8446  -39.4807 H         1 UNK         0.0600 
    173 H173       -0.7794  -18.5059  -38.1295 H         1 UNK         0.0600 
    174 H174        0.4880  -18.0993  -40.1445 H         1 UNK         0.3000 
    175 H175        2.5797  -17.5957  -40.8910 H         1 UNK         0.0600 
    176 H176        1.5444  -16.9776  -43.7157 H         1 UNK         0.0600 
    177 H177        2.8780  -18.0590  -43.3108 H         1 UNK         0.0600 
    178 H178        1.2529  -18.4611  -42.8107 H         1 UNK         0.0600 
    179 H179        3.4394  -15.6302  -42.7728 H         1 UNK         0.3000 
    180 H180        4.4218  -13.1313  -40.5690 H         1 UNK         0.0600 
    181 H181        6.4720  -15.1723  -41.5699 H         1 UNK         0.0600 
    182 H182        6.2880  -14.6052  -39.9184 H         1 UNK         0.0600 
    183 H183        6.8095  -13.4883  -41.1691 H         1 UNK         0.0600 
    184 H184        4.1988  -12.4498  -42.6188 H         1 UNK         0.3000 
    185 H185        3.7768  -12.4857  -44.9292 H         1 UNK         0.0600 
    186 H186        5.9496  -11.4934  -44.2127 H         1 UNK         0.0600 
    187 H187        6.8347  -12.6901  -45.1500 H         1 UNK         0.0600 
    188 H188        5.8308  -11.4905  -45.9637 H         1 UNK         0.0600 
    189 H189        5.5349  -14.1831  -46.6022 H         1 UNK         0.3000 
    190 H190       -1.6506  -19.7507  -48.8069 H         1 UNK         0.3000 
    191 H191       -1.4951  -21.7647  -50.7852 H         1 UNK         0.0600 
    192 H192       -4.0202  -20.5043  -49.6041 H         1 UNK         0.0600 
    193 H193       -3.8429  -21.2526  -51.1869 H         1 UNK         0.0600 
    194 H194       -3.0117  -19.7468  -50.8322 H         1 UNK         0.0600 
    195 H195       -3.0844  -21.8053  -47.5483 H         1 UNK         0.3000 
    196 H196       -4.1483  -24.4187  -47.7080 H         1 UNK         0.0600 
    197 H197       -4.3361  -24.2327  -45.2368 H         1 UNK         0.0600 
    198 H198       -4.8530  -22.7440  -46.0148 H         1 UNK         0.0600 
    199 H199       -3.2735  -22.8320  -45.2377 H         1 UNK         0.0600 
    200 H200       -0.9511  -23.2972  -46.4993 H         1 UNK         0.3000 
    201 H201        0.0659  -25.8412  -45.7449 H         1 UNK         0.0600 
    202 H202        1.0645  -23.7000  -44.9976 H         1 UNK         0.0600 
    203 H203        1.5374  -23.3090  -46.6492 H         1 UNK         0.0600 
    204 H204        2.2734  -24.6749  -45.8199 H         1 UNK         0.0600 
    205 H205       -0.0240  -24.1883  -48.8850 H         1 UNK         0.3000 
    206 H206        1.5207  -26.1988  -50.3093 H         1 UNK         0.0600 
    207 H207        1.4486  -23.7961  -51.0037 H         1 UNK         0.0600 
    208 H208        0.8915  -24.8568  -52.2878 H         1 UNK         0.0600 
    209 H209       -0.2736  -23.9409  -51.3448 H         1 UNK         0.0600 
    210 H210       -1.5062  -26.3841  -48.9585 H         1 UNK         0.3000 
    211 H211       -3.2213  -27.7307  -49.0451 H         1 UNK         0.0600 
    212 H212       -1.7720  -29.4194  -51.1448 H         1 UNK         0.0600 
    213 H213       -3.1013  -29.9262  -50.1149 H         1 UNK         0.0600 
    214 H214       -1.5405  -29.5580  -49.4017 H         1 UNK         0.0600 
    215 H215       -3.1477  -25.3723  -50.7364 H         1 UNK         0.3000 
    216 H216       -5.1609  -26.0228  -52.8417 H         1 UNK         0.0600 
    217 H217       -4.6744  -23.7339  -53.6421 H         1 UNK         0.0600 
    218 H218       -3.1666  -24.6235  -53.5123 H         1 UNK         0.0600 
    219 H219       -3.5976  -23.4371  -52.2853 H         1 UNK         0.0600 
    220 H220       -6.8678  -24.2084  -52.9316 H         1 UNK         0.3000 
    221 H221       -8.3006  -23.9533  -50.4243 H         1 UNK         0.0600 
    222 H222       -8.7517  -22.7157  -53.1980 H         1 UNK         0.0600 
    223 H223       -9.5049  -24.1819  -52.5784 H         1 UNK         0.0600 
    224 H224       -9.8864  -22.6273  -51.8576 H         1 UNK         0.0600 
    225 H225       -8.9015  -21.9146  -49.4648 H         1 UNK         0.3000 
    226 H226       -6.7874  -20.3878  -48.5983 H         1 UNK         0.0600 
    227 H227       -8.8823  -20.6333  -47.3509 H         1 UNK         0.0600 
    228 H228       -8.5561  -18.9246  -47.5909 H         1 UNK         0.0600 
    229 H229       -9.7743  -19.7278  -48.5739 H         1 UNK         0.0600 
    230 H230       -5.5070  -19.2414  -49.8134 H         1 UNK         0.3000 
    231 H231       -4.5779  -17.6349  -50.9657 H         1 UNK         0.0600 
    232 H232       -5.6366  -15.4491  -51.2722 H         1 UNK         0.0600 
    233 H233       -6.0171  -16.0623  -49.6741 H         1 UNK         0.0600 
    234 H234       -7.2302  -16.1177  -50.9536 H         1 UNK         0.0600 
    235 H235       -6.1045  -19.9095  -52.3449 H         1 UNK         0.3000 
    236 H236       -6.4744  -18.8835  -55.0648 H         1 UNK         0.0600 
    237 H237       -7.7581  -20.8389  -54.2316 H         1 UNK         0.0600 
    238 H238       -6.7722  -21.2796  -55.6166 H         1 UNK         0.0600 
    239 H239       -6.2630  -21.7484  -54.0000 H         1 UNK         0.0600 
    240 H240       -3.8625  -20.0122  -53.1153 H         1 UNK         0.3000 
    241 H241       -1.6902  -20.0809  -53.2975 H         1 UNK         0.0600 
    242 H242       -3.4252  -22.1954  -55.1155 H         1 UNK         0.3800 
    243 H243       -2.0886  -23.1463  -55.7096 H         1 UNK         0.3800 
    244 H244       -0.4201  -18.7558  -54.8645 H         1 UNK         0.0800 
    245 H245       -1.6903  -18.7911  -56.0528 H         1 UNK         0.0800 
    246 H246       -2.4800  -16.3803  -52.1557 H         1 UNK         0.0800 
    247 H247       -2.3893  -18.1095  -52.1977 H         1 UNK         0.0800 
@<TRIPOS>BOND
     1    1    2 1    
     2    1  127 1    
     3    1  128 1    
     4    1  129 1    
     5    2    3 2    
     6    2    4 am   BACKBONE|DICT|INTERRES
     7    4    5 1    
     8    4  130 1    
     9    5    6 1    
    10    5   65 1    
    11    5  131 1    
    12    6    7 1    
    13    6  132 1    
    14    6  133 1    
    15    7    8 1    
    16    8    9 1    
    17    8  134 1    
    18    8  135 1    
    19    9   10 ar   
    20    9   14 ar   
    21   10   11 ar   
    22   10  136 1    
    23   11   12 ar   
    24   11  126 1    
    25   12   13 ar   
    26   12  137 1    
    27   13   14 ar   
    28   13   15 1    
    29   14  138 1    
    30   15   16 1    
    31   15  139 1    
    32   15  140 1    
    33   16   17 1    
    34   17   18 1    
    35   17  141 1    
    36   17  142 1    
    37   18   19 1    
    38   18   67 1    
    39   18  143 1    
    40   19   20 am   BACKBONE|DICT|INTERRES
    41   19  144 1    
    42   20   21 2    
    43   20   22 1    
    44   22   23 1    
    45   22   24 1    
    46   22  145 1    
    47   23  146 1    
    48   23  147 1    
    49   23  148 1    
    50   24   25 am   BACKBONE|DICT|INTERRES
    51   24  149 1    
    52   25   26 2    
    53   25   27 1    
    54   27   28 1    
    55   27   29 1    
    56   27  150 1    
    57   28  151 1    
    58   28  152 1    
    59   28  153 1    
    60   29   30 am   BACKBONE|DICT|INTERRES
    61   29  154 1    
    62   30   31 2    
    63   30   32 1    
    64   32   33 1    
    65   32   34 1    
    66   32  155 1    
    67   33  156 1    
    68   33  157 1    
    69   33  158 1    
    70   34   35 am   BACKBONE|DICT|INTERRES
    71   34  159 1    
    72   35   36 2    
    73   35   37 1    
    74   37   38 1    
    75   37   39 1    
    76   37  160 1    
    77   38  161 1    
    78   38  162 1    
    79   38  163 1    
    80   39   40 am   BACKBONE|DICT|INTERRES
    81   39  164 1    
    82   40   41 2    
    83   40   42 1    
    84   42   43 1    
    85   42   44 1    
    86   42  165 1    
    87   43  166 1    
    88   43  167 1    
    89   43  168 1    
    90   44   45 am   BACKBONE|DICT|INTERRES
    91   44  169 1    
    92   45   46 2    
    93   45   47 1    
    94   47   48 1    
    95   47   49 1    
    96   47  170 1    
    97   48  171 1    
    98   48  172 1    
    99   48  173 1    
   100   49   50 am   BACKBONE|DICT|INTERRES
   101   49  174 1    
   102   50   51 2    
   103   50   52 1    
   104   52   53 1    
   105   52   54 1    
   106   52  175 1    
   107   53  176 1    
   108   53  177 1    
   109   53  178 1    
   110   54   55 am   BACKBONE|DICT|INTERRES
   111   54  179 1    
   112   55   56 2    
   113   55   57 1    
   114   57   58 1    
   115   57   59 1    
   116   57  180 1    
   117   58  181 1    
   118   58  182 1    
   119   58  183 1    
   120   59   60 am   BACKBONE|DICT|INTERRES
   121   59  184 1    
   122   60   61 2    
   123   60   62 1    
   124   62   63 1    
   125   62   64 1    
   126   62  185 1    
   127   63  186 1    
   128   63  187 1    
   129   63  188 1    
   130   64   65 am   BACKBONE|DICT|INTERRES
   131   64  189 1    
   132   65   66 2    
   133   67   68 2    
   134   67   69 am   BACKBONE|DICT|INTERRES
   135   69   70 1    
   136   69  190 1    
   137   70   71 1    
   138   70   72 1    
   139   70  191 1    
   140   71  192 1    
   141   71  193 1    
   142   71  194 1    
   143   72   73 2    
   144   72   74 am   BACKBONE|DICT|INTERRES
   145   74   75 1    
   146   74  195 1    
   147   75   76 1    
   148   75   77 1    
   149   75  196 1    
   150   76  197 1    
   151   76  198 1    
   152   76  199 1    
   153   77   78 2    
   154   77   79 am   BACKBONE|DICT|INTERRES
   155   79   80 1    
   156   79  200 1    
   157   80   81 1    
   158   80   82 1    
   159   80  201 1    
   160   81  202 1    
   161   81  203 1    
   162   81  204 1    
   163   82   83 2    
   164   82   84 am   BACKBONE|DICT|INTERRES
   165   84   85 1    
   166   84  205 1    
   167   85   86 1    
   168   85   87 1    
   169   85  206 1    
   170   86  207 1    
   171   86  208 1    
   172   86  209 1    
   173   87   88 2    
   174   87   89 am   BACKBONE|DICT|INTERRES
   175   89   90 1    
   176   89  210 1    
   177   90   91 1    
   178   90   92 1    
   179   90  211 1    
   180   91  212 1    
   181   91  213 1    
   182   91  214 1    
   183   92   93 2    
   184   92   94 am   BACKBONE|DICT|INTERRES
   185   94   95 1    
   186   94  215 1    
   187   95   96 1    
   188   95   97 1    
   189   95  216 1    
   190   96  217 1    
   191   96  218 1    
   192   96  219 1    
   193   97   98 2    
   194   97   99 am   BACKBONE|DICT|INTERRES
   195   99  100 1    
   196   99  220 1    
   197  100  101 1    
   198  100  102 1    
   199  100  221 1    
   200  101  222 1    
   201  101  223 1    
   202  101  224 1    
   203  102  103 2    
   204  102  104 am   BACKBONE|DICT|INTERRES
   205  104  105 1    
   206  104  225 1    
   207  105  106 1    
   208  105  107 1    
   209  105  226 1    
   210  106  227 1    
   211  106  228 1    
   212  106  229 1    
   213  107  108 2    
   214  107  109 am   BACKBONE|DICT|INTERRES
   215  109  110 1    
   216  109  230 1    
   217  110  111 1    
   218  110  112 1    
   219  110  231 1    
   220  111  232 1    
   221  111  233 1    
   222  111  234 1    
   223  112  113 2    
   224  112  114 am   BACKBONE|DICT|INTERRES
   225  114  115 1    
   226  114  235 1    
   227  115  116 1    
   228  115  117 1    
   229  115  236 1    
   230  116  237 1    
   231  116  238 1    
   232  116  239 1    
   233  117  118 2    
   234  117  119 am   BACKBONE|DICT|INTERRES
   235  119  120 1    
   236  119  240 1    
   237  120  121 1    
   238  120  124 1    
   239  120  241 1    
   240  121  122 am   BACKBONE|DICT|INTERRES
   241  121  123 2    
   242  122  242 1    
   243  122  243 1    
   244  124  125 1    
   245  124  244 1    
   246  124  245 1    
   247  125  126 1    
   248  126  246 1    
   249  126  247 1    
@<TRIPOS>SUBSTRUCTURE
     1 UNK         1 GROUP             0       ****    0 ROOT    
