@<TRIPOS>MOLECULE
3R540
247   249    1
SMALL
USER_CHARGES


@<TRIPOS>ATOM
      1 CA         -1.9560  -14.5040  -51.2252 C.3       0 UNK        -0.1800 
      2 C          -1.4545  -13.9782  -49.8887 C.2       0 UNK         0.5000 
      3 O          -2.2580  -13.5652  -49.0524 O.2       0 UNK        -0.5000 
      4 N          -0.1311  -14.0064  -49.6744 N.am      1 UNK        -0.5000 
      5 CA          0.5607  -13.4772  -48.4871 C.3       1 UNK         0.1400 
      6 C6          2.1130  -13.4439  -48.6158 C.3       23 UNK        -0.0398 
      7 S7          2.7421  -13.2607  -50.3286 S.3       23 UNK        -0.2404 
      8 C8          3.5828  -14.8569  -50.6323 C.3       23 UNK        -0.0205 
      9 C9          2.7389  -16.0592  -50.2280 C.ar      23 UNK        -0.0193 
     10 C10         1.6262  -16.4362  -50.9870 C.ar      23 UNK        -0.1150 
     11 C11         0.8052  -17.4880  -50.5675 C.ar      23 UNK        -0.0193 
     12 C12         1.1230  -18.1760  -49.3917 C.ar      23 UNK        -0.1150 
     13 C13         2.2448  -17.8244  -48.6381 C.ar      23 UNK        -0.0193 
     14 C14         3.0540  -16.7712  -49.0660 C.ar      23 UNK        -0.1150 
     15 C15         2.5619  -18.5682  -47.3516 C.3       23 UNK        -0.0205 
     16 S16         3.4429  -20.1180  -47.7028 S.3       23 UNK        -0.2404 
     17 C17         3.0425  -21.0997  -46.2210 C.3       23 UNK        -0.0398 
     18 CA          1.8518  -22.0610  -46.4653 C.3       11 UNK         0.1400 
     19 N           1.9924  -23.3076  -45.7118 N.am      11 UNK        -0.5000 
     20 C           1.3756  -24.4582  -46.0131 C.2       10 UNK         0.5000 
     21 O           0.6566  -24.6095  -46.9996 O.2       10 UNK        -0.5000 
     22 CA          1.5782  -25.6326  -45.0355 C.3       10 UNK         0.1400 
     23 CB          2.7861  -26.4814  -45.4588 C.3       10 UNK        -0.1800 
     24 N           1.7605  -25.1968  -43.6495 N.am      10 UNK        -0.5000 
     25 C           0.8014  -24.6334  -42.9021 C.2       9 UNK         0.5000 
     26 O          -0.3540  -24.4639  -43.2903 O.2       9 UNK        -0.5000 
     27 CA          1.2224  -24.1159  -41.5124 C.3       9 UNK         0.1400 
     28 CB          1.1341  -25.2398  -40.4695 C.3       9 UNK        -0.1800 
     29 N           2.5655  -23.5223  -41.4773 N.am      9 UNK        -0.5000 
     30 C           2.9632  -22.4891  -42.2320 C.2       8 UNK         0.5000 
     31 O           2.2571  -21.9721  -43.0990 O.2       8 UNK        -0.5000 
     32 CA          4.4073  -21.9933  -42.0332 C.3       8 UNK         0.1400 
     33 CB          5.3775  -22.8479  -42.8639 C.3       8 UNK        -0.1800 
     34 N           4.5594  -20.5922  -42.4313 N.am      8 UNK        -0.5000 
     35 C           3.9986  -19.5539  -41.7975 C.2       7 UNK         0.5000 
     36 O           3.3833  -19.6622  -40.7335 O.2       7 UNK        -0.5000 
     37 CA          4.1728  -18.1526  -42.4246 C.3       7 UNK         0.1400 
     38 CB          4.7614  -18.1486  -43.8534 C.3       7 UNK        -0.1800 
     39 N           2.9273  -17.3847  -42.3692 N.am      7 UNK        -0.5000 
     40 C           1.7526  -17.6749  -42.9444 C.2       6 UNK         0.5000 
     41 O           1.5786  -18.6028  -43.7330 O.2       6 UNK        -0.5000 
     42 CA          0.5660  -16.7533  -42.5963 C.3       6 UNK         0.1400 
     43 CB          0.0772  -16.9784  -41.1527 C.3       6 UNK        -0.1800 
     44 N           0.8121  -15.3302  -42.8763 N.am      6 UNK        -0.5000 
     45 C           1.6959  -14.5018  -42.2996 C.2       5 UNK         0.5000 
     46 O           2.4134  -14.8100  -41.3467 O.2       5 UNK        -0.5000 
     47 CA          1.8322  -13.0996  -42.9129 C.3       5 UNK         0.1400 
     48 CB          2.9501  -13.0981  -43.9683 C.3       5 UNK        -0.1800 
     49 N           0.5978  -12.6255  -43.5384 N.am      5 UNK        -0.5000 
     50 C          -0.3674  -11.9572  -42.8952 C.2       4 UNK         0.5000 
     51 O          -0.3652  -11.7550  -41.6804 O.2       4 UNK        -0.5000 
     52 CA         -1.5139  -11.3997  -43.7522 C.3       4 UNK         0.1400 
     53 CB         -1.0154  -10.2543  -44.6496 C.3       4 UNK        -0.1800 
     54 N          -2.1164  -12.4347  -44.5915 N.am      4 UNK        -0.5000 
     55 C          -3.4029  -12.8086  -44.5346 C.2       3 UNK         0.5000 
     56 O          -4.2137  -12.3454  -43.7311 O.2       3 UNK        -0.5000 
     57 CA         -3.8891  -13.8628  -45.5517 C.3       3 UNK         0.1400 
     58 CB         -4.6932  -13.1912  -46.6754 C.3       3 UNK        -0.1800 
     59 N          -2.8093  -14.6480  -46.1495 N.am      3 UNK        -0.5000 
     60 C          -2.1016  -15.5779  -45.4932 C.2       2 UNK         0.5000 
     61 O          -2.3136  -15.8912  -44.3228 O.2       2 UNK        -0.5000 
     62 CA         -0.9449  -16.2568  -46.2536 C.3       2 UNK         0.1400 
     63 CB         -1.4385  -17.5770  -46.8628 C.3       2 UNK        -0.1800 
     64 N          -0.3469  -15.4377  -47.3099 N.am      2 UNK        -0.5000 
     65 C           0.1423  -14.1940  -47.1848 C.2       1 UNK         0.5000 
     66 O           0.2194  -13.5965  -46.1111 O.2       1 UNK        -0.5000 
     67 C           0.4999  -21.3900  -46.1533 C.2       11 UNK         0.5000 
     68 O          -0.1685  -20.9119  -47.0673 O.2       11 UNK        -0.5000 
     69 N           0.0934  -21.4126  -44.8764 N.am      12 UNK        -0.5000 
     70 CA         -1.2081  -20.9345  -44.4120 C.3       12 UNK         0.1400 
     71 CB         -1.2481  -20.9589  -42.8771 C.3       12 UNK        -0.1800 
     72 C          -2.3734  -21.7410  -45.0176 C.2       12 UNK         0.5000 
     73 O          -3.3692  -21.1525  -45.4374 O.2       12 UNK        -0.5000 
     74 N          -2.2032  -23.0684  -45.1074 N.am      13 UNK        -0.5000 
     75 CA         -3.1356  -23.9921  -45.7576 C.3       13 UNK         0.1400 
     76 CB         -2.7167  -25.4359  -45.4434 C.3       13 UNK        -0.1800 
     77 C          -3.2523  -23.7870  -47.2818 C.2       13 UNK         0.5000 
     78 O          -4.3015  -24.0885  -47.8516 O.2       13 UNK        -0.5000 
     79 N          -2.2001  -23.2508  -47.9175 N.am      14 UNK        -0.5000 
     80 CA         -2.1516  -22.9543  -49.3521 C.3       14 UNK         0.1400 
     81 CB         -0.6942  -22.7486  -49.7917 C.3       14 UNK        -0.1800 
     82 C          -3.0464  -21.7698  -49.7762 C.2       14 UNK         0.5000 
     83 O          -3.2389  -21.5664  -50.9730 O.2       14 UNK        -0.5000 
     84 N          -3.6351  -21.0463  -48.8101 N.am      15 UNK        -0.5000 
     85 CA         -4.6728  -20.0346  -49.0333 C.3       15 UNK         0.1400 
     86 CB         -4.9654  -19.3153  -47.7088 C.3       15 UNK        -0.1800 
     87 C          -5.9806  -20.6014  -49.6340 C.2       15 UNK         0.5000 
     88 O          -6.8009  -19.8250  -50.1277 O.2       15 UNK        -0.5000 
     89 N          -6.1531  -21.9315  -49.5936 N.am      16 UNK        -0.5000 
     90 CA         -7.2419  -22.6818  -50.2175 C.3       16 UNK         0.1400 
     91 CB         -7.0081  -24.1798  -49.9721 C.3       16 UNK        -0.1800 
     92 C          -7.3876  -22.4097  -51.7288 C.2       16 UNK         0.5000 
     93 O          -6.3923  -22.1712  -52.4199 O.2       16 UNK        -0.5000 
     94 N          -8.6416  -22.4605  -52.2016 N.am      17 UNK        -0.5000 
     95 CA         -9.0732  -22.1956  -53.5792 C.3       17 UNK         0.1400 
     96 CB         -8.5552  -23.2940  -54.5323 C.3       17 UNK        -0.1800 
     97 C          -8.7228  -20.7658  -54.0451 C.2       17 UNK         0.5000 
     98 O          -8.2802  -20.5760  -55.1774 O.2       17 UNK        -0.5000 
     99 N          -8.9040  -19.7888  -53.1417 N.am      18 UNK        -0.5000 
    100 CA        -8.5791  -18.3654  -53.3057 C.3       18 UNK         0.1400 
    101 CB        -9.5106  -17.7062  -54.3448 C.3       18 UNK        -0.1800 
    102 C         -7.0805  -18.1378  -53.5995 C.2       18 UNK         0.5000 
    103 O         -6.7270  -17.3843  -54.5080 O.2       18 UNK        -0.5000 
    104 N         -6.2349  -18.8296  -52.8236 N.am      19 UNK        -0.5000 
    105 CA        -4.7713  -18.8553  -52.8831 C.3       19 UNK         0.1400 
    106 CB        -4.1791  -17.4675  -52.5638 C.3       19 UNK        -0.1800 
    107 C         -4.1856  -19.4759  -54.1679 C.2       19 UNK         0.5000 
    108 O         -2.9960  -19.3008  -54.4335 O.2       19 UNK        -0.5000 
    109 N         -4.9932  -20.2266  -54.9330 N.am      20 UNK        -0.5000 
    110 CA        -4.5372  -20.9567  -56.1196 C.3       20 UNK         0.1400 
    111 CB        -5.7424  -21.4649  -56.9215 C.3       20 UNK        -0.1800 
    112 C         -3.5891  -22.1186  -55.7704 C.2       20 UNK         0.5000 
    113 O         -2.7027  -22.4382  -56.5646 O.2       20 UNK        -0.5000 
    114 N         -3.7521  -22.6968  -54.5707 N.am      21 UNK        -0.5000 
    115 CA        -2.8863  -23.7473  -54.0329 C.3       21 UNK         0.1400 
    116 CB        -3.5822  -24.4271  -52.8419 C.3       21 UNK        -0.1800 
    117 C         -1.4532  -23.2756  -53.6938 C.2       21 UNK         0.5000 
    118 O         -0.5834  -24.1254  -53.4972 O.2       21 UNK        -0.5000 
    119 N         -1.2065  -21.9561  -53.6796 N.am      22 UNK        -0.5000 
    120 CA         0.1424  -21.3609  -53.6325 C.3       22 UNK         0.1400 
    121 C          0.9460  -21.5204  -54.9587 C.2       22 UNK         0.5000 
    122 N          0.3341  -21.8950  -56.0781 N.am      22 UNK        -0.7600 
    123 O          2.1549  -21.3053  -54.9712 O.2       22 UNK        -0.5000 
    124 C124        0.1298  -19.8701  -53.1971 C.3       23 UNK        -0.0398 
    125 S125       -0.7124  -19.6010  -51.6070 S.3       23 UNK        -0.2404 
    126 C126       -0.4680  -17.8193  -51.3359 C.3       23 UNK        -0.0205 
    127 H127       -1.1384  -14.8423  -51.8616 H         1 UNK         0.0600 
    128 H128       -2.4966  -13.7204  -51.7557 H         1 UNK         0.0600 
    129 H129       -2.6372  -15.3390  -51.0658 H         1 UNK         0.0600 
    130 H130        0.4856  -14.3516  -50.3966 H         1 UNK         0.3000 
    131 H131        0.2254  -12.4426  -48.3875 H         1 UNK         0.0600 
    132 H132        2.5735  -14.3183  -48.1582 H         1 UNK         0.0800 
    133 H133        2.4967  -12.6036  -48.0350 H         1 UNK         0.0800 
    134 H134        3.8329  -14.9302  -51.6916 H         1 UNK         0.0800 
    135 H135        4.5331  -14.8602  -50.0961 H         1 UNK         0.0800 
    136 H136        1.3820  -15.8848  -51.8843 H         1 UNK         0.1150 
    137 H137        0.4916  -18.9874  -49.0564 H         1 UNK         0.1150 
    138 H138        3.9156  -16.4882  -48.4777 H         1 UNK         0.1150 
    139 H139        3.1670  -17.9496  -46.6875 H         1 UNK         0.0800 
    140 H140        1.6368  -18.7730  -46.8132 H         1 UNK         0.0800 
    141 H141        2.8741  -20.4529  -45.3586 H         1 UNK         0.0800 
    142 H142        3.9413  -21.6709  -45.9856 H         1 UNK         0.0800 
    143 H143        1.8402  -22.3323  -47.5238 H         1 UNK         0.0600 
    144 H144        2.4830  -23.2387  -44.8308 H         1 UNK         0.3000 
    145 H145        0.6858  -26.2605  -45.0816 H         1 UNK         0.0600 
    146 H146        2.8966  -27.3571  -44.8189 H         1 UNK         0.0600 
    147 H147        2.6707  -26.8408  -46.4823 H         1 UNK         0.0600 
    148 H148        3.7152  -25.9118  -45.4135 H         1 UNK         0.0600 
    149 H149        2.6834  -25.2986  -43.2539 H         1 UNK         0.3000 
    150 H150        0.5144  -23.3346  -41.2290 H         1 UNK         0.0600 
    151 H151        1.8503  -26.0367  -40.6736 H         1 UNK         0.0600 
    152 H152        0.1390  -25.6869  -40.4605 H         1 UNK         0.0600 
    153 H153        1.3277  -24.8626  -39.4652 H         1 UNK         0.0600 
    154 H154        3.2080  -23.9095  -40.8011 H         1 UNK         0.3000 
    155 H155        4.6675  -22.0837  -40.9766 H         1 UNK         0.0600 
    156 H156        5.1568  -22.7885  -43.9305 H         1 UNK         0.0600 
    157 H157        5.3227  -23.8984  -42.5757 H         1 UNK         0.0600 
    158 H158        6.4093  -22.5277  -42.7172 H         1 UNK         0.0600 
    159 H159        5.0335  -20.4215  -43.3049 H         1 UNK         0.3000 
    160 H160        4.8778  -17.6243  -41.7815 H         1 UNK         0.0600 
    161 H161        4.1461  -18.7125  -44.5521 H         1 UNK         0.0600 
    162 H162        5.7645  -18.5757  -43.8711 H         1 UNK         0.0600 
    163 H163        4.8433  -17.1314  -44.2367 H         1 UNK         0.0600 
    164 H164        2.9380  -16.5722  -41.7582 H         1 UNK         0.3000 
    165 H165       -0.2523  -17.0544  -43.2490 H         1 UNK         0.0600 
    166 H166       -0.8112  -16.3826  -40.9428 H         1 UNK         0.0600 
    167 H167       -0.1878  -18.0245  -40.9941 H         1 UNK         0.0600 
    168 H168        0.8360  -16.7220  -40.4133 H         1 UNK         0.0600 
    169 H169        0.2793  -14.9483  -43.6440 H         1 UNK         0.3000 
    170 H170        2.1216  -12.4126  -42.1145 H         1 UNK         0.0600 
    171 H171        3.8991  -13.4152  -43.5336 H         1 UNK         0.0600 
    172 H172        2.7264  -13.7735  -44.7953 H         1 UNK         0.0600 
    173 H173        3.0998  -12.1008  -44.3821 H         1 UNK         0.0600 
    174 H174        0.5085  -12.7952  -44.5380 H         1 UNK         0.3000 
    175 H175       -2.2514  -10.9816  -43.0640 H         1 UNK         0.0600 
    176 H176       -0.2924  -10.6019  -45.3888 H         1 UNK         0.0600 
    177 H177       -1.8428   -9.7904  -45.1868 H         1 UNK         0.0600 
    178 H178       -0.5340   -9.4742  -44.0584 H         1 UNK         0.0600 
    179 H179       -1.5054  -12.8898  -45.2594 H         1 UNK         0.3000 
    180 H180       -4.5547  -14.5467  -45.0208 H         1 UNK         0.0600 
    181 H181       -5.5465  -12.6436  -46.2734 H         1 UNK         0.0600 
    182 H182       -5.0820  -13.9280  -47.3785 H         1 UNK         0.0600 
    183 H183       -4.0829  -12.4821  -47.2362 H         1 UNK         0.0600 
    184 H184       -2.5700  -14.4282  -47.1105 H         1 UNK         0.3000 
    185 H185       -0.1586  -16.4828  -45.5326 H         1 UNK         0.0600 
    186 H186       -2.0023  -18.1625  -46.1362 H         1 UNK         0.0600 
    187 H187       -2.0888  -17.4083  -47.7219 H         1 UNK         0.0600 
    188 H188       -0.6072  -18.1973  -47.1868 H         1 UNK         0.0600 
    189 H189       -0.3601  -15.8333  -48.2385 H         1 UNK         0.3000 
    190 H190        0.7419  -21.7476  -44.1683 H         1 UNK         0.3000 
    191 H191       -1.3111  -19.8975  -44.7340 H         1 UNK         0.0600 
    192 H192       -0.4336  -20.3705  -42.4535 H         1 UNK         0.0600 
    193 H193       -2.1831  -20.5380  -42.5060 H         1 UNK         0.0600 
    194 H194       -1.1664  -21.9731  -42.4869 H         1 UNK         0.0600 
    195 H195       -1.3839  -23.4830  -44.6734 H         1 UNK         0.3000 
    196 H196       -4.1255  -23.8236  -45.3289 H         1 UNK         0.0600 
    197 H197       -3.4080  -26.1507  -45.8915 H         1 UNK         0.0600 
    198 H198       -2.7103  -25.6202  -44.3690 H         1 UNK         0.0600 
    199 H199       -1.7204  -25.6567  -45.8275 H         1 UNK         0.0600 
    200 H200       -1.3774  -23.0095  -47.3814 H         1 UNK         0.3000 
    201 H201       -2.5272  -23.8342  -49.8780 H         1 UNK         0.0600 
    202 H202       -0.6243  -22.7073  -50.8777 H         1 UNK         0.0600 
    203 H203       -0.0549  -23.5660  -49.4588 H         1 UNK         0.0600 
    204 H204       -0.2803  -21.8157  -49.4128 H         1 UNK         0.0600 
    205 H205       -3.4157  -21.2624  -47.8465 H         1 UNK         0.3000 
    206 H206       -4.2750  -19.3012  -49.7365 H         1 UNK         0.0600 
    207 H207       -4.0606  -18.8848  -47.2824 H         1 UNK         0.0600 
    208 H208       -5.6757  -18.5004  -47.8542 H         1 UNK         0.0600 
    209 H209       -5.3917  -19.9951  -46.9700 H         1 UNK         0.0600 
    210 H210       -5.4250  -22.4873  -49.1653 H         1 UNK         0.3000 
    211 H211       -8.1663  -22.3844  -49.7188 H         1 UNK         0.0600 
    212 H212       -6.0677  -24.5146  -50.4129 H         1 UNK         0.0600 
    213 H213       -7.8078  -24.7809  -50.4068 H         1 UNK         0.0600 
    214 H214       -6.9759  -24.4053  -48.9059 H         1 UNK         0.0600 
    215 H215       -9.3868  -22.6730  -51.5527 H         1 UNK         0.3000 
    216 H216      -10.1627  -22.2511  -53.5794 H         1 UNK         0.0600 
    217 H217       -8.9355  -23.1487  -55.5441 H         1 UNK         0.0600 
    218 H218       -8.8794  -24.2815  -54.2045 H         1 UNK         0.0600 
    219 H219       -7.4669  -23.3042  -54.5892 H         1 UNK         0.0600 
    220 H220       -9.2447  -20.0539  -52.2283 H         1 UNK         0.3000 
    221 H221       -8.7747  -17.8915  -52.3426 H         1 UNK         0.0600 
    222 H222       -9.3409  -18.0957  -55.3490 H         1 UNK         0.0600 
    223 H223      -10.5587  -17.8700  -54.0944 H         1 UNK         0.0600 
    224 H224       -9.3513  -16.6280  -54.3822 H         1 UNK         0.0600 
    225 H225       -6.6350  -19.4078  -52.0909 H         1 UNK         0.3000 
    226 H226       -4.4604  -19.5279  -52.0859 H         1 UNK         0.0600 
    227 H227       -4.4124  -16.7367  -53.3381 H         1 UNK         0.0600 
    228 H228       -4.5565  -17.0873  -51.6146 H         1 UNK         0.0600 
    229 H229       -3.0939  -17.5159  -52.4839 H         1 UNK         0.0600 
    230 H230       -5.9646  -20.3324  -54.6703 H         1 UNK         0.3000 
    231 H231       -3.9837  -20.2594  -56.7520 H         1 UNK         0.0600 
    232 H232       -6.3378  -22.1738  -56.3472 H         1 UNK         0.0600 
    233 H233       -5.4197  -21.9708  -57.8323 H         1 UNK         0.0600 
    234 H234       -6.3926  -20.6425  -57.2202 H         1 UNK         0.0600 
    235 H235       -4.4891  -22.3624  -53.9617 H         1 UNK         0.3000 
    236 H236       -2.7726  -24.5057  -54.8103 H         1 UNK         0.0600 
    237 H237       -2.9256  -25.1495  -52.3557 H         1 UNK         0.0600 
    238 H238       -3.9001  -23.7094  -52.0892 H         1 UNK         0.0600 
    239 H239       -4.4712  -24.9663  -53.1692 H         1 UNK         0.0600 
    240 H240       -1.9710  -21.3078  -53.8140 H         1 UNK         0.3000 
    241 H241        0.7079  -21.9078  -52.8758 H         1 UNK         0.0600 
    242 H242       -0.6628  -22.0730  -56.0988 H         1 UNK         0.3800 
    243 H243        0.8730  -21.9960  -56.9236 H         1 UNK         0.3800 
    244 H244        1.1492  -19.4917  -53.1013 H         1 UNK         0.0800 
    245 H245       -0.3580  -19.2558  -53.9554 H         1 UNK         0.0800 
    246 H246       -0.5007  -17.2989  -52.2941 H         1 UNK         0.0800 
    247 H247       -1.3127  -17.4516  -50.7533 H         1 UNK         0.0800 
@<TRIPOS>BOND
     1    1    2 1    
     2    1  127 1    
     3    1  128 1    
     4    1  129 1    
     5    2    3 2    
     6    2    4 am   BACKBONE|DICT|INTERRES
     7    4    5 1    
     8    4  130 1    
     9    5    6 1    
    10    5   65 1    
    11    5  131 1    
    12    6    7 1    
    13    6  132 1    
    14    6  133 1    
    15    7    8 1    
    16    8    9 1    
    17    8  134 1    
    18    8  135 1    
    19    9   10 ar   
    20    9   14 ar   
    21   10   11 ar   
    22   10  136 1    
    23   11   12 ar   
    24   11  126 1    
    25   12   13 ar   
    26   12  137 1    
    27   13   14 ar   
    28   13   15 1    
    29   14  138 1    
    30   15   16 1    
    31   15  139 1    
    32   15  140 1    
    33   16   17 1    
    34   17   18 1    
    35   17  141 1    
    36   17  142 1    
    37   18   19 1    
    38   18   67 1    
    39   18  143 1    
    40   19   20 am   BACKBONE|DICT|INTERRES
    41   19  144 1    
    42   20   21 2    
    43   20   22 1    
    44   22   23 1    
    45   22   24 1    
    46   22  145 1    
    47   23  146 1    
    48   23  147 1    
    49   23  148 1    
    50   24   25 am   BACKBONE|DICT|INTERRES
    51   24  149 1    
    52   25   26 2    
    53   25   27 1    
    54   27   28 1    
    55   27   29 1    
    56   27  150 1    
    57   28  151 1    
    58   28  152 1    
    59   28  153 1    
    60   29   30 am   BACKBONE|DICT|INTERRES
    61   29  154 1    
    62   30   31 2    
    63   30   32 1    
    64   32   33 1    
    65   32   34 1    
    66   32  155 1    
    67   33  156 1    
    68   33  157 1    
    69   33  158 1    
    70   34   35 am   BACKBONE|DICT|INTERRES
    71   34  159 1    
    72   35   36 2    
    73   35   37 1    
    74   37   38 1    
    75   37   39 1    
    76   37  160 1    
    77   38  161 1    
    78   38  162 1    
    79   38  163 1    
    80   39   40 am   BACKBONE|DICT|INTERRES
    81   39  164 1    
    82   40   41 2    
    83   40   42 1    
    84   42   43 1    
    85   42   44 1    
    86   42  165 1    
    87   43  166 1    
    88   43  167 1    
    89   43  168 1    
    90   44   45 am   BACKBONE|DICT|INTERRES
    91   44  169 1    
    92   45   46 2    
    93   45   47 1    
    94   47   48 1    
    95   47   49 1    
    96   47  170 1    
    97   48  171 1    
    98   48  172 1    
    99   48  173 1    
   100   49   50 am   BACKBONE|DICT|INTERRES
   101   49  174 1    
   102   50   51 2    
   103   50   52 1    
   104   52   53 1    
   105   52   54 1    
   106   52  175 1    
   107   53  176 1    
   108   53  177 1    
   109   53  178 1    
   110   54   55 am   BACKBONE|DICT|INTERRES
   111   54  179 1    
   112   55   56 2    
   113   55   57 1    
   114   57   58 1    
   115   57   59 1    
   116   57  180 1    
   117   58  181 1    
   118   58  182 1    
   119   58  183 1    
   120   59   60 am   BACKBONE|DICT|INTERRES
   121   59  184 1    
   122   60   61 2    
   123   60   62 1    
   124   62   63 1    
   125   62   64 1    
   126   62  185 1    
   127   63  186 1    
   128   63  187 1    
   129   63  188 1    
   130   64   65 am   BACKBONE|DICT|INTERRES
   131   64  189 1    
   132   65   66 2    
   133   67   68 2    
   134   67   69 am   BACKBONE|DICT|INTERRES
   135   69   70 1    
   136   69  190 1    
   137   70   71 1    
   138   70   72 1    
   139   70  191 1    
   140   71  192 1    
   141   71  193 1    
   142   71  194 1    
   143   72   73 2    
   144   72   74 am   BACKBONE|DICT|INTERRES
   145   74   75 1    
   146   74  195 1    
   147   75   76 1    
   148   75   77 1    
   149   75  196 1    
   150   76  197 1    
   151   76  198 1    
   152   76  199 1    
   153   77   78 2    
   154   77   79 am   BACKBONE|DICT|INTERRES
   155   79   80 1    
   156   79  200 1    
   157   80   81 1    
   158   80   82 1    
   159   80  201 1    
   160   81  202 1    
   161   81  203 1    
   162   81  204 1    
   163   82   83 2    
   164   82   84 am   BACKBONE|DICT|INTERRES
   165   84   85 1    
   166   84  205 1    
   167   85   86 1    
   168   85   87 1    
   169   85  206 1    
   170   86  207 1    
   171   86  208 1    
   172   86  209 1    
   173   87   88 2    
   174   87   89 am   BACKBONE|DICT|INTERRES
   175   89   90 1    
   176   89  210 1    
   177   90   91 1    
   178   90   92 1    
   179   90  211 1    
   180   91  212 1    
   181   91  213 1    
   182   91  214 1    
   183   92   93 2    
   184   92   94 am   BACKBONE|DICT|INTERRES
   185   94   95 1    
   186   94  215 1    
   187   95   96 1    
   188   95   97 1    
   189   95  216 1    
   190   96  217 1    
   191   96  218 1    
   192   96  219 1    
   193   97   98 2    
   194   97   99 am   BACKBONE|DICT|INTERRES
   195   99  100 1    
   196   99  220 1    
   197  100  101 1    
   198  100  102 1    
   199  100  221 1    
   200  101  222 1    
   201  101  223 1    
   202  101  224 1    
   203  102  103 2    
   204  102  104 am   BACKBONE|DICT|INTERRES
   205  104  105 1    
   206  104  225 1    
   207  105  106 1    
   208  105  107 1    
   209  105  226 1    
   210  106  227 1    
   211  106  228 1    
   212  106  229 1    
   213  107  108 2    
   214  107  109 am   BACKBONE|DICT|INTERRES
   215  109  110 1    
   216  109  230 1    
   217  110  111 1    
   218  110  112 1    
   219  110  231 1    
   220  111  232 1    
   221  111  233 1    
   222  111  234 1    
   223  112  113 2    
   224  112  114 am   BACKBONE|DICT|INTERRES
   225  114  115 1    
   226  114  235 1    
   227  115  116 1    
   228  115  117 1    
   229  115  236 1    
   230  116  237 1    
   231  116  238 1    
   232  116  239 1    
   233  117  118 2    
   234  117  119 am   BACKBONE|DICT|INTERRES
   235  119  120 1    
   236  119  240 1    
   237  120  121 1    
   238  120  124 1    
   239  120  241 1    
   240  121  122 am   BACKBONE|DICT|INTERRES
   241  121  123 2    
   242  122  242 1    
   243  122  243 1    
   244  124  125 1    
   245  124  244 1    
   246  124  245 1    
   247  125  126 1    
   248  126  246 1    
   249  126  247 1    
@<TRIPOS>SUBSTRUCTURE
     1 UNK         1 GROUP             0       ****    0 ROOT    
