@<TRIPOS>MOLECULE
3R540
247   249    1
SMALL
USER_CHARGES


@<TRIPOS>ATOM
      1 CA         -2.1725  -13.3490  -44.5372 C.3       0 UNK        -0.1800 
      2 C          -0.9297  -13.4439  -45.4100 C.2       0 UNK         0.5000 
      3 O          -0.1345  -14.3736  -45.2629 O.2       0 UNK        -0.5000 
      4 N          -0.7672  -12.4649  -46.3062 N.am      1 UNK        -0.5000 
      5 CA          0.2658  -12.3258  -47.3438 C.3       1 UNK         0.1400 
      6 C6          0.2896  -13.4862  -48.3735 C.3       23 UNK        -0.0398 
      7 S7         -1.2995  -13.6365  -49.2630 S.3       23 UNK        -0.2404 
      8 C8         -1.7137  -15.3902  -49.0129 C.3       23 UNK        -0.0205 
      9 C9         -0.9766  -16.2834  -49.9993 C.ar      23 UNK        -0.0193 
     10 C10        -1.5029  -16.5057  -51.2746 C.ar      23 UNK        -0.1150 
     11 C11        -0.8447  -17.3422  -52.1812 C.ar      23 UNK        -0.0193 
     12 C12         0.3553  -17.9539  -51.8022 C.ar      23 UNK        -0.1150 
     13 C13         0.8922  -17.7418  -50.5288 C.ar      23 UNK        -0.0193 
     14 C14         0.2185  -16.9055  -49.6334 C.ar      23 UNK        -0.1150 
     15 C15         2.1791  -18.4412  -50.1009 C.3       23 UNK        -0.0205 
     16 S16         2.0665  -20.2632  -50.1581 S.3       23 UNK        -0.2404 
     17 C17         0.4139  -20.5611  -49.4512 C.3       23 UNK        -0.0398 
     18 CA          0.3362  -21.8357  -48.5759 C.3       11 UNK         0.1400 
     19 N           1.0258  -21.6537  -47.3020 N.am      11 UNK        -0.5000 
     20 C           1.6542  -22.6133  -46.6138 C.2       10 UNK         0.5000 
     21 O           1.6951  -23.7952  -46.9557 O.2       10 UNK        -0.5000 
     22 CA          2.3776  -22.1682  -45.3296 C.3       10 UNK         0.1400 
     23 CB          3.6880  -21.4369  -45.6627 C.3       10 UNK        -0.1800 
     24 N           1.5383  -21.3064  -44.4994 N.am      10 UNK        -0.5000 
     25 C           0.5444  -21.7511  -43.7195 C.2       9 UNK         0.5000 
     26 O           0.2806  -22.9438  -43.5667 O.2       9 UNK        -0.5000 
     27 CA         -0.3032  -20.6901  -42.9896 C.3       9 UNK         0.1400 
     28 CB          0.3067  -20.3574  -41.6199 C.3       9 UNK        -0.1800 
     29 N          -0.4789  -19.4607  -43.7647 N.am      9 UNK        -0.5000 
     30 C          -1.1629  -19.3840  -44.9151 C.2       8 UNK         0.5000 
     31 O          -1.7755  -20.3311  -45.4070 O.2       8 UNK        -0.5000 
     32 CA         -1.1293  -18.0389  -45.6669 C.3       8 UNK         0.1400 
     33 CB         -2.2440  -17.1136  -45.1648 C.3       8 UNK        -0.1800 
     34 N           0.1655  -17.3565  -45.5774 N.am      8 UNK        -0.5000 
     35 C           1.3083  -17.8586  -46.0666 C.2       7 UNK         0.5000 
     36 O           1.3685  -18.9163  -46.6898 O.2       7 UNK        -0.5000 
     37 CA          2.6077  -17.0965  -45.7614 C.3       7 UNK         0.1400 
     38 CB          2.8171  -15.9052  -46.7036 C.3       7 UNK        -0.1800 
     39 N           2.6631  -16.6541  -44.3697 N.am      7 UNK        -0.5000 
     40 C           2.8288  -17.4924  -43.3375 C.2       6 UNK         0.5000 
     41 O           2.9904  -18.7066  -43.4619 O.2       6 UNK        -0.5000 
     42 CA          2.7758  -16.8753  -41.9314 C.3       6 UNK         0.1400 
     43 CB          4.1497  -16.3165  -41.5350 C.3       6 UNK        -0.1800 
     44 N           1.7735  -15.8179  -41.8170 N.am      6 UNK        -0.5000 
     45 C           0.4489  -16.0071  -41.8660 C.2       5 UNK         0.5000 
     46 O          -0.0711  -17.1035  -42.0746 O.2       5 UNK        -0.5000 
     47 CA         -0.4294  -14.7567  -41.6554 C.3       5 UNK         0.1400 
     48 CB         -1.8913  -15.0927  -41.2940 C.3       5 UNK        -0.1800 
     49 N           0.1368  -13.7984  -40.7011 N.am      5 UNK        -0.5000 
     50 C           0.4056  -13.9939  -39.4024 C.2       4 UNK         0.5000 
     51 O           0.1666  -15.0424  -38.8009 O.2       4 UNK        -0.5000 
     52 CA          1.0931  -12.8184  -38.6737 C.3       4 UNK         0.1400 
     53 CB          1.4550  -13.1498  -37.2144 C.3       4 UNK        -0.1800 
     54 N           2.3098  -12.4034  -39.3751 N.am      4 UNK        -0.5000 
     55 C           2.3582  -11.6032  -40.4475 C.2       3 UNK         0.5000 
     56 O           1.3609  -11.0537  -40.9215 O.2       3 UNK        -0.5000 
     57 CA          3.7342  -11.4054  -41.1233 C.3       3 UNK         0.1400 
     58 CB          4.7975  -12.4369  -40.6852 C.3       3 UNK        -0.1800 
     59 N           3.6541  -11.3739  -42.5887 N.am      3 UNK        -0.5000 
     60 C           3.0937  -12.2861  -43.3960 C.2       2 UNK         0.5000 
     61 O           2.5122  -13.3046  -43.0112 O.2       2 UNK        -0.5000 
     62 CA          3.2617  -12.0423  -44.8990 C.3       2 UNK         0.1400 
     63 CB          4.4582  -12.8513  -45.4314 C.3       2 UNK        -0.1800 
     64 N           2.0298  -12.4117  -45.5923 N.am      2 UNK        -0.5000 
     65 C           1.6789  -11.9880  -46.8126 C.2       1 UNK         0.5000 
     66 O           2.4179  -11.2985  -47.5174 O.2       1 UNK        -0.5000 
     67 C          -1.1228  -22.2728  -48.3409 C.2       11 UNK         0.5000 
     68 O          -1.3964  -23.4706  -48.2660 O.2       11 UNK        -0.5000 
     69 N          -2.0401  -21.2954  -48.2908 N.am      12 UNK        -0.5000 
     70 CA         -3.4925  -21.4512  -48.3664 C.3       12 UNK         0.1400 
     71 CB         -4.1498  -20.0673  -48.2573 C.3       12 UNK        -0.1800 
     72 C          -4.1056  -22.4303  -47.3523 C.2       12 UNK         0.5000 
     73 O          -4.9995  -23.1906  -47.7219 O.2       12 UNK        -0.5000 
     74 N          -3.5981  -22.4322  -46.1144 N.am      13 UNK        -0.5000 
     75 CA         -4.0518  -23.3313  -45.0505 C.3       13 UNK         0.1400 
     76 CB         -3.4246  -22.8991  -43.7195 C.3       13 UNK        -0.1800 
     77 C          -3.7607  -24.8210  -45.3278 C.2       13 UNK         0.5000 
     78 O          -4.4829  -25.6769  -44.8150 O.2       13 UNK        -0.5000 
     79 N          -2.7278  -25.1039  -46.1326 N.am      14 UNK        -0.5000 
     80 CA         -2.3699  -26.4482  -46.5786 C.3       14 UNK         0.1400 
     81 CB         -0.8388  -26.5776  -46.6080 C.3       14 UNK        -0.1800 
     82 C          -2.9661  -26.7542  -47.9633 C.2       14 UNK         0.5000 
     83 O          -3.4504  -27.8652  -48.1814 O.2       14 UNK        -0.5000 
     84 N          -2.9060  -25.7748  -48.8764 N.am      15 UNK        -0.5000 
     85 CA         -3.3153  -25.9097  -50.2747 C.3       15 UNK         0.1400 
     86 CB         -2.7594  -24.7250  -51.0775 C.3       15 UNK        -0.1800 
     87 C          -4.8365  -26.0216  -50.4757 C.2       15 UNK         0.5000 
     88 O          -5.2610  -26.7474  -51.3749 O.2       15 UNK        -0.5000 
     89 N          -5.6131  -25.3059  -49.6463 N.am      16 UNK        -0.5000 
     90 CA         -7.0751  -25.1755  -49.6843 C.3       16 UNK         0.1400 
     91 CB         -7.7361  -26.4999  -49.2487 C.3       16 UNK        -0.1800 
     92 C          -7.5891  -24.6696  -51.0575 C.2       16 UNK         0.5000 
     93 O          -8.1984  -25.4408  -51.7987 O.2       16 UNK        -0.5000 
     94 N          -7.3477  -23.4067  -51.4377 N.am      17 UNK        -0.5000 
     95 CA         -6.7192  -22.3328  -50.6699 C.3       17 UNK         0.1400 
     96 CB         -7.8106  -21.4687  -50.0075 C.3       17 UNK        -0.1800 
     97 C          -5.7487  -21.5579  -51.5752 C.2       17 UNK         0.5000 
     98 O          -4.9687  -22.1849  -52.2938 O.2       17 UNK        -0.5000 
     99 N          -5.7942  -20.2186  -51.5445 N.am      18 UNK        -0.5000 
    100 CA        -4.9284  -19.3332  -52.3323 C.3       18 UNK         0.1400 
    101 CB        -5.2228  -17.8715  -51.9667 C.3       18 UNK        -0.1800 
    102 C         -5.0437  -19.5525  -53.8541 C.2       18 UNK         0.5000 
    103 O         -4.0407  -19.4572  -54.5577 O.2       18 UNK        -0.5000 
    104 N         -6.2468  -19.9117  -54.3211 N.am      19 UNK        -0.5000 
    105 CA        -6.5301  -20.2764  -55.7111 C.3       19 UNK         0.1400 
    106 CB        -8.0536  -20.3201  -55.9072 C.3       19 UNK        -0.1800 
    107 C         -5.8910  -21.6111  -56.1525 C.2       19 UNK         0.5000 
    108 O         -5.7518  -21.8366  -57.3550 O.2       19 UNK        -0.5000 
    109 N         -5.5274  -22.4725  -55.1916 N.am      20 UNK        -0.5000 
    110 CA        -4.7941  -23.7139  -55.4330 C.3       20 UNK         0.1400 
    111 CB        -5.2715  -24.7960  -54.4506 C.3       20 UNK        -0.1800 
    112 C         -3.2776  -23.4879  -55.3101 C.2       20 UNK         0.5000 
    113 O         -2.5195  -24.0544  -56.0980 O.2       20 UNK        -0.5000 
    114 N         -2.8613  -22.6677  -54.3332 N.am      21 UNK        -0.5000 
    115 CA        -1.4605  -22.3276  -54.0786 C.3       21 UNK         0.1400 
    116 CB        -1.3335  -21.6380  -52.7120 C.3       21 UNK        -0.1800 
    117 C         -0.8279  -21.4628  -55.1856 C.2       21 UNK         0.5000 
    118 O          0.2892  -21.7568  -55.6137 O.2       21 UNK        -0.5000 
    119 N         -1.5448  -20.4223  -55.6245 N.am      22 UNK        -0.5000 
    120 CA        -1.1259  -19.5035  -56.6897 C.3       22 UNK         0.1400 
    121 C         -1.8627  -19.8725  -58.0012 C.2       22 UNK         0.5000 
    122 N         -1.1407  -20.2630  -59.0427 N.am      22 UNK        -0.7600 
    123 O         -3.0835  -19.7745  -58.0943 O.2       22 UNK        -0.5000 
    124 C124       -1.3846  -18.0223  -56.3082 C.3       23 UNK        -0.0398 
    125 S125       -0.3273  -17.4469  -54.9342 S.3       23 UNK        -0.2404 
    126 C126       -1.4754  -17.6366  -53.5349 C.3       23 UNK        -0.0205 
    127 H127       -2.4834  -14.3359  -44.1986 H         1 UNK         0.0600 
    128 H128       -3.0048  -12.9077  -45.0858 H         1 UNK         0.0600 
    129 H129       -1.9738  -12.7315  -43.6615 H         1 UNK         0.0600 
    130 H130       -1.4582  -11.7280  -46.3222 H         1 UNK         0.3000 
    131 H131       -0.0343  -11.4328  -47.8950 H         1 UNK         0.0600 
    132 H132        0.5287  -14.4283  -47.8840 H         1 UNK         0.0800 
    133 H133        1.0686  -13.3248  -49.1207 H         1 UNK         0.0800 
    134 H134       -1.4945  -15.6827  -47.9853 H         1 UNK         0.0800 
    135 H135       -2.7896  -15.5182  -49.1404 H         1 UNK         0.0800 
    136 H136       -2.4353  -16.0352  -51.5535 H         1 UNK         0.1150 
    137 H137        0.8606  -18.6174  -52.4900 H         1 UNK         0.1150 
    138 H138        0.6137  -16.7471  -48.6428 H         1 UNK         0.1150 
    139 H139        2.9945  -18.1157  -50.7477 H         1 UNK         0.0800 
    140 H140        2.4578  -18.1510  -49.0880 H         1 UNK         0.0800 
    141 H141       -0.2766  -20.6182  -50.2927 H         1 UNK         0.0800 
    142 H142        0.1079  -19.6928  -48.8675 H         1 UNK         0.0800 
    143 H143        0.8159  -22.6460  -49.1294 H         1 UNK         0.0600 
    144 H144        1.0834  -20.6961  -46.9616 H         1 UNK         0.3000 
    145 H145        2.6317  -23.0642  -44.7591 H         1 UNK         0.0600 
    146 H146        4.2289  -21.1669  -44.7555 H         1 UNK         0.0600 
    147 H147        4.3462  -22.0695  -46.2594 H         1 UNK         0.0600 
    148 H148        3.5112  -20.5220  -46.2288 H         1 UNK         0.0600 
    149 H149        1.7161  -20.3111  -44.5441 H         1 UNK         0.3000 
    150 H150       -1.2921  -21.1155  -42.8157 H         1 UNK         0.0600 
    151 H151        0.4255  -21.2579  -41.0162 H         1 UNK         0.0600 
    152 H152       -0.3315  -19.6738  -41.0599 H         1 UNK         0.0600 
    153 H153        1.2889  -19.8955  -41.7169 H         1 UNK         0.0600 
    154 H154       -0.0744  -18.6149  -43.3753 H         1 UNK         0.3000 
    155 H155       -1.3189  -18.2510  -46.7211 H         1 UNK         0.0600 
    156 H156       -3.2143  -17.6105  -45.2049 H         1 UNK         0.0600 
    157 H157       -2.0720  -16.8086  -44.1332 H         1 UNK         0.0600 
    158 H158       -2.3163  -16.2159  -45.7769 H         1 UNK         0.0600 
    159 H159        0.1785  -16.4507  -45.1222 H         1 UNK         0.3000 
    160 H160        3.4316  -17.7932  -45.9323 H         1 UNK         0.0600 
    161 H161        2.1634  -15.0747  -46.4480 H         1 UNK         0.0600 
    162 H162        2.6317  -16.1740  -47.7425 H         1 UNK         0.0600 
    163 H163        3.8456  -15.5512  -46.6541 H         1 UNK         0.0600 
    164 H164        2.5071  -15.6733  -44.1810 H         1 UNK         0.3000 
    165 H165        2.5123  -17.6677  -41.2278 H         1 UNK         0.0600 
    166 H166        4.1385  -15.9298  -40.5159 H         1 UNK         0.0600 
    167 H167        4.9140  -17.0935  -41.5791 H         1 UNK         0.0600 
    168 H168        4.4623  -15.5105  -42.2002 H         1 UNK         0.0600 
    169 H169        2.1149  -14.8640  -41.7753 H         1 UNK         0.3000 
    170 H170       -0.4283  -14.2431  -42.6129 H         1 UNK         0.0600 
    171 H171       -1.9595  -15.6477  -40.3581 H         1 UNK         0.0600 
    172 H172       -2.4897  -14.1875  -41.1928 H         1 UNK         0.0600 
    173 H173       -2.3592  -15.7032  -42.0658 H         1 UNK         0.0600 
    174 H174        0.4128  -12.9037  -41.0921 H         1 UNK         0.3000 
    175 H175        0.3844  -11.9876  -38.6588 H         1 UNK         0.0600 
    176 H176        1.9060  -12.2916  -36.7159 H         1 UNK         0.0600 
    177 H177        2.1577  -13.9817  -37.1517 H         1 UNK         0.0600 
    178 H178        0.5671  -13.4244  -36.6433 H         1 UNK         0.0600 
    179 H179        3.1673  -12.8376  -39.0661 H         1 UNK         0.3000 
    180 H180        4.0817  -10.4187  -40.8140 H         1 UNK         0.0600 
    181 H181        4.4801  -13.4577  -40.8956 H         1 UNK         0.0600 
    182 H182        5.0125  -12.3636  -39.6186 H         1 UNK         0.0600 
    183 H183        5.7399  -12.2718  -41.2077 H         1 UNK         0.0600 
    184 H184        4.0816  -10.5652  -43.0174 H         1 UNK         0.3000 
    185 H185        3.4458  -10.9786  -45.0648 H         1 UNK         0.0600 
    186 H186        5.3916  -12.4850  -45.0028 H         1 UNK         0.0600 
    187 H187        4.3759  -13.9050  -45.1663 H         1 UNK         0.0600 
    188 H188        4.5500  -12.7798  -46.5150 H         1 UNK         0.0600 
    189 H189        1.3858  -12.9956  -45.0679 H         1 UNK         0.3000 
    190 H190       -1.7126  -20.3424  -48.2820 H         1 UNK         0.3000 
    191 H191       -3.7092  -21.8468  -49.3594 H         1 UNK         0.0600 
    192 H192       -3.8333  -19.4136  -49.0706 H         1 UNK         0.0600 
    193 H193       -5.2363  -20.1423  -48.3069 H         1 UNK         0.0600 
    194 H194       -3.8987  -19.5781  -47.3151 H         1 UNK         0.0600 
    195 H195       -2.8670  -21.7617  -45.8827 H         1 UNK         0.3000 
    196 H196       -5.1348  -23.2209  -44.9645 H         1 UNK         0.0600 
    197 H197       -3.8176  -23.4902  -42.8915 H         1 UNK         0.0600 
    198 H198       -3.6337  -21.8514  -43.5026 H         1 UNK         0.0600 
    199 H199       -2.3446  -23.0349  -43.7345 H         1 UNK         0.0600 
    200 H200       -2.2103  -24.3388  -46.5500 H         1 UNK         0.3000 
    201 H201       -2.7524  -27.1919  -45.8763 H         1 UNK         0.0600 
    202 H202       -0.4109  -26.4057  -45.6202 H         1 UNK         0.0600 
    203 H203       -0.3835  -25.8632  -47.2952 H         1 UNK         0.0600 
    204 H204       -0.5371  -27.5766  -46.9249 H         1 UNK         0.0600 
    205 H205       -2.4423  -24.9050  -48.6234 H         1 UNK         0.3000 
    206 H206       -2.8628  -26.8227  -50.6675 H         1 UNK         0.0600 
    207 H207       -1.6744  -24.6640  -50.9911 H         1 UNK         0.0600 
    208 H208       -2.9952  -24.8232  -52.1376 H         1 UNK         0.0600 
    209 H209       -3.1786  -23.7789  -50.7352 H         1 UNK         0.0600 
    210 H210       -5.1571  -24.7339  -48.9417 H         1 UNK         0.3000 
    211 H211       -7.3497  -24.4298  -48.9375 H         1 UNK         0.0600 
    212 H212       -7.5096  -27.3166  -49.9347 H         1 UNK         0.0600 
    213 H213       -8.8212  -26.3982  -49.2083 H         1 UNK         0.0600 
    214 H214       -7.4003  -26.7971  -48.2551 H         1 UNK         0.0600 
    215 H215       -7.6313  -23.1425  -52.3691 H         1 UNK         0.3000 
    216 H216       -6.0894  -22.7394  -49.8874 H         1 UNK         0.0600 
    217 H217       -8.4523  -22.0750  -49.3680 H         1 UNK         0.0600 
    218 H218       -7.3809  -20.6931  -49.3731 H         1 UNK         0.0600 
    219 H219       -8.4493  -20.9853  -50.7479 H         1 UNK         0.0600 
    220 H220       -6.4673  -19.7686  -50.9413 H         1 UNK         0.3000 
    221 H221       -3.8967  -19.5468  -52.0483 H         1 UNK         0.0600 
    222 H222       -6.2607  -17.6063  -52.1709 H         1 UNK         0.0600 
    223 H223       -5.0277  -17.6825  -50.9109 H         1 UNK         0.0600 
    224 H224       -4.5919  -17.1900  -52.5384 H         1 UNK         0.0600 
    225 H225       -7.0173  -19.9666  -53.6718 H         1 UNK         0.3000 
    226 H226       -6.1232  -19.4942  -56.3558 H         1 UNK         0.0600 
    227 H227       -8.5098  -19.3581  -55.6733 H         1 UNK         0.0600 
    228 H228       -8.3083  -20.5552  -56.9416 H         1 UNK         0.0600 
    229 H229       -8.5190  -21.0770  -55.2747 H         1 UNK         0.0600 
    230 H230       -5.6366  -22.2027  -54.2223 H         1 UNK         0.3000 
    231 H231       -4.9972  -24.0754  -56.4433 H         1 UNK         0.0600 
    232 H232       -4.7544  -25.7395  -54.6288 H         1 UNK         0.0600 
    233 H233       -6.3392  -24.9854  -54.5607 H         1 UNK         0.0600 
    234 H234       -5.0905  -24.5195  -53.4126 H         1 UNK         0.0600 
    235 H235       -3.5493  -22.2904  -53.6913 H         1 UNK         0.3000 
    236 H236       -0.8943  -23.2603  -54.0313 H         1 UNK         0.0600 
    237 H237       -1.5933  -22.3132  -51.8991 H         1 UNK         0.0600 
    238 H238       -0.3091  -21.3040  -52.5421 H         1 UNK         0.0600 
    239 H239       -1.9814  -20.7672  -52.6365 H         1 UNK         0.0600 
    240 H240       -2.4745  -20.2549  -55.2482 H         1 UNK         0.3000 
    241 H241       -0.0528  -19.6055  -56.8636 H         1 UNK         0.0600 
    242 H242       -0.1374  -20.3513  -58.9870 H         1 UNK         0.3800 
    243 H243       -1.6100  -20.4936  -59.9048 H         1 UNK         0.3800 
    244 H244       -1.1744  -17.3747  -57.1612 H         1 UNK         0.0800 
    245 H245       -2.4356  -17.8601  -56.0630 H         1 UNK         0.0800 
    246 H246       -2.3445  -16.9998  -53.7055 H         1 UNK         0.0800 
    247 H247       -1.8375  -18.6608  -53.5132 H         1 UNK         0.0800 
@<TRIPOS>BOND
     1    1    2 1    
     2    1  127 1    
     3    1  128 1    
     4    1  129 1    
     5    2    3 2    
     6    2    4 am   BACKBONE|DICT|INTERRES
     7    4    5 1    
     8    4  130 1    
     9    5    6 1    
    10    5   65 1    
    11    5  131 1    
    12    6    7 1    
    13    6  132 1    
    14    6  133 1    
    15    7    8 1    
    16    8    9 1    
    17    8  134 1    
    18    8  135 1    
    19    9   10 ar   
    20    9   14 ar   
    21   10   11 ar   
    22   10  136 1    
    23   11   12 ar   
    24   11  126 1    
    25   12   13 ar   
    26   12  137 1    
    27   13   14 ar   
    28   13   15 1    
    29   14  138 1    
    30   15   16 1    
    31   15  139 1    
    32   15  140 1    
    33   16   17 1    
    34   17   18 1    
    35   17  141 1    
    36   17  142 1    
    37   18   19 1    
    38   18   67 1    
    39   18  143 1    
    40   19   20 am   BACKBONE|DICT|INTERRES
    41   19  144 1    
    42   20   21 2    
    43   20   22 1    
    44   22   23 1    
    45   22   24 1    
    46   22  145 1    
    47   23  146 1    
    48   23  147 1    
    49   23  148 1    
    50   24   25 am   BACKBONE|DICT|INTERRES
    51   24  149 1    
    52   25   26 2    
    53   25   27 1    
    54   27   28 1    
    55   27   29 1    
    56   27  150 1    
    57   28  151 1    
    58   28  152 1    
    59   28  153 1    
    60   29   30 am   BACKBONE|DICT|INTERRES
    61   29  154 1    
    62   30   31 2    
    63   30   32 1    
    64   32   33 1    
    65   32   34 1    
    66   32  155 1    
    67   33  156 1    
    68   33  157 1    
    69   33  158 1    
    70   34   35 am   BACKBONE|DICT|INTERRES
    71   34  159 1    
    72   35   36 2    
    73   35   37 1    
    74   37   38 1    
    75   37   39 1    
    76   37  160 1    
    77   38  161 1    
    78   38  162 1    
    79   38  163 1    
    80   39   40 am   BACKBONE|DICT|INTERRES
    81   39  164 1    
    82   40   41 2    
    83   40   42 1    
    84   42   43 1    
    85   42   44 1    
    86   42  165 1    
    87   43  166 1    
    88   43  167 1    
    89   43  168 1    
    90   44   45 am   BACKBONE|DICT|INTERRES
    91   44  169 1    
    92   45   46 2    
    93   45   47 1    
    94   47   48 1    
    95   47   49 1    
    96   47  170 1    
    97   48  171 1    
    98   48  172 1    
    99   48  173 1    
   100   49   50 am   BACKBONE|DICT|INTERRES
   101   49  174 1    
   102   50   51 2    
   103   50   52 1    
   104   52   53 1    
   105   52   54 1    
   106   52  175 1    
   107   53  176 1    
   108   53  177 1    
   109   53  178 1    
   110   54   55 am   BACKBONE|DICT|INTERRES
   111   54  179 1    
   112   55   56 2    
   113   55   57 1    
   114   57   58 1    
   115   57   59 1    
   116   57  180 1    
   117   58  181 1    
   118   58  182 1    
   119   58  183 1    
   120   59   60 am   BACKBONE|DICT|INTERRES
   121   59  184 1    
   122   60   61 2    
   123   60   62 1    
   124   62   63 1    
   125   62   64 1    
   126   62  185 1    
   127   63  186 1    
   128   63  187 1    
   129   63  188 1    
   130   64   65 am   BACKBONE|DICT|INTERRES
   131   64  189 1    
   132   65   66 2    
   133   67   68 2    
   134   67   69 am   BACKBONE|DICT|INTERRES
   135   69   70 1    
   136   69  190 1    
   137   70   71 1    
   138   70   72 1    
   139   70  191 1    
   140   71  192 1    
   141   71  193 1    
   142   71  194 1    
   143   72   73 2    
   144   72   74 am   BACKBONE|DICT|INTERRES
   145   74   75 1    
   146   74  195 1    
   147   75   76 1    
   148   75   77 1    
   149   75  196 1    
   150   76  197 1    
   151   76  198 1    
   152   76  199 1    
   153   77   78 2    
   154   77   79 am   BACKBONE|DICT|INTERRES
   155   79   80 1    
   156   79  200 1    
   157   80   81 1    
   158   80   82 1    
   159   80  201 1    
   160   81  202 1    
   161   81  203 1    
   162   81  204 1    
   163   82   83 2    
   164   82   84 am   BACKBONE|DICT|INTERRES
   165   84   85 1    
   166   84  205 1    
   167   85   86 1    
   168   85   87 1    
   169   85  206 1    
   170   86  207 1    
   171   86  208 1    
   172   86  209 1    
   173   87   88 2    
   174   87   89 am   BACKBONE|DICT|INTERRES
   175   89   90 1    
   176   89  210 1    
   177   90   91 1    
   178   90   92 1    
   179   90  211 1    
   180   91  212 1    
   181   91  213 1    
   182   91  214 1    
   183   92   93 2    
   184   92   94 am   BACKBONE|DICT|INTERRES
   185   94   95 1    
   186   94  215 1    
   187   95   96 1    
   188   95   97 1    
   189   95  216 1    
   190   96  217 1    
   191   96  218 1    
   192   96  219 1    
   193   97   98 2    
   194   97   99 am   BACKBONE|DICT|INTERRES
   195   99  100 1    
   196   99  220 1    
   197  100  101 1    
   198  100  102 1    
   199  100  221 1    
   200  101  222 1    
   201  101  223 1    
   202  101  224 1    
   203  102  103 2    
   204  102  104 am   BACKBONE|DICT|INTERRES
   205  104  105 1    
   206  104  225 1    
   207  105  106 1    
   208  105  107 1    
   209  105  226 1    
   210  106  227 1    
   211  106  228 1    
   212  106  229 1    
   213  107  108 2    
   214  107  109 am   BACKBONE|DICT|INTERRES
   215  109  110 1    
   216  109  230 1    
   217  110  111 1    
   218  110  112 1    
   219  110  231 1    
   220  111  232 1    
   221  111  233 1    
   222  111  234 1    
   223  112  113 2    
   224  112  114 am   BACKBONE|DICT|INTERRES
   225  114  115 1    
   226  114  235 1    
   227  115  116 1    
   228  115  117 1    
   229  115  236 1    
   230  116  237 1    
   231  116  238 1    
   232  116  239 1    
   233  117  118 2    
   234  117  119 am   BACKBONE|DICT|INTERRES
   235  119  120 1    
   236  119  240 1    
   237  120  121 1    
   238  120  124 1    
   239  120  241 1    
   240  121  122 am   BACKBONE|DICT|INTERRES
   241  121  123 2    
   242  122  242 1    
   243  122  243 1    
   244  124  125 1    
   245  124  244 1    
   246  124  245 1    
   247  125  126 1    
   248  126  246 1    
   249  126  247 1    
@<TRIPOS>SUBSTRUCTURE
     1 UNK         1 GROUP             0       ****    0 ROOT    
