@<TRIPOS>MOLECULE
3R540
247   249    1
SMALL
USER_CHARGES


@<TRIPOS>ATOM
      1 CA         -1.8853   -9.6294  -42.6344 C.3       0 UNK        -0.1800 
      2 C          -1.5381  -10.2412  -43.9836 C.2       0 UNK         0.5000 
      3 O          -0.5916   -9.7974  -44.6349 O.2       0 UNK        -0.5000 
      4 N          -2.2855  -11.2726  -44.4013 N.am      1 UNK        -0.5000 
      5 CA         -2.1129  -11.9744  -45.6813 C.3       1 UNK         0.1400 
      6 C6         -3.3234  -12.8633  -46.0453 C.3       23 UNK        -0.0398 
      7 S7         -3.7207  -14.1487  -44.8101 S.3       23 UNK        -0.2404 
      8 C8         -5.1314  -14.9644  -45.6218 C.3       23 UNK        -0.0205 
      9 C9         -4.6831  -15.9917  -46.6511 C.ar      23 UNK        -0.0193 
     10 C10        -4.4394  -15.6168  -47.9767 C.ar      23 UNK        -0.1150 
     11 C11        -4.0233  -16.5632  -48.9174 C.ar      23 UNK        -0.0193 
     12 C12        -3.8873  -17.8988  -48.5309 C.ar      23 UNK        -0.1150 
     13 C13        -4.1660  -18.2949  -47.2213 C.ar      23 UNK        -0.0193 
     14 C14        -4.5399  -17.3316  -46.2803 C.ar      23 UNK        -0.1150 
     15 C15        -4.0828  -19.7621  -46.8297 C.3       23 UNK        -0.0205 
     16 S16        -5.7318  -20.4250  -46.4208 S.3       23 UNK        -0.2404 
     17 C17        -5.4991  -22.2301  -46.2380 C.3       23 UNK        -0.0398 
     18 CA         -4.1050  -22.7164  -45.7690 C.3       11 UNK         0.1400 
     19 N          -3.7206  -22.1738  -44.4570 N.am      11 UNK        -0.5000 
     20 C          -2.4983  -22.2723  -43.9158 C.2       10 UNK         0.5000 
     21 O          -1.5930  -22.9601  -44.3934 O.2       10 UNK        -0.5000 
     22 CA         -2.2203  -21.4285  -42.6616 C.3       10 UNK         0.1400 
     23 CB         -1.4699  -22.2368  -41.5904 C.3       10 UNK        -0.1800 
     24 N          -1.3947  -20.3016  -43.0774 N.am      10 UNK        -0.5000 
     25 C          -1.8764  -19.1701  -43.6092 C.2       9 UNK         0.5000 
     26 O          -3.0552  -18.8280  -43.5224 O.2       9 UNK        -0.5000 
     27 CA         -0.8867  -18.3018  -44.4142 C.3       9 UNK         0.1400 
     28 CB         -0.3640  -17.1414  -43.5553 C.3       9 UNK        -0.1800 
     29 N           0.2538  -19.0668  -44.9316 N.am      9 UNK        -0.5000 
     30 C           0.1803  -20.0532  -45.8403 C.2       8 UNK         0.5000 
     31 O          -0.8492  -20.3269  -46.4557 O.2       8 UNK        -0.5000 
     32 CA          1.4468  -20.9082  -46.0564 C.3       8 UNK         0.1400 
     33 CB          1.6036  -21.4095  -47.5021 C.3       8 UNK        -0.1800 
     34 N           2.6760  -20.2315  -45.6429 N.am      8 UNK        -0.5000 
     35 C           3.2009  -20.2665  -44.4098 C.2       7 UNK         0.5000 
     36 O           2.6834  -20.8721  -43.4712 O.2       7 UNK        -0.5000 
     37 CA          4.5059  -19.4789  -44.1714 C.3       7 UNK         0.1400 
     38 CB          5.7096  -20.4330  -44.1392 C.3       7 UNK        -0.1800 
     39 N           4.7529  -18.4399  -45.1738 N.am      7 UNK        -0.5000 
     40 C           4.0364  -17.3157  -45.3015 C.2       6 UNK         0.5000 
     41 O           3.1122  -17.0135  -44.5432 O.2       6 UNK        -0.5000 
     42 CA          4.3863  -16.3821  -46.4809 C.3       6 UNK         0.1400 
     43 CB          5.4345  -16.9525  -47.4641 C.3       6 UNK        -0.1800 
     44 N           3.1789  -15.9661  -47.1997 N.am      6 UNK        -0.5000 
     45 C           2.2903  -16.7700  -47.8039 C.2       5 UNK         0.5000 
     46 O           2.4273  -17.9908  -47.8918 O.2       5 UNK        -0.5000 
     47 CA          1.0223  -16.1174  -48.3862 C.3       5 UNK         0.1400 
     48 CB         -0.1780  -16.3769  -47.4617 C.3       5 UNK        -0.1800 
     49 N           1.1384  -14.6765  -48.6104 N.am      5 UNK        -0.5000 
     50 C           1.8153  -14.1083  -49.6176 C.2       4 UNK         0.5000 
     51 O           2.5057  -14.7361  -50.4193 O.2       4 UNK        -0.5000 
     52 CA          1.6975  -12.5818  -49.7565 C.3       4 UNK         0.1400 
     53 CB          0.3448  -12.2070  -50.3845 C.3       4 UNK        -0.1800 
     54 N           1.8234  -11.9238  -48.4565 N.am      4 UNK        -0.5000 
     55 C           2.8860  -11.2138  -48.0508 C.2       3 UNK         0.5000 
     56 O           3.8639  -10.9789  -48.7616 O.2       3 UNK        -0.5000 
     57 CA          2.8679  -10.6794  -46.6007 C.3       3 UNK         0.1400 
     58 CB          2.3437   -9.2361  -46.5678 C.3       3 UNK        -0.1800 
     59 N           2.0665  -11.4951  -45.6860 N.am      3 UNK        -0.5000 
     60 C           2.3287  -12.7741  -45.3790 C.2       2 UNK         0.5000 
     61 O           3.3492  -13.3566  -45.7401 O.2       2 UNK        -0.5000 
     62 CA          1.2540  -13.5602  -44.5993 C.3       2 UNK         0.1400 
     63 CB          1.6519  -13.7086  -43.1242 C.3       2 UNK        -0.1800 
     64 N          -0.0905  -12.9811  -44.6772 N.am      2 UNK        -0.5000 
     65 C          -0.7831  -12.7483  -45.8024 C.2       1 UNK         0.5000 
     66 O          -0.3780  -13.0644  -46.9207 O.2       1 UNK        -0.5000 
     67 C          -4.0091  -24.2527  -45.8912 C.2       11 UNK         0.5000 
     68 O          -4.0261  -24.7538  -47.0145 O.2       11 UNK        -0.5000 
     69 N          -3.8449  -24.9781  -44.7765 N.am      12 UNK        -0.5000 
     70 CA         -3.5018  -26.4031  -44.7609 C.3       12 UNK         0.1400 
     71 CB         -3.4781  -26.9020  -43.3088 C.3       12 UNK        -0.1800 
     72 C          -2.1586  -26.7033  -45.4610 C.2       12 UNK         0.5000 
     73 O          -2.0430  -27.7235  -46.1402 O.2       12 UNK        -0.5000 
     74 N          -1.1918  -25.7800  -45.3412 N.am      13 UNK        -0.5000 
     75 CA          0.0934  -25.8266  -46.0448 C.3       13 UNK         0.1400 
     76 CB          1.1088  -24.9609  -45.2864 C.3       13 UNK        -0.1800 
     77 C          -0.0151  -25.3849  -47.5198 C.2       13 UNK         0.5000 
     78 O           0.8820  -25.6827  -48.3077 O.2       13 UNK        -0.5000 
     79 N          -1.1223  -24.7187  -47.8741 N.am      14 UNK        -0.5000 
     80 CA         -1.5004  -24.3367  -49.2364 C.3       14 UNK         0.1400 
     81 CB         -2.1750  -22.9525  -49.1914 C.3       14 UNK        -0.1800 
     82 C          -2.4377  -25.3835  -49.8774 C.2       14 UNK         0.5000 
     83 O          -3.0933  -25.0737  -50.8730 O.2       14 UNK        -0.5000 
     84 N          -2.5371  -26.5782  -49.2696 N.am      15 UNK        -0.5000 
     85 CA         -3.3678  -27.7233  -49.6647 C.3       15 UNK         0.1400 
     86 CB         -2.8439  -28.3290  -50.9833 C.3       15 UNK        -0.1800 
     87 C          -4.8801  -27.4095  -49.7194 C.2       15 UNK         0.5000 
     88 O          -5.6106  -28.0464  -50.4797 O.2       15 UNK        -0.5000 
     89 N          -5.3119  -26.4093  -48.9356 N.am      16 UNK        -0.5000 
     90 CA         -6.6464  -25.8025  -48.8906 C.3       16 UNK         0.1400 
     91 CB         -7.7098  -26.8271  -48.4453 C.3       16 UNK        -0.1800 
     92 C          -7.0492  -25.0554  -50.1829 C.2       16 UNK         0.5000 
     93 O          -8.2045  -24.6443  -50.3012 O.2       16 UNK        -0.5000 
     94 N          -6.1074  -24.8658  -51.1195 N.am      17 UNK        -0.5000 
     95 CA         -6.3308  -24.1642  -52.3839 C.3       17 UNK         0.1400 
     96 CB         -5.3305  -24.6790  -53.4311 C.3       17 UNK        -0.1800 
     97 C          -6.2032  -22.6394  -52.2339 C.2       17 UNK         0.5000 
     98 O          -6.8008  -21.9066  -53.0228 O.2       17 UNK        -0.5000 
     99 N          -5.4062  -22.1950  -51.2485 N.am      18 UNK        -0.5000 
    100 CA        -5.0552  -20.8128  -50.8861 C.3       18 UNK         0.1400 
    101 CB        -6.2972  -19.9958  -50.4863 C.3       18 UNK        -0.1800 
    102 C         -4.2123  -20.0763  -51.9464 C.2       18 UNK         0.5000 
    103 O         -3.1857  -19.4894  -51.6049 O.2       18 UNK        -0.5000 
    104 N         -4.6059  -20.1682  -53.2222 N.am      19 UNK        -0.5000 
    105 CA        -3.8969  -19.6188  -54.3820 C.3       19 UNK         0.1400 
    106 CB        -4.7237  -19.8894  -55.6471 C.3       19 UNK        -0.1800 
    107 C         -2.4650  -20.1667  -54.5444 C.2       19 UNK         0.5000 
    108 O         -1.6029  -19.4666  -55.0735 O.2       19 UNK        -0.5000 
    109 N         -2.2248  -21.3828  -54.0345 N.am      20 UNK        -0.5000 
    110 CA        -0.9093  -22.0143  -53.9354 C.3       20 UNK         0.1400 
    111 CB        -1.0939  -23.4611  -53.4518 C.3       20 UNK        -0.1800 
    112 C          0.0728  -21.2611  -53.0127 C.2       20 UNK         0.5000 
    113 O          1.2829  -21.3858  -53.2037 O.2       20 UNK        -0.5000 
    114 N         -0.4516  -20.4991  -52.0413 N.am      21 UNK        -0.5000 
    115 CA         0.3347  -19.6507  -51.1517 C.3       21 UNK         0.1400 
    116 CB        -0.3832  -19.5094  -49.8004 C.3       21 UNK        -0.1800 
    117 C          0.5758  -18.2750  -51.7896 C.2       21 UNK         0.5000 
    118 O          1.7288  -17.8751  -51.9489 O.2       21 UNK        -0.5000 
    119 N         -0.5166  -17.5743  -52.1238 N.am      22 UNK        -0.5000 
    120 CA        -0.4804  -16.1788  -52.5964 C.3       22 UNK         0.1400 
    121 C         -0.0762  -15.9935  -54.0867 C.2       22 UNK         0.5000 
    122 N         -0.1233  -17.0124  -54.9344 N.am      22 UNK        -0.7600 
    123 O          0.3001  -14.8941  -54.4835 O.2       22 UNK        -0.5000 
    124 C124       -1.7946  -15.4203  -52.2806 C.3       23 UNK        -0.0398 
    125 S125       -2.1155  -15.3324  -50.4867 S.3       23 UNK        -0.2404 
    126 C126       -3.7343  -16.1490  -50.3522 C.3       23 UNK        -0.0205 
    127 H127       -1.0335   -9.7044  -41.9584 H         1 UNK         0.0600 
    128 H128       -2.7348  -10.1297  -42.1690 H         1 UNK         0.0600 
    129 H129       -2.1349   -8.5752  -42.7545 H         1 UNK         0.0600 
    130 H130       -3.0383  -11.6128  -43.8190 H         1 UNK         0.3000 
    131 H131       -2.0604  -11.1991  -46.4489 H         1 UNK         0.0600 
    132 H132       -3.1524  -13.3362  -47.0126 H         1 UNK         0.0800 
    133 H133       -4.2049  -12.2340  -46.1750 H         1 UNK         0.0800 
    134 H134       -5.7791  -14.2194  -46.0864 H         1 UNK         0.0800 
    135 H135       -5.7368  -15.4520  -44.8562 H         1 UNK         0.0800 
    136 H136       -4.5647  -14.5877  -48.2803 H         1 UNK         0.1150 
    137 H137       -3.5778  -18.6358  -49.2545 H         1 UNK         0.1150 
    138 H138       -4.7440  -17.6334  -45.2624 H         1 UNK         0.1150 
    139 H139       -3.4206  -19.8635  -45.9728 H         1 UNK         0.0800 
    140 H140       -3.6410  -20.3449  -47.6389 H         1 UNK         0.0800 
    141 H141       -5.7386  -22.6617  -47.2120 H         1 UNK         0.0800 
    142 H142       -6.2694  -22.5947  -45.5564 H         1 UNK         0.0800 
    143 H143       -3.3636  -22.3453  -46.4773 H         1 UNK         0.0600 
    144 H144       -4.4008  -21.5709  -44.0156 H         1 UNK         0.3000 
    145 H145       -3.1622  -21.0775  -42.2348 H         1 UNK         0.0600 
    146 H146       -1.2876  -21.6336  -40.7009 H         1 UNK         0.0600 
    147 H147       -2.0508  -23.1065  -41.2809 H         1 UNK         0.0600 
    148 H148       -0.5054  -22.5970  -41.9513 H         1 UNK         0.0600 
    149 H149       -0.4159  -20.5050  -43.2195 H         1 UNK         0.3000 
    150 H150       -1.4341  -17.8877  -45.2631 H         1 UNK         0.0600 
    151 H151        0.1546  -17.5002  -42.6655 H         1 UNK         0.0600 
    152 H152       -1.1825  -16.4996  -43.2265 H         1 UNK         0.0600 
    153 H153        0.3319  -16.5192  -44.1153 H         1 UNK         0.0600 
    154 H154        1.1499  -18.8827  -44.5032 H         1 UNK         0.3000 
    155 H155        1.3093  -21.7887  -45.4296 H         1 UNK         0.0600 
    156 H156        1.7732  -20.5886  -48.1974 H         1 UNK         0.0600 
    157 H157        0.7177  -21.9525  -47.8328 H         1 UNK         0.0600 
    158 H158        2.4462  -22.0956  -47.5874 H         1 UNK         0.0600 
    159 H159        3.1118  -19.6448  -46.3431 H         1 UNK         0.3000 
    160 H160        4.4239  -18.9982  -43.1943 H         1 UNK         0.0600 
    161 H161        5.8508  -20.9353  -45.0971 H         1 UNK         0.0600 
    162 H162        5.5763  -21.2053  -43.3804 H         1 UNK         0.0600 
    163 H163        6.6299  -19.9000  -43.8994 H         1 UNK         0.0600 
    164 H164        5.4899  -18.6210  -45.8399 H         1 UNK         0.3000 
    165 H165        4.8141  -15.4837  -46.0363 H         1 UNK         0.0600 
    166 H166        5.6281  -16.2480  -48.2732 H         1 UNK         0.0600 
    167 H167        5.1107  -17.8899  -47.9175 H         1 UNK         0.0600 
    168 H168        6.3882  -17.1320  -46.9665 H         1 UNK         0.0600 
    169 H169        2.9666  -14.9790  -47.1331 H         1 UNK         0.3000 
    170 H170        0.8181  -16.5896  -49.3482 H         1 UNK         0.0600 
    171 H171       -0.3780  -17.4443  -47.3745 H         1 UNK         0.0600 
    172 H172       -0.0046  -15.9905  -46.4586 H         1 UNK         0.0600 
    173 H173       -1.0881  -15.9119  -47.8378 H         1 UNK         0.0600 
    174 H174        0.5660  -14.0863  -48.0098 H         1 UNK         0.3000 
    175 H175        2.4856  -12.2478  -50.4345 H         1 UNK         0.0600 
    176 H176       -0.4927  -12.5058  -49.7524 H         1 UNK         0.0600 
    177 H177        0.2725  -11.1319  -50.5488 H         1 UNK         0.0600 
    178 H178        0.2146  -12.6947  -51.3517 H         1 UNK         0.0600 
    179 H179        1.0718  -12.0970  -47.7976 H         1 UNK         0.3000 
    180 H180        3.8973  -10.6797  -46.2364 H         1 UNK         0.0600 
    181 H181        1.3066   -9.1784  -46.9010 H         1 UNK         0.0600 
    182 H182        2.9351   -8.5893  -47.2172 H         1 UNK         0.0600 
    183 H183        2.3947   -8.8205  -45.5612 H         1 UNK         0.0600 
    184 H184        1.2103  -11.0781  -45.3419 H         1 UNK         0.3000 
    185 H185        1.2121  -14.5555  -45.0427 H         1 UNK         0.0600 
    186 H186        1.6986  -12.7422  -42.6208 H         1 UNK         0.0600 
    187 H187        0.9425  -14.3368  -42.5852 H         1 UNK         0.0600 
    188 H188        2.6324  -14.1781  -43.0311 H         1 UNK         0.0600 
    189 H189       -0.5004  -12.6774  -43.8062 H         1 UNK         0.3000 
    190 H190       -3.8371  -24.4976  -43.8892 H         1 UNK         0.3000 
    191 H191       -4.2843  -26.9428  -45.2988 H         1 UNK         0.0600 
    192 H192       -3.2433  -27.9664  -43.2656 H         1 UNK         0.0600 
    193 H193       -4.4470  -26.7644  -42.8286 H         1 UNK         0.0600 
    194 H194       -2.7300  -26.3759  -42.7142 H         1 UNK         0.0600 
    195 H195       -1.3757  -24.9368  -44.8054 H         1 UNK         0.3000 
    196 H196        0.4599  -26.8553  -46.0409 H         1 UNK         0.0600 
    197 H197        0.7647  -23.9323  -45.2020 H         1 UNK         0.0600 
    198 H198        1.2735  -25.3403  -44.2779 H         1 UNK         0.0600 
    199 H199        2.0752  -24.9472  -45.7922 H         1 UNK         0.0600 
    200 H200       -1.8288  -24.5645  -47.1685 H         1 UNK         0.3000 
    201 H201       -0.6067  -24.2615  -49.8588 H         1 UNK         0.0600 
    202 H202       -3.2078  -23.0126  -48.8487 H         1 UNK         0.0600 
    203 H203       -2.1878  -22.4936  -50.1805 H         1 UNK         0.0600 
    204 H204       -1.6484  -22.2754  -48.5204 H         1 UNK         0.0600 
    205 H205       -1.9989  -26.7141  -48.4254 H         1 UNK         0.3000 
    206 H206       -3.2441  -28.4727  -48.8817 H         1 UNK         0.0600 
    207 H207       -1.7785  -28.5501  -50.9196 H         1 UNK         0.0600 
    208 H208       -3.3535  -29.2645  -51.2167 H         1 UNK         0.0600 
    209 H209       -2.9966  -27.6540  -51.8262 H         1 UNK         0.0600 
    210 H210       -4.6287  -25.9444  -48.3420 H         1 UNK         0.3000 
    211 H211       -6.5925  -25.0370  -48.1158 H         1 UNK         0.0600 
    212 H212       -8.6637  -26.3383  -48.2442 H         1 UNK         0.0600 
    213 H213       -7.4084  -27.3348  -47.5290 H         1 UNK         0.0600 
    214 H214       -7.8892  -27.5856  -49.2074 H         1 UNK         0.0600 
    215 H215       -5.1686  -25.2137  -50.9554 H         1 UNK         0.3000 
    216 H216       -7.3384  -24.3832  -52.7436 H         1 UNK         0.0600 
    217 H217       -4.3004  -24.4493  -53.1571 H         1 UNK         0.0600 
    218 H218       -5.5178  -24.2251  -54.4050 H         1 UNK         0.0600 
    219 H219       -5.4102  -25.7592  -53.5548 H         1 UNK         0.0600 
    220 H220       -4.9493  -22.9081  -50.6982 H         1 UNK         0.3000 
    221 H221       -4.4266  -20.8950  -49.9985 H         1 UNK         0.0600 
    222 H222       -6.8334  -20.4747  -49.6668 H         1 UNK         0.0600 
    223 H223       -6.9929  -19.8716  -51.3161 H         1 UNK         0.0600 
    224 H224       -6.0170  -18.9976  -50.1489 H         1 UNK         0.0600 
    225 H225       -5.4618  -20.6869  -53.4048 H         1 UNK         0.3000 
    226 H226       -3.8197  -18.5387  -54.2422 H         1 UNK         0.0600 
    227 H227       -4.8602  -20.9583  -55.8164 H         1 UNK         0.0600 
    228 H228       -5.7111  -19.4324  -55.5776 H         1 UNK         0.0600 
    229 H229       -4.2355  -19.4750  -56.5302 H         1 UNK         0.0600 
    230 H230       -2.9975  -21.8823  -53.6216 H         1 UNK         0.3000 
    231 H231       -0.4713  -22.0368  -54.9353 H         1 UNK         0.0600 
    232 H232       -1.5487  -23.4964  -52.4619 H         1 UNK         0.0600 
    233 H233       -0.1363  -23.9797  -53.3913 H         1 UNK         0.0600 
    234 H234       -1.7279  -24.0295  -54.1325 H         1 UNK         0.0600 
    235 H235       -1.4584  -20.3993  -51.9765 H         1 UNK         0.3000 
    236 H236        1.3034  -20.1185  -50.9623 H         1 UNK         0.0600 
    237 H237       -0.5943  -20.4820  -49.3642 H         1 UNK         0.0600 
    238 H238        0.2398  -18.9708  -49.0894 H         1 UNK         0.0600 
    239 H239       -1.3236  -18.9663  -49.8771 H         1 UNK         0.0600 
    240 H240       -1.4291  -17.9802  -51.9650 H         1 UNK         0.3000 
    241 H241        0.3065  -15.6744  -52.0313 H         1 UNK         0.0600 
    242 H242        0.1526  -16.8616  -55.8913 H         1 UNK         0.3800 
    243 H243       -0.4996  -17.9172  -54.6708 H         1 UNK         0.3800 
    244 H244       -2.6367  -15.8843  -52.7961 H         1 UNK         0.0800 
    245 H245       -1.7430  -14.3931  -52.6462 H         1 UNK         0.0800 
    246 H246       -3.7620  -17.0199  -51.0063 H         1 UNK         0.0800 
    247 H247       -4.5120  -15.4716  -50.7073 H         1 UNK         0.0800 
@<TRIPOS>BOND
     1    1    2 1    
     2    1  127 1    
     3    1  128 1    
     4    1  129 1    
     5    2    3 2    
     6    2    4 am   BACKBONE|DICT|INTERRES
     7    4    5 1    
     8    4  130 1    
     9    5    6 1    
    10    5   65 1    
    11    5  131 1    
    12    6    7 1    
    13    6  132 1    
    14    6  133 1    
    15    7    8 1    
    16    8    9 1    
    17    8  134 1    
    18    8  135 1    
    19    9   10 ar   
    20    9   14 ar   
    21   10   11 ar   
    22   10  136 1    
    23   11   12 ar   
    24   11  126 1    
    25   12   13 ar   
    26   12  137 1    
    27   13   14 ar   
    28   13   15 1    
    29   14  138 1    
    30   15   16 1    
    31   15  139 1    
    32   15  140 1    
    33   16   17 1    
    34   17   18 1    
    35   17  141 1    
    36   17  142 1    
    37   18   19 1    
    38   18   67 1    
    39   18  143 1    
    40   19   20 am   BACKBONE|DICT|INTERRES
    41   19  144 1    
    42   20   21 2    
    43   20   22 1    
    44   22   23 1    
    45   22   24 1    
    46   22  145 1    
    47   23  146 1    
    48   23  147 1    
    49   23  148 1    
    50   24   25 am   BACKBONE|DICT|INTERRES
    51   24  149 1    
    52   25   26 2    
    53   25   27 1    
    54   27   28 1    
    55   27   29 1    
    56   27  150 1    
    57   28  151 1    
    58   28  152 1    
    59   28  153 1    
    60   29   30 am   BACKBONE|DICT|INTERRES
    61   29  154 1    
    62   30   31 2    
    63   30   32 1    
    64   32   33 1    
    65   32   34 1    
    66   32  155 1    
    67   33  156 1    
    68   33  157 1    
    69   33  158 1    
    70   34   35 am   BACKBONE|DICT|INTERRES
    71   34  159 1    
    72   35   36 2    
    73   35   37 1    
    74   37   38 1    
    75   37   39 1    
    76   37  160 1    
    77   38  161 1    
    78   38  162 1    
    79   38  163 1    
    80   39   40 am   BACKBONE|DICT|INTERRES
    81   39  164 1    
    82   40   41 2    
    83   40   42 1    
    84   42   43 1    
    85   42   44 1    
    86   42  165 1    
    87   43  166 1    
    88   43  167 1    
    89   43  168 1    
    90   44   45 am   BACKBONE|DICT|INTERRES
    91   44  169 1    
    92   45   46 2    
    93   45   47 1    
    94   47   48 1    
    95   47   49 1    
    96   47  170 1    
    97   48  171 1    
    98   48  172 1    
    99   48  173 1    
   100   49   50 am   BACKBONE|DICT|INTERRES
   101   49  174 1    
   102   50   51 2    
   103   50   52 1    
   104   52   53 1    
   105   52   54 1    
   106   52  175 1    
   107   53  176 1    
   108   53  177 1    
   109   53  178 1    
   110   54   55 am   BACKBONE|DICT|INTERRES
   111   54  179 1    
   112   55   56 2    
   113   55   57 1    
   114   57   58 1    
   115   57   59 1    
   116   57  180 1    
   117   58  181 1    
   118   58  182 1    
   119   58  183 1    
   120   59   60 am   BACKBONE|DICT|INTERRES
   121   59  184 1    
   122   60   61 2    
   123   60   62 1    
   124   62   63 1    
   125   62   64 1    
   126   62  185 1    
   127   63  186 1    
   128   63  187 1    
   129   63  188 1    
   130   64   65 am   BACKBONE|DICT|INTERRES
   131   64  189 1    
   132   65   66 2    
   133   67   68 2    
   134   67   69 am   BACKBONE|DICT|INTERRES
   135   69   70 1    
   136   69  190 1    
   137   70   71 1    
   138   70   72 1    
   139   70  191 1    
   140   71  192 1    
   141   71  193 1    
   142   71  194 1    
   143   72   73 2    
   144   72   74 am   BACKBONE|DICT|INTERRES
   145   74   75 1    
   146   74  195 1    
   147   75   76 1    
   148   75   77 1    
   149   75  196 1    
   150   76  197 1    
   151   76  198 1    
   152   76  199 1    
   153   77   78 2    
   154   77   79 am   BACKBONE|DICT|INTERRES
   155   79   80 1    
   156   79  200 1    
   157   80   81 1    
   158   80   82 1    
   159   80  201 1    
   160   81  202 1    
   161   81  203 1    
   162   81  204 1    
   163   82   83 2    
   164   82   84 am   BACKBONE|DICT|INTERRES
   165   84   85 1    
   166   84  205 1    
   167   85   86 1    
   168   85   87 1    
   169   85  206 1    
   170   86  207 1    
   171   86  208 1    
   172   86  209 1    
   173   87   88 2    
   174   87   89 am   BACKBONE|DICT|INTERRES
   175   89   90 1    
   176   89  210 1    
   177   90   91 1    
   178   90   92 1    
   179   90  211 1    
   180   91  212 1    
   181   91  213 1    
   182   91  214 1    
   183   92   93 2    
   184   92   94 am   BACKBONE|DICT|INTERRES
   185   94   95 1    
   186   94  215 1    
   187   95   96 1    
   188   95   97 1    
   189   95  216 1    
   190   96  217 1    
   191   96  218 1    
   192   96  219 1    
   193   97   98 2    
   194   97   99 am   BACKBONE|DICT|INTERRES
   195   99  100 1    
   196   99  220 1    
   197  100  101 1    
   198  100  102 1    
   199  100  221 1    
   200  101  222 1    
   201  101  223 1    
   202  101  224 1    
   203  102  103 2    
   204  102  104 am   BACKBONE|DICT|INTERRES
   205  104  105 1    
   206  104  225 1    
   207  105  106 1    
   208  105  107 1    
   209  105  226 1    
   210  106  227 1    
   211  106  228 1    
   212  106  229 1    
   213  107  108 2    
   214  107  109 am   BACKBONE|DICT|INTERRES
   215  109  110 1    
   216  109  230 1    
   217  110  111 1    
   218  110  112 1    
   219  110  231 1    
   220  111  232 1    
   221  111  233 1    
   222  111  234 1    
   223  112  113 2    
   224  112  114 am   BACKBONE|DICT|INTERRES
   225  114  115 1    
   226  114  235 1    
   227  115  116 1    
   228  115  117 1    
   229  115  236 1    
   230  116  237 1    
   231  116  238 1    
   232  116  239 1    
   233  117  118 2    
   234  117  119 am   BACKBONE|DICT|INTERRES
   235  119  120 1    
   236  119  240 1    
   237  120  121 1    
   238  120  124 1    
   239  120  241 1    
   240  121  122 am   BACKBONE|DICT|INTERRES
   241  121  123 2    
   242  122  242 1    
   243  122  243 1    
   244  124  125 1    
   245  124  244 1    
   246  124  245 1    
   247  125  126 1    
   248  126  246 1    
   249  126  247 1    
@<TRIPOS>SUBSTRUCTURE
     1 UNK         1 GROUP             0       ****    0 ROOT    
