@<TRIPOS>MOLECULE
3R540
247   249    1
SMALL
USER_CHARGES


@<TRIPOS>ATOM
      1 CA          1.2194  -15.6090  -49.4547 C.3       0 UNK        -0.1800 
      2 C           0.3528  -14.7251  -48.5722 C.2       0 UNK         0.5000 
      3 O           0.7272  -13.5770  -48.3179 O.2       0 UNK        -0.5000 
      4 N          -0.7936  -15.2629  -48.1237 N.am      1 UNK        -0.5000 
      5 CA         -1.8418  -14.5993  -47.3343 C.3       1 UNK         0.1400 
      6 C6         -3.0941  -15.5019  -47.1645 C.3       23 UNK        -0.0398 
      7 S7         -2.9603  -16.6157  -45.7313 S.3       23 UNK        -0.2404 
      8 C8         -2.9886  -18.2655  -46.4871 C.3       23 UNK        -0.0205 
      9 C9         -1.7267  -18.5724  -47.2778 C.ar      23 UNK        -0.0193 
     10 C10        -1.7993  -18.8102  -48.6515 C.ar      23 UNK        -0.1150 
     11 C11        -0.6533  -19.1360  -49.3797 C.ar      23 UNK        -0.0193 
     12 C12         0.5764  -19.2255  -48.7223 C.ar      23 UNK        -0.1150 
     13 C13         0.6671  -18.9689  -47.3516 C.ar      23 UNK        -0.0193 
     14 C14        -0.4883  -18.6453  -46.6345 C.ar      23 UNK        -0.1150 
     15 C15         2.0177  -19.0142  -46.6538 C.3       23 UNK        -0.0205 
     16 S16         2.5799  -20.7129  -46.3254 S.3       23 UNK        -0.2404 
     17 C17         1.3458  -21.2889  -45.1117 C.3       23 UNK        -0.0398 
     18 CA          0.7685  -22.6807  -45.4537 C.3       11 UNK         0.1400 
     19 N           0.0770  -23.2677  -44.3060 N.am      11 UNK        -0.5000 
     20 C          -0.1858  -24.5739  -44.1656 C.2       10 UNK         0.5000 
     21 O           0.1590  -25.4307  -44.9776 O.2       10 UNK        -0.5000 
     22 CA         -1.0044  -24.9860  -42.9281 C.3       10 UNK         0.1400 
     23 CB         -0.0781  -25.2421  -41.7303 C.3       10 UNK        -0.1800 
     24 N          -2.0060  -23.9849  -42.5593 N.am      10 UNK        -0.5000 
     25 C          -3.0639  -23.6561  -43.3144 C.2       9 UNK         0.5000 
     26 O          -3.3393  -24.2088  -44.3782 O.2       9 UNK        -0.5000 
     27 CA         -3.9219  -22.4752  -42.8247 C.3       9 UNK         0.1400 
     28 CB         -5.0515  -22.9711  -41.9103 C.3       9 UNK        -0.1800 
     29 N          -3.1358  -21.4569  -42.1212 N.am      9 UNK        -0.5000 
     30 C          -2.2027  -20.6904  -42.6996 C.2       8 UNK         0.5000 
     31 O          -1.9079  -20.7511  -43.8967 O.2       8 UNK        -0.5000 
     32 CA         -1.4306  -19.7390  -41.7800 C.3       8 UNK         0.1400 
     33 CB         -0.0583  -20.3394  -41.4198 C.3       8 UNK        -0.1800 
     34 N          -1.2768  -18.4610  -42.4641 N.am      8 UNK        -0.5000 
     35 C          -0.8951  -17.3146  -41.8920 C.2       7 UNK         0.5000 
     36 O          -0.5869  -17.2034  -40.7029 O.2       7 UNK        -0.5000 
     37 CA         -0.9003  -16.0679  -42.7923 C.3       7 UNK         0.1400 
     38 CB         -2.1306  -15.1940  -42.5039 C.3       7 UNK        -0.1800 
     39 N           0.3066  -15.2637  -42.6274 N.am      7 UNK        -0.5000 
     40 C           1.5071  -15.6258  -43.0903 C.2       6 UNK         0.5000 
     41 O           1.7249  -16.6896  -43.6760 O.2       6 UNK        -0.5000 
     42 CA          2.6595  -14.6295  -42.8675 C.3       6 UNK         0.1400 
     43 CB          3.4837  -15.0211  -41.6317 C.3       6 UNK        -0.1800 
     44 N           3.5343  -14.5960  -44.0385 N.am      6 UNK        -0.5000 
     45 C           3.1853  -14.0704  -45.2186 C.2       5 UNK         0.5000 
     46 O           2.1632  -13.4013  -45.3982 O.2       5 UNK        -0.5000 
     47 CA          4.1261  -14.3734  -46.3931 C.3       5 UNK         0.1400 
     48 CB          4.0321  -15.8549  -46.8008 C.3       5 UNK        -0.1800 
     49 N           3.7593  -13.5310  -47.5241 N.am      5 UNK        -0.5000 
     50 C           4.5800  -13.1242  -48.4984 C.2       4 UNK         0.5000 
     51 O           5.7612  -13.4635  -48.5816 O.2       4 UNK        -0.5000 
     52 CA          3.9948  -12.1642  -49.5521 C.3       4 UNK         0.1400 
     53 CB          3.6139  -12.9163  -50.8360 C.3       4 UNK        -0.1800 
     54 N           2.8258  -11.4323  -49.0594 N.am      4 UNK        -0.5000 
     55 C           2.9015  -10.3392  -48.2870 C.2       3 UNK         0.5000 
     56 O           3.9636   -9.8208  -47.9403 O.2       3 UNK        -0.5000 
     57 CA          1.5778   -9.7309  -47.8071 C.3       3 UNK         0.1400 
     58 CB          0.9418   -8.8498  -48.8960 C.3       3 UNK        -0.1800 
     59 N           0.6398  -10.7706  -47.3901 N.am      3 UNK        -0.5000 
     60 C          -0.2573  -10.6383  -46.4091 C.2       2 UNK         0.5000 
     61 O          -0.4319   -9.6040  -45.7622 O.2       2 UNK        -0.5000 
     62 CA         -1.1336  -11.8716  -46.1661 C.3       2 UNK         0.1400 
     63 CB         -2.0570  -11.7512  -44.9405 C.3       2 UNK        -0.1800 
     64 N          -1.9384  -12.0887  -47.3686 N.am      2 UNK        -0.5000 
     65 C          -2.2532  -13.2450  -47.9671 C.2       1 UNK         0.5000 
     66 O          -2.8735  -13.2605  -49.0303 O.2       1 UNK        -0.5000 
     67 C          -0.1348  -22.6857  -46.7061 C.2       11 UNK         0.5000 
     68 O           0.3378  -23.0454  -47.7843 O.2       11 UNK        -0.5000 
     69 N          -1.4317  -22.3812  -46.5327 N.am      12 UNK        -0.5000 
     70 CA         -2.4485  -22.5243  -47.5800 C.3       12 UNK         0.1400 
     71 CB         -3.7965  -21.9728  -47.0942 C.3       12 UNK        -0.1800 
     72 C          -2.6063  -23.9821  -48.0502 C.2       12 UNK         0.5000 
     73 O          -2.6645  -24.2279  -49.2547 O.2       12 UNK        -0.5000 
     74 N          -2.6352  -24.9251  -47.0963 N.am      13 UNK        -0.5000 
     75 CA         -2.6790  -26.3671  -47.3442 C.3       13 UNK         0.1400 
     76 CB         -2.8665  -27.1229  -46.0211 C.3       13 UNK        -0.1800 
     77 C          -1.4414  -26.8770  -48.1041 C.2       13 UNK         0.5000 
     78 O          -1.5978  -27.6028  -49.0866 O.2       13 UNK        -0.5000 
     79 N          -0.2448  -26.4423  -47.6805 N.am      14 UNK        -0.5000 
     80 CA          1.0357  -26.7303  -48.3365 C.3       14 UNK         0.1400 
     81 CB          2.1880  -26.1952  -47.4737 C.3       14 UNK        -0.1800 
     82 C           1.1284  -26.1717  -49.7705 C.2       14 UNK         0.5000 
     83 O           1.7752  -26.7840  -50.6202 O.2       14 UNK        -0.5000 
     84 N           0.4323  -25.0574  -50.0285 N.am      15 UNK        -0.5000 
     85 CA          0.2443  -24.4434  -51.3436 C.3       15 UNK         0.1400 
     86 CB          0.0193  -22.9332  -51.1519 C.3       15 UNK        -0.1800 
     87 C          -0.8818  -25.1044  -52.1762 C.2       15 UNK         0.5000 
     88 O          -1.3636  -24.4907  -53.1281 O.2       15 UNK        -0.5000 
     89 N          -1.2705  -26.3395  -51.8224 N.am      16 UNK        -0.5000 
     90 CA         -2.2836  -27.1885  -52.4579 C.3       16 UNK         0.1400 
     91 CB         -1.9335  -27.4871  -53.9315 C.3       16 UNK        -0.1800 
     92 C          -3.7138  -26.6521  -52.2571 C.2       16 UNK         0.5000 
     93 O          -4.5005  -26.6015  -53.2044 O.2       16 UNK        -0.5000 
     94 N          -4.0148  -26.2748  -51.0061 N.am      17 UNK        -0.5000 
     95 CA         -5.2880  -25.7301  -50.5175 C.3       17 UNK         0.1400 
     96 CB         -6.4182  -26.7744  -50.6284 C.3       17 UNK        -0.1800 
     97 C          -5.6460  -24.3724  -51.1562 C.2       17 UNK         0.5000 
     98 O          -6.8193  -24.0862  -51.4035 O.2       17 UNK        -0.5000 
     99 N          -4.6196  -23.5505  -51.4007 N.am      18 UNK        -0.5000 
    100 CA        -4.7363  -22.2025  -51.9395 C.3       18 UNK         0.1400 
    101 CB        -3.4533  -21.8555  -52.7126 C.3       18 UNK        -0.1800 
    102 C         -5.0061  -21.2185  -50.7924 C.2       18 UNK         0.5000 
    103 O         -4.0720  -20.6154  -50.2645 O.2       18 UNK        -0.5000 
    104 N         -6.2809  -21.0806  -50.4092 N.am      19 UNK        -0.5000 
    105 CA        -6.7664  -20.1684  -49.3699 C.3       19 UNK         0.1400 
    106 CB        -8.1844  -20.6002  -48.9583 C.3       19 UNK        -0.1800 
    107 C         -6.7049  -18.6991  -49.8386 C.2       19 UNK         0.5000 
    108 O         -7.7310  -18.1129  -50.1842 O.2       19 UNK        -0.5000 
    109 N         -5.4750  -18.1711  -49.9079 N.am      20 UNK        -0.5000 
    110 CA        -5.0608  -16.8637  -50.4390 C.3       20 UNK         0.1400 
    111 CB        -5.7978  -15.7014  -49.7440 C.3       20 UNK        -0.1800 
    112 C         -5.1278  -16.7639  -51.9780 C.2       20 UNK         0.5000 
    113 O         -4.8021  -15.7143  -52.5347 O.2       20 UNK        -0.5000 
    114 N         -5.4817  -17.8694  -52.6503 N.am      21 UNK        -0.5000 
    115 CA        -5.5515  -18.0049  -54.1087 C.3       21 UNK         0.1400 
    116 CB        -6.2165  -19.3468  -54.4514 C.3       21 UNK        -0.1800 
    117 C         -4.1845  -17.8772  -54.8130 C.2       21 UNK         0.5000 
    118 O         -4.1464  -17.6352  -56.0199 O.2       21 UNK        -0.5000 
    119 N         -3.0948  -18.0181  -54.0474 N.am      22 UNK        -0.5000 
    120 CA        -1.7199  -17.7146  -54.4649 C.3       22 UNK         0.1400 
    121 C         -1.4245  -16.1989  -54.6901 C.2       22 UNK         0.5000 
    122 N         -2.2736  -15.2752  -54.2504 N.am      22 UNK        -0.7600 
    123 O         -0.4091  -15.8568  -55.2900 O.2       22 UNK        -0.5000 
    124 C124       -0.6839  -18.3680  -53.5134 C.3       23 UNK        -0.0398 
    125 S125       -0.8100  -17.7988  -51.7789 S.3       23 UNK        -0.2404 
    126 C126       -0.7444  -19.3749  -50.8768 C.3       23 UNK        -0.0205 
    127 H127        2.2726  -15.4896  -49.2051 H         1 UNK         0.0600 
    128 H128        1.0816  -15.3395  -50.5015 H         1 UNK         0.0600 
    129 H129        0.9641  -16.6591  -49.3418 H         1 UNK         0.0600 
    130 H130       -0.9951  -16.2212  -48.3712 H         1 UNK         0.3000 
    131 H131       -1.4332  -14.4474  -46.3390 H         1 UNK         0.0600 
    132 H132       -3.9931  -14.9079  -46.9866 H         1 UNK         0.0800 
    133 H133       -3.2916  -16.0706  -48.0722 H         1 UNK         0.0800 
    134 H134       -3.8802  -18.3622  -47.1085 H         1 UNK         0.0800 
    135 H135       -3.0878  -19.0029  -45.6899 H         1 UNK         0.0800 
    136 H136       -2.7479  -18.7465  -49.1600 H         1 UNK         0.1150 
    137 H137        1.4685  -19.4744  -49.2795 H         1 UNK         0.1150 
    138 H138       -0.4257  -18.4487  -45.5738 H         1 UNK         0.1150 
    139 H139        2.7604  -18.5226  -47.2827 H         1 UNK         0.0800 
    140 H140        1.9898  -18.4531  -45.7186 H         1 UNK         0.0800 
    141 H141        0.5481  -20.5588  -44.9845 H         1 UNK         0.0800 
    142 H142        1.8595  -21.3348  -44.1509 H         1 UNK         0.0800 
    143 H143        1.6175  -23.3317  -45.6750 H         1 UNK         0.0600 
    144 H144       -0.2935  -22.6234  -43.6239 H         1 UNK         0.3000 
    145 H145       -1.5243  -25.9165  -43.1646 H         1 UNK         0.0600 
    146 H146       -0.6391  -25.6034  -40.8682 H         1 UNK         0.0600 
    147 H147        0.6693  -25.9995  -41.9707 H         1 UNK         0.0600 
    148 H148        0.4545  -24.3385  -41.4306 H         1 UNK         0.0600 
    149 H149       -1.8606  -23.4898  -41.6922 H         1 UNK         0.3000 
    150 H150       -4.3730  -22.0079  -43.7026 H         1 UNK         0.0600 
    151 H151       -5.6654  -23.7162  -42.4182 H         1 UNK         0.0600 
    152 H152       -5.7107  -22.1532  -41.6189 H         1 UNK         0.0600 
    153 H153       -4.6629  -23.4306  -41.0006 H         1 UNK         0.0600 
    154 H154       -3.3189  -21.3509  -41.1335 H         1 UNK         0.3000 
    155 H155       -2.0087  -19.5813  -40.8670 H         1 UNK         0.0600 
    156 H156        0.4658  -19.7259  -40.6873 H         1 UNK         0.0600 
    157 H157        0.5827  -20.4264  -42.2967 H         1 UNK         0.0600 
    158 H158       -0.1641  -21.3346  -40.9863 H         1 UNK         0.0600 
    159 H159       -1.5335  -18.4807  -43.4425 H         1 UNK         0.3000 
    160 H160       -0.9357  -16.3904  -43.8329 H         1 UNK         0.0600 
    161 H161       -2.1251  -14.8134  -41.4817 H         1 UNK         0.0600 
    162 H162       -3.0525  -15.7613  -42.6383 H         1 UNK         0.0600 
    163 H163       -2.1743  -14.3417  -43.1806 H         1 UNK         0.0600 
    164 H164        0.2085  -14.3992  -42.1160 H         1 UNK         0.3000 
    165 H165        2.2471  -13.6303  -42.7109 H         1 UNK         0.0600 
    166 H166        4.2914  -14.3107  -41.4542 H         1 UNK         0.0600 
    167 H167        2.8607  -15.0353  -40.7364 H         1 UNK         0.0600 
    168 H168        3.9252  -16.0128  -41.7393 H         1 UNK         0.0600 
    169 H169        4.3696  -15.1599  -43.9838 H         1 UNK         0.3000 
    170 H170        5.1462  -14.1392  -46.0818 H         1 UNK         0.0600 
    171 H171        3.0039  -16.1347  -47.0308 H         1 UNK         0.0600 
    172 H172        4.6445  -16.0701  -47.6765 H         1 UNK         0.0600 
    173 H173        4.3746  -16.5085  -45.9980 H         1 UNK         0.0600 
    174 H174        2.8004  -13.2008  -47.5043 H         1 UNK         0.3000 
    175 H175        4.7796  -11.4495  -49.8094 H         1 UNK         0.0600 
    176 H176        3.3192  -12.2225  -51.6234 H         1 UNK         0.0600 
    177 H177        2.7854  -13.6026  -50.6711 H         1 UNK         0.0600 
    178 H178        4.4548  -13.4987  -51.2148 H         1 UNK         0.0600 
    179 H179        1.9232  -11.8205  -49.2953 H         1 UNK         0.3000 
    180 H180        1.8167   -9.0985  -46.9490 H         1 UNK         0.0600 
    181 H181        0.6494   -9.4361  -49.7678 H         1 UNK         0.0600 
    182 H182        1.6384   -8.0812  -49.2332 H         1 UNK         0.0600 
    183 H183        0.0534   -8.3408  -48.5219 H         1 UNK         0.0600 
    184 H184        0.7239  -11.6828  -47.8304 H         1 UNK         0.3000 
    185 H185       -0.4240  -12.6797  -45.9935 H         1 UNK         0.0600 
    186 H186       -2.7447  -10.9101  -45.0361 H         1 UNK         0.0600 
    187 H187       -2.6542  -12.6526  -44.8067 H         1 UNK         0.0600 
    188 H188       -1.4773  -11.6034  -44.0286 H         1 UNK         0.0600 
    189 H189       -2.2093  -11.2351  -47.8359 H         1 UNK         0.3000 
    190 H190       -1.7439  -22.0605  -45.6242 H         1 UNK         0.3000 
    191 H191       -2.1302  -21.9308  -48.4400 H         1 UNK         0.0600 
    192 H192       -4.1369  -22.4647  -46.1844 H         1 UNK         0.0600 
    193 H193       -3.7362  -20.9058  -46.8969 H         1 UNK         0.0600 
    194 H194       -4.5692  -22.1168  -47.8499 H         1 UNK         0.0600 
    195 H195       -2.6530  -24.6315  -46.1236 H         1 UNK         0.3000 
    196 H196       -3.5534  -26.5679  -47.9649 H         1 UNK         0.0600 
    197 H197       -2.9494  -28.1965  -46.1944 H         1 UNK         0.0600 
    198 H198       -3.7757  -26.8047  -45.5108 H         1 UNK         0.0600 
    199 H199       -2.0295  -26.9652  -45.3421 H         1 UNK         0.0600 
    200 H200       -0.1989  -25.8840  -46.8326 H         1 UNK         0.3000 
    201 H201        1.1352  -27.8156  -48.4012 H         1 UNK         0.0600 
    202 H202        2.1811  -26.6467  -46.4816 H         1 UNK         0.0600 
    203 H203        2.1287  -25.1137  -47.3510 H         1 UNK         0.0600 
    204 H204        3.1539  -26.4218  -47.9268 H         1 UNK         0.0600 
    205 H205       -0.0302  -24.5933  -49.2549 H         1 UNK         0.3000 
    206 H206        1.1646  -24.5660  -51.9176 H         1 UNK         0.0600 
    207 H207        0.8517  -22.4776  -50.6152 H         1 UNK         0.0600 
    208 H208       -0.0663  -22.4188  -52.1096 H         1 UNK         0.0600 
    209 H209       -0.8877  -22.7303  -50.5831 H         1 UNK         0.0600 
    210 H210       -0.8512  -26.7359  -50.9908 H         1 UNK         0.3000 
    211 H211       -2.2471  -28.1393  -51.9240 H         1 UNK         0.0600 
    212 H212       -2.0161  -26.6003  -54.5603 H         1 UNK         0.0600 
    213 H213       -2.6057  -28.2399  -54.3446 H         1 UNK         0.0600 
    214 H214       -0.9184  -27.8728  -54.0255 H         1 UNK         0.0600 
    215 H215       -3.2650  -26.2965  -50.3272 H         1 UNK         0.3000 
    216 H216       -5.1441  -25.5248  -49.4565 H         1 UNK         0.0600 
    217 H217       -7.3241  -26.4229  -50.1333 H         1 UNK         0.0600 
    218 H218       -6.1346  -27.7138  -50.1540 H         1 UNK         0.0600 
    219 H219       -6.6762  -26.9861  -51.6663 H         1 UNK         0.0600 
    220 H220       -3.7012  -23.8331  -51.0778 H         1 UNK         0.3000 
    221 H221       -5.5717  -22.1549  -52.6410 H         1 UNK         0.0600 
    222 H222       -2.5671  -21.9685  -52.0901 H         1 UNK         0.0600 
    223 H223       -3.3321  -22.5036  -53.5806 H         1 UNK         0.0600 
    224 H224       -3.4719  -20.8269  -53.0731 H         1 UNK         0.0600 
    225 H225       -6.9821  -21.6441  -50.8714 H         1 UNK         0.3000 
    226 H226       -6.1239  -20.2620  -48.4918 H         1 UNK         0.0600 
    227 H227       -8.1859  -21.6148  -48.5594 H         1 UNK         0.0600 
    228 H228       -8.5819  -19.9458  -48.1814 H         1 UNK         0.0600 
    229 H229       -8.8772  -20.5708  -49.8002 H         1 UNK         0.0600 
    230 H230       -4.7153  -18.8155  -49.7111 H         1 UNK         0.3000 
    231 H231       -4.0023  -16.7720  -50.1936 H         1 UNK         0.0600 
    232 H232       -6.8390  -15.6330  -50.0593 H         1 UNK         0.0600 
    233 H233       -5.3250  -14.7472  -49.9800 H         1 UNK         0.0600 
    234 H234       -5.7823  -15.8121  -48.6600 H         1 UNK         0.0600 
    235 H235       -5.7450  -18.6776  -52.1087 H         1 UNK         0.3000 
    236 H236       -6.1869  -17.2013  -54.4864 H         1 UNK         0.0600 
    237 H237       -7.2004  -19.4316  -53.9895 H         1 UNK         0.0600 
    238 H238       -6.3553  -19.4484  -55.5285 H         1 UNK         0.0600 
    239 H239       -5.6139  -20.1917  -54.1204 H         1 UNK         0.0600 
    240 H240       -3.2210  -18.2011  -53.0638 H         1 UNK         0.3000 
    241 H241       -1.5822  -18.1805  -55.4426 H         1 UNK         0.0600 
    242 H242       -3.1100  -15.5293  -53.7381 H         1 UNK         0.3800 
    243 H243       -2.0679  -14.3023  -54.4112 H         1 UNK         0.3800 
    244 H244       -0.8068  -19.4515  -53.5456 H         1 UNK         0.0800 
    245 H245        0.3319  -18.1799  -53.8649 H         1 UNK         0.0800 
    246 H246       -1.6307  -19.9664  -51.1048 H         1 UNK         0.0800 
    247 H247        0.1154  -19.9523  -51.2190 H         1 UNK         0.0800 
@<TRIPOS>BOND
     1    1    2 1    
     2    1  127 1    
     3    1  128 1    
     4    1  129 1    
     5    2    3 2    
     6    2    4 am   BACKBONE|DICT|INTERRES
     7    4    5 1    
     8    4  130 1    
     9    5    6 1    
    10    5   65 1    
    11    5  131 1    
    12    6    7 1    
    13    6  132 1    
    14    6  133 1    
    15    7    8 1    
    16    8    9 1    
    17    8  134 1    
    18    8  135 1    
    19    9   10 ar   
    20    9   14 ar   
    21   10   11 ar   
    22   10  136 1    
    23   11   12 ar   
    24   11  126 1    
    25   12   13 ar   
    26   12  137 1    
    27   13   14 ar   
    28   13   15 1    
    29   14  138 1    
    30   15   16 1    
    31   15  139 1    
    32   15  140 1    
    33   16   17 1    
    34   17   18 1    
    35   17  141 1    
    36   17  142 1    
    37   18   19 1    
    38   18   67 1    
    39   18  143 1    
    40   19   20 am   BACKBONE|DICT|INTERRES
    41   19  144 1    
    42   20   21 2    
    43   20   22 1    
    44   22   23 1    
    45   22   24 1    
    46   22  145 1    
    47   23  146 1    
    48   23  147 1    
    49   23  148 1    
    50   24   25 am   BACKBONE|DICT|INTERRES
    51   24  149 1    
    52   25   26 2    
    53   25   27 1    
    54   27   28 1    
    55   27   29 1    
    56   27  150 1    
    57   28  151 1    
    58   28  152 1    
    59   28  153 1    
    60   29   30 am   BACKBONE|DICT|INTERRES
    61   29  154 1    
    62   30   31 2    
    63   30   32 1    
    64   32   33 1    
    65   32   34 1    
    66   32  155 1    
    67   33  156 1    
    68   33  157 1    
    69   33  158 1    
    70   34   35 am   BACKBONE|DICT|INTERRES
    71   34  159 1    
    72   35   36 2    
    73   35   37 1    
    74   37   38 1    
    75   37   39 1    
    76   37  160 1    
    77   38  161 1    
    78   38  162 1    
    79   38  163 1    
    80   39   40 am   BACKBONE|DICT|INTERRES
    81   39  164 1    
    82   40   41 2    
    83   40   42 1    
    84   42   43 1    
    85   42   44 1    
    86   42  165 1    
    87   43  166 1    
    88   43  167 1    
    89   43  168 1    
    90   44   45 am   BACKBONE|DICT|INTERRES
    91   44  169 1    
    92   45   46 2    
    93   45   47 1    
    94   47   48 1    
    95   47   49 1    
    96   47  170 1    
    97   48  171 1    
    98   48  172 1    
    99   48  173 1    
   100   49   50 am   BACKBONE|DICT|INTERRES
   101   49  174 1    
   102   50   51 2    
   103   50   52 1    
   104   52   53 1    
   105   52   54 1    
   106   52  175 1    
   107   53  176 1    
   108   53  177 1    
   109   53  178 1    
   110   54   55 am   BACKBONE|DICT|INTERRES
   111   54  179 1    
   112   55   56 2    
   113   55   57 1    
   114   57   58 1    
   115   57   59 1    
   116   57  180 1    
   117   58  181 1    
   118   58  182 1    
   119   58  183 1    
   120   59   60 am   BACKBONE|DICT|INTERRES
   121   59  184 1    
   122   60   61 2    
   123   60   62 1    
   124   62   63 1    
   125   62   64 1    
   126   62  185 1    
   127   63  186 1    
   128   63  187 1    
   129   63  188 1    
   130   64   65 am   BACKBONE|DICT|INTERRES
   131   64  189 1    
   132   65   66 2    
   133   67   68 2    
   134   67   69 am   BACKBONE|DICT|INTERRES
   135   69   70 1    
   136   69  190 1    
   137   70   71 1    
   138   70   72 1    
   139   70  191 1    
   140   71  192 1    
   141   71  193 1    
   142   71  194 1    
   143   72   73 2    
   144   72   74 am   BACKBONE|DICT|INTERRES
   145   74   75 1    
   146   74  195 1    
   147   75   76 1    
   148   75   77 1    
   149   75  196 1    
   150   76  197 1    
   151   76  198 1    
   152   76  199 1    
   153   77   78 2    
   154   77   79 am   BACKBONE|DICT|INTERRES
   155   79   80 1    
   156   79  200 1    
   157   80   81 1    
   158   80   82 1    
   159   80  201 1    
   160   81  202 1    
   161   81  203 1    
   162   81  204 1    
   163   82   83 2    
   164   82   84 am   BACKBONE|DICT|INTERRES
   165   84   85 1    
   166   84  205 1    
   167   85   86 1    
   168   85   87 1    
   169   85  206 1    
   170   86  207 1    
   171   86  208 1    
   172   86  209 1    
   173   87   88 2    
   174   87   89 am   BACKBONE|DICT|INTERRES
   175   89   90 1    
   176   89  210 1    
   177   90   91 1    
   178   90   92 1    
   179   90  211 1    
   180   91  212 1    
   181   91  213 1    
   182   91  214 1    
   183   92   93 2    
   184   92   94 am   BACKBONE|DICT|INTERRES
   185   94   95 1    
   186   94  215 1    
   187   95   96 1    
   188   95   97 1    
   189   95  216 1    
   190   96  217 1    
   191   96  218 1    
   192   96  219 1    
   193   97   98 2    
   194   97   99 am   BACKBONE|DICT|INTERRES
   195   99  100 1    
   196   99  220 1    
   197  100  101 1    
   198  100  102 1    
   199  100  221 1    
   200  101  222 1    
   201  101  223 1    
   202  101  224 1    
   203  102  103 2    
   204  102  104 am   BACKBONE|DICT|INTERRES
   205  104  105 1    
   206  104  225 1    
   207  105  106 1    
   208  105  107 1    
   209  105  226 1    
   210  106  227 1    
   211  106  228 1    
   212  106  229 1    
   213  107  108 2    
   214  107  109 am   BACKBONE|DICT|INTERRES
   215  109  110 1    
   216  109  230 1    
   217  110  111 1    
   218  110  112 1    
   219  110  231 1    
   220  111  232 1    
   221  111  233 1    
   222  111  234 1    
   223  112  113 2    
   224  112  114 am   BACKBONE|DICT|INTERRES
   225  114  115 1    
   226  114  235 1    
   227  115  116 1    
   228  115  117 1    
   229  115  236 1    
   230  116  237 1    
   231  116  238 1    
   232  116  239 1    
   233  117  118 2    
   234  117  119 am   BACKBONE|DICT|INTERRES
   235  119  120 1    
   236  119  240 1    
   237  120  121 1    
   238  120  124 1    
   239  120  241 1    
   240  121  122 am   BACKBONE|DICT|INTERRES
   241  121  123 2    
   242  122  242 1    
   243  122  243 1    
   244  124  125 1    
   245  124  244 1    
   246  124  245 1    
   247  125  126 1    
   248  126  246 1    
   249  126  247 1    
@<TRIPOS>SUBSTRUCTURE
     1 UNK         1 GROUP             0       ****    0 ROOT    
