@<TRIPOS>MOLECULE
3R540
247   249    1
SMALL
USER_CHARGES


@<TRIPOS>ATOM
      1 CA          0.8166  -10.4772  -48.7019 C.3       0 UNK        -0.1800 
      2 C          -0.1889  -11.5028  -48.1978 C.2       0 UNK         0.5000 
      3 O          -1.1743  -11.1281  -47.5626 O.2       0 UNK        -0.5000 
      4 N           0.0660  -12.7896  -48.4742 N.am      1 UNK        -0.5000 
      5 CA         -0.7612  -13.9492  -48.1011 C.3       1 UNK         0.1400 
      6 C6         -2.1746  -13.9486  -48.7564 C.3       23 UNK        -0.0398 
      7 S7         -2.1442  -13.8924  -50.5836 S.3       23 UNK        -0.2404 
      8 C8         -2.6760  -15.5785  -51.0343 C.3       23 UNK        -0.0205 
      9 C9         -1.5120  -16.5579  -51.0185 C.ar      23 UNK        -0.0193 
     10 C10        -0.8987  -16.9429  -52.2134 C.ar      23 UNK        -0.1150 
     11 C11         0.1940  -17.8131  -52.1985 C.ar      23 UNK        -0.0193 
     12 C12         0.6800  -18.2869  -50.9771 C.ar      23 UNK        -0.1150 
     13 C13         0.0771  -17.9164  -49.7715 C.ar      23 UNK        -0.0193 
     14 C14        -1.0367  -17.0674  -49.8078 C.ar      23 UNK        -0.1150 
     15 C15         0.6977  -18.4308  -48.4715 C.3       23 UNK        -0.0205 
     16 S16        -0.1428  -17.9548  -46.9203 S.3       23 UNK        -0.2404 
     17 C17        -1.5927  -19.0594  -46.9078 C.3       23 UNK        -0.0398 
     18 CA         -1.2451  -20.5550  -46.7029 C.3       11 UNK         0.1400 
     19 N          -0.2923  -20.7935  -45.6156 N.am      11 UNK        -0.5000 
     20 C           0.3376  -21.9555  -45.3928 C.2       10 UNK         0.5000 
     21 O           0.1994  -22.9555  -46.0952 O.2       10 UNK        -0.5000 
     22 CA          1.2293  -22.0247  -44.1418 C.3       10 UNK         0.1400 
     23 CB          2.6312  -21.4754  -44.4413 C.3       10 UNK        -0.1800 
     24 N           0.6337  -21.2988  -43.0192 N.am      10 UNK        -0.5000 
     25 C          -0.4686  -21.7145  -42.3752 C.2       9 UNK         0.5000 
     26 O          -1.0445  -22.7735  -42.6267 O.2       9 UNK        -0.5000 
     27 CA         -1.0634  -20.7700  -41.3154 C.3       9 UNK         0.1400 
     28 CB         -0.4947  -21.0909  -39.9267 C.3       9 UNK        -0.1800 
     29 N          -0.8590  -19.3545  -41.6395 N.am      9 UNK        -0.5000 
     30 C          -1.4413  -18.7488  -42.6868 C.2       8 UNK         0.5000 
     31 O          -2.2042  -19.3380  -43.4539 O.2       8 UNK        -0.5000 
     32 CA         -1.0984  -17.2771  -42.9814 C.3       8 UNK         0.1400 
     33 CB         -2.3683  -16.4218  -43.1711 C.3       8 UNK        -0.1800 
     34 N          -0.1413  -16.6822  -42.0415 N.am      8 UNK        -0.5000 
     35 C          -0.3583  -16.1685  -40.8215 C.2       7 UNK         0.5000 
     36 O          -1.4667  -16.0787  -40.2932 O.2       7 UNK        -0.5000 
     37 CA          0.9031  -15.6824  -40.0687 C.3       7 UNK         0.1400 
     38 CB          0.6766  -15.5194  -38.5515 C.3       7 UNK        -0.1800 
     39 N           2.0864  -16.5128  -40.3305 N.am      7 UNK        -0.5000 
     40 C           2.1957  -17.8313  -40.1058 C.2       6 UNK         0.5000 
     41 O           1.2979  -18.5074  -39.6049 O.2       6 UNK        -0.5000 
     42 CA          3.4976  -18.5086  -40.5827 C.3       6 UNK         0.1400 
     43 CB          3.4202  -20.0487  -40.5480 C.3       6 UNK        -0.1800 
     44 N           3.9242  -18.0610  -41.9122 N.am      6 UNK        -0.5000 
     45 C           3.2182  -18.0585  -43.0521 C.2       5 UNK         0.5000 
     46 O           2.0472  -18.4406  -43.1282 O.2       5 UNK        -0.5000 
     47 CA          3.9434  -17.5113  -44.3042 C.3       5 UNK         0.1400 
     48 CB          2.9914  -17.2982  -45.4906 C.3       5 UNK        -0.1800 
     49 N           4.6463  -16.2537  -44.0363 N.am      5 UNK        -0.5000 
     50 C           5.8314  -16.1434  -43.4183 C.2       4 UNK         0.5000 
     51 O           6.4930  -17.1151  -43.0516 O.2       4 UNK        -0.5000 
     52 CA          6.3417  -14.7255  -43.0959 C.3       4 UNK         0.1400 
     53 CB          7.3566  -14.2676  -44.1540 C.3       4 UNK        -0.1800 
     54 N           5.2875  -13.7159  -42.9812 N.am      4 UNK        -0.5000 
     55 C           4.2633  -13.7337  -42.1167 C.2       3 UNK         0.5000 
     56 O           4.0678  -14.6334  -41.2970 O.2       3 UNK        -0.5000 
     57 CA          3.2594  -12.5673  -42.2026 C.3       3 UNK         0.1400 
     58 CB          3.8018  -11.3242  -42.9438 C.3       3 UNK        -0.1800 
     59 N           1.9806  -12.9830  -42.7865 N.am      3 UNK        -0.5000 
     60 C           1.7746  -13.5594  -43.9806 C.2       2 UNK         0.5000 
     61 O           2.6793  -13.8857  -44.7535 O.2       2 UNK        -0.5000 
     62 CA          0.3106  -13.8074  -44.3845 C.3       2 UNK         0.1400 
     63 CB         -0.6853  -12.8378  -43.7045 C.3       2 UNK        -0.1800 
     64 N           0.1982  -13.7284  -45.8377 N.am      2 UNK        -0.5000 
     65 C          -0.8318  -14.1729  -46.5694 C.2       1 UNK         0.5000 
     66 O          -1.8091  -14.7399  -46.0788 O.2       1 UNK        -0.5000 
     67 C          -2.5281  -21.3810  -46.5115 C.2       11 UNK         0.5000 
     68 O          -3.0276  -21.9487  -47.4789 O.2       11 UNK        -0.5000 
     69 N          -3.0137  -21.4676  -45.2649 N.am      12 UNK        -0.5000 
     70 CA         -4.1518  -22.2991  -44.8762 C.3       12 UNK         0.1400 
     71 CB         -4.5386  -21.9938  -43.4214 C.3       12 UNK        -0.1800 
     72 C          -3.8771  -23.8019  -45.0714 C.2       12 UNK         0.5000 
     73 O          -4.7395  -24.5101  -45.5912 O.2       12 UNK        -0.5000 
     74 N          -2.6741  -24.2524  -44.6857 N.am      13 UNK        -0.5000 
     75 CA         -2.2124  -25.6322  -44.8488 C.3       13 UNK         0.1400 
     76 CB         -0.9108  -25.8340  -44.0581 C.3       13 UNK        -0.1800 
     77 C          -2.0233  -26.0341  -46.3241 C.2       13 UNK         0.5000 
     78 O          -2.4283  -27.1306  -46.7118 O.2       13 UNK        -0.5000 
     79 N          -1.4271  -25.1378  -47.1217 N.am      14 UNK        -0.5000 
     80 CA         -1.1851  -25.3284  -48.5543 C.3       14 UNK         0.1400 
     81 CB         -0.0665  -24.3697  -48.9942 C.3       14 UNK        -0.1800 
     82 C          -2.4344  -25.1085  -49.4303 C.2       14 UNK         0.5000 
     83 O          -2.3982  -25.4363  -50.6169 O.2       14 UNK        -0.5000 
     84 N          -3.4829  -24.5003  -48.8591 N.am      15 UNK        -0.5000 
     85 CA         -4.7110  -23.9769  -49.4718 C.3       15 UNK         0.1400 
     86 CB         -5.5041  -25.0654  -50.2172 C.3       15 UNK        -0.1800 
     87 C          -4.4732  -22.7369  -50.3564 C.2       15 UNK         0.5000 
     88 O          -5.2271  -21.7687  -50.2463 O.2       15 UNK        -0.5000 
     89 N          -3.4207  -22.7706  -51.1871 N.am      16 UNK        -0.5000 
     90 CA         -2.9128  -21.6812  -52.0227 C.3       16 UNK         0.1400 
     91 CB         -2.2190  -20.6270  -51.1298 C.3       16 UNK        -0.1800 
     92 C          -4.0147  -21.1104  -52.9383 C.2       16 UNK         0.5000 
     93 O          -4.5628  -21.8512  -53.7583 O.2       16 UNK        -0.5000 
     94 N          -4.3632  -19.8318  -52.7494 N.am      17 UNK        -0.5000 
     95 CA         -5.4051  -19.1186  -53.4854 C.3       17 UNK         0.1400 
     96 CB         -5.4025  -17.6462  -53.0505 C.3       17 UNK        -0.1800 
     97 C          -6.8151  -19.7281  -53.3448 C.2       17 UNK         0.5000 
     98 O          -7.6192  -19.5735  -54.2638 O.2       17 UNK        -0.5000 
     99 N          -7.0882  -20.4506  -52.2459 N.am      18 UNK        -0.5000 
    100 CA        -8.3486  -21.1735  -52.0369 C.3       18 UNK         0.1400 
    101 CB        -8.4843  -21.5715  -50.5592 C.3       18 UNK        -0.1800 
    102 C         -8.4880  -22.4117  -52.9459 C.2       18 UNK         0.5000 
    103 O         -9.6114  -22.8251  -53.2336 O.2       18 UNK        -0.5000 
    104 N         -7.3536  -22.9586  -53.4040 N.am      19 UNK        -0.5000 
    105 CA        -7.2726  -24.0296  -54.3991 C.3       19 UNK         0.1400 
    106 CB        -6.1750  -25.0160  -53.9656 C.3       19 UNK        -0.1800 
    107 C         -6.9943  -23.4793  -55.8142 C.2       19 UNK         0.5000 
    108 O         -6.8132  -24.2699  -56.7410 O.2       19 UNK        -0.5000 
    109 N         -6.9430  -22.1441  -55.9527 N.am      20 UNK        -0.5000 
    110 CA        -6.5781  -21.3747  -57.1473 C.3       20 UNK         0.1400 
    111 CB        -7.6100  -21.5816  -58.2757 C.3       20 UNK        -0.1800 
    112 C         -5.1222  -21.6083  -57.6095 C.2       20 UNK         0.5000 
    113 O         -4.8161  -21.4232  -58.7892 O.2       20 UNK        -0.5000 
    114 N         -4.2466  -21.9985  -56.6751 N.am      21 UNK        -0.5000 
    115 CA        -2.8159  -22.1827  -56.8934 C.3       21 UNK         0.1400 
    116 CB        -2.3270  -23.3280  -55.9916 C.3       21 UNK        -0.1800 
    117 C         -2.0540  -20.8836  -56.5810 C.2       21 UNK         0.5000 
    118 O         -2.5798  -20.0168  -55.8790 O.2       21 UNK        -0.5000 
    119 N         -0.8265  -20.7964  -57.1096 N.am      22 UNK        -0.5000 
    120 CA         0.2267  -19.7744  -56.9173 C.3       22 UNK         0.1400 
    121 C         -0.1249  -18.2652  -57.1097 C.2       22 UNK         0.5000 
    122 N         -1.3849  -17.8631  -57.1552 N.am      22 UNK        -0.7600 
    123 O          0.7764  -17.4444  -57.2595 O.2       22 UNK        -0.5000 
    124 C124        1.0926  -20.0281  -55.6508 C.3       23 UNK        -0.0398 
    125 S125        0.2220  -19.8469  -54.0556 S.3       23 UNK        -0.2404 
    126 C126        0.8554  -18.2367  -53.4986 C.3       23 UNK        -0.0205 
    127 H127        1.6378  -10.9459  -49.2448 H         1 UNK         0.0600 
    128 H128        1.2366   -9.9205  -47.8642 H         1 UNK         0.0600 
    129 H129        0.3268   -9.7701  -49.3714 H         1 UNK         0.0600 
    130 H130        0.8940  -13.0146  -49.0077 H         1 UNK         0.3000 
    131 H131       -0.2198  -14.8144  -48.4824 H         1 UNK         0.0600 
    132 H132       -2.7448  -14.8254  -48.4482 H         1 UNK         0.0800 
    133 H133       -2.7537  -13.0938  -48.4051 H         1 UNK         0.0800 
    134 H134       -3.1146  -15.5393  -52.0320 H         1 UNK         0.0800 
    135 H135       -3.4713  -15.9223  -50.3716 H         1 UNK         0.0800 
    136 H136       -1.2679  -16.5627  -53.1557 H         1 UNK         0.1150 
    137 H137        1.5355  -18.9479  -50.9671 H         1 UNK         0.1150 
    138 H138       -1.5265  -16.7680  -48.8951 H         1 UNK         0.1150 
    139 H139        1.7158  -18.0433  -48.4159 H         1 UNK         0.0800 
    140 H140        0.7944  -19.5154  -48.5179 H         1 UNK         0.0800 
    141 H141       -2.1463  -18.9274  -47.8388 H         1 UNK         0.0800 
    142 H142       -2.2517  -18.7044  -46.1134 H         1 UNK         0.0800 
    143 H143       -0.7794  -20.9172  -47.6213 H         1 UNK         0.0600 
    144 H144       -0.1353  -20.0244  -44.9819 H         1 UNK         0.3000 
    145 H145        1.3310  -23.0737  -43.8555 H         1 UNK         0.0600 
    146 H146        3.1315  -22.0852  -45.1945 H         1 UNK         0.0600 
    147 H147        3.2590  -21.4773  -43.5502 H         1 UNK         0.0600 
    148 H148        2.5911  -20.4569  -44.8252 H         1 UNK         0.0600 
    149 H149        1.0307  -20.3948  -42.7916 H         1 UNK         0.3000 
    150 H150       -2.1401  -20.9480  -41.2813 H         1 UNK         0.0600 
    151 H151        0.5927  -21.0229  -39.9091 H         1 UNK         0.0600 
    152 H152       -0.7601  -22.1049  -39.6253 H         1 UNK         0.0600 
    153 H153       -0.8879  -20.4122  -39.1696 H         1 UNK         0.0600 
    154 H154       -0.2201  -18.8362  -41.0470 H         1 UNK         0.3000 
    155 H155       -0.5773  -17.2875  -43.9395 H         1 UNK         0.0600 
    156 H156       -3.0475  -16.5070  -42.3227 H         1 UNK         0.0600 
    157 H157       -2.9186  -16.7424  -44.0564 H         1 UNK         0.0600 
    158 H158       -2.1307  -15.3682  -43.3061 H         1 UNK         0.0600 
    159 H159        0.8250  -16.8050  -42.3181 H         1 UNK         0.3000 
    160 H160        1.1321  -14.6954  -40.4717 H         1 UNK         0.0600 
    161 H161        0.3848  -16.4590  -38.0815 H         1 UNK         0.0600 
    162 H162       -0.1122  -14.7940  -38.3489 H         1 UNK         0.0600 
    163 H163        1.5789  -15.1621  -38.0553 H         1 UNK         0.0600 
    164 H164        2.8791  -16.0222  -40.7393 H         1 UNK         0.3000 
    165 H165        4.2759  -18.1981  -39.8845 H         1 UNK         0.0600 
    166 H166        3.1967  -20.4089  -39.5432 H         1 UNK         0.0600 
    167 H167        2.6457  -20.4288  -41.2131 H         1 UNK         0.0600 
    168 H168        4.3669  -20.4971  -40.8489 H         1 UNK         0.0600 
    169 H169        4.8785  -17.7232  -41.9743 H         1 UNK         0.3000 
    170 H170        4.6749  -18.2652  -44.6018 H         1 UNK         0.0600 
    171 H171        3.5173  -16.8956  -46.3563 H         1 UNK         0.0600 
    172 H172        2.1811  -16.6120  -45.2418 H         1 UNK         0.0600 
    173 H173        2.5436  -18.2429  -45.7977 H         1 UNK         0.0600 
    174 H174        4.1487  -15.4031  -44.2762 H         1 UNK         0.3000 
    175 H175        6.8510  -14.7771  -42.1316 H         1 UNK         0.0600 
    176 H176        8.1746  -14.9833  -44.2476 H         1 UNK         0.0600 
    177 H177        6.8941  -14.1670  -45.1367 H         1 UNK         0.0600 
    178 H178        7.7975  -13.3063  -43.8891 H         1 UNK         0.0600 
    179 H179        5.3302  -12.9528  -43.6409 H         1 UNK         0.3000 
    180 H180        3.0523  -12.2708  -41.1732 H         1 UNK         0.0600 
    181 H181        3.9732  -11.5133  -44.0041 H         1 UNK         0.0600 
    182 H182        4.7420  -10.9837  -42.5078 H         1 UNK         0.0600 
    183 H183        3.0985  -10.4945  -42.8712 H         1 UNK         0.0600 
    184 H184        1.1673  -12.7567  -42.2326 H         1 UNK         0.3000 
    185 H185        0.0762  -14.8287  -44.0874 H         1 UNK         0.0600 
    186 H186       -0.7012  -12.9729  -42.6226 H         1 UNK         0.0600 
    187 H187       -0.4346  -11.7967  -43.9122 H         1 UNK         0.0600 
    188 H188       -1.7065  -13.0007  -44.0478 H         1 UNK         0.0600 
    189 H189        1.0007  -13.3277  -46.3052 H         1 UNK         0.3000 
    190 H190       -2.5822  -20.9094  -44.5338 H         1 UNK         0.3000 
    191 H191       -4.9948  -22.0282  -45.5154 H         1 UNK         0.0600 
    192 H192       -4.7719  -20.9371  -43.2886 H         1 UNK         0.0600 
    193 H193       -5.4207  -22.5627  -43.1254 H         1 UNK         0.0600 
    194 H194       -3.7369  -22.2483  -42.7282 H         1 UNK         0.0600 
    195 H195       -2.0388  -23.6135  -44.2190 H         1 UNK         0.3000 
    196 H196       -2.9714  -26.2908  -44.4213 H         1 UNK         0.0600 
    197 H197       -0.5542  -26.8609  -44.1469 H         1 UNK         0.0600 
    198 H198       -1.0594  -25.6318  -42.9972 H         1 UNK         0.0600 
    199 H199       -0.1163  -25.1779  -44.4145 H         1 UNK         0.0600 
    200 H200       -1.0634  -24.2804  -46.7136 H         1 UNK         0.3000 
    201 H201       -0.8429  -26.3519  -48.7200 H         1 UNK         0.0600 
    202 H202        0.1829  -24.5107  -50.0466 H         1 UNK         0.0600 
    203 H203        0.8451  -24.5366  -48.4200 H         1 UNK         0.0600 
    204 H204       -0.3591  -23.3268  -48.8627 H         1 UNK         0.0600 
    205 H205       -3.3510  -24.2031  -47.9009 H         1 UNK         0.3000 
    206 H206       -5.3266  -23.6434  -48.6348 H         1 UNK         0.0600 
    207 H207       -5.7246  -25.9087  -49.5630 H         1 UNK         0.0600 
    208 H208       -6.4564  -24.6722  -50.5753 H         1 UNK         0.0600 
    209 H209       -4.9634  -25.4450  -51.0837 H         1 UNK         0.0600 
    210 H210       -2.9039  -23.6432  -51.2283 H         1 UNK         0.3000 
    211 H211       -2.1564  -22.1093  -52.6814 H         1 UNK         0.0600 
    212 H212       -1.3878  -21.0693  -50.5803 H         1 UNK         0.0600 
    213 H213       -1.8070  -19.8154  -51.7285 H         1 UNK         0.0600 
    214 H214       -2.8979  -20.1904  -50.3963 H         1 UNK         0.0600 
    215 H215       -3.8778  -19.3089  -52.0360 H         1 UNK         0.3000 
    216 H216       -5.1401  -19.1615  -54.5441 H         1 UNK         0.0600 
    217 H217       -5.5994  -17.5406  -51.9830 H         1 UNK         0.0600 
    218 H218       -6.1654  -17.0780  -53.5845 H         1 UNK         0.0600 
    219 H219       -4.4422  -17.1780  -53.2659 H         1 UNK         0.0600 
    220 H220       -6.3651  -20.5893  -51.5468 H         1 UNK         0.3000 
    221 H221       -9.1696  -20.4943  -52.2765 H         1 UNK         0.0600 
    222 H222       -7.7633  -22.3384  -50.2774 H         1 UNK         0.0600 
    223 H223       -8.3410  -20.7144  -49.9011 H         1 UNK         0.0600 
    224 H224       -9.4776  -21.9742  -50.3579 H         1 UNK         0.0600 
    225 H225       -6.4690  -22.5330  -53.1500 H         1 UNK         0.3000 
    226 H226       -8.2170  -24.5752  -54.4476 H         1 UNK         0.0600 
    227 H227       -6.4226  -25.4755  -53.0097 H         1 UNK         0.0600 
    228 H228       -6.0611  -25.8257  -54.6874 H         1 UNK         0.0600 
    229 H229       -5.2056  -24.5262  -53.8654 H         1 UNK         0.0600 
    230 H230       -7.1306  -21.5854  -55.1310 H         1 UNK         0.3000 
    231 H231       -6.6275  -20.3261  -56.8509 H         1 UNK         0.0600 
    232 H232       -7.5669  -22.5907  -58.6860 H         1 UNK         0.0600 
    233 H233       -7.4339  -20.8881  -59.0987 H         1 UNK         0.0600 
    234 H234       -8.6248  -21.4067  -57.9186 H         1 UNK         0.0600 
    235 H235       -4.5494  -22.0432  -55.7065 H         1 UNK         0.3000 
    236 H236       -2.6320  -22.4584  -57.9340 H         1 UNK         0.0600 
    237 H237       -2.4490  -23.0918  -54.9347 H         1 UNK         0.0600 
    238 H238       -2.8764  -24.2481  -56.1921 H         1 UNK         0.0600 
    239 H239       -1.2701  -23.5376  -56.1593 H         1 UNK         0.0600 
    240 H240       -0.5373  -21.5618  -57.7015 H         1 UNK         0.3000 
    241 H241        0.8925  -19.9685  -57.7593 H         1 UNK         0.0600 
    242 H242       -1.6046  -16.8899  -57.2929 H         1 UNK         0.3800 
    243 H243       -2.1058  -18.5238  -56.8799 H         1 UNK         0.3800 
    244 H244        1.9745  -19.3853  -55.6591 H         1 UNK         0.0800 
    245 H245        1.4852  -21.0449  -55.6876 H         1 UNK         0.0800 
    246 H246        1.9364  -18.2963  -53.3629 H         1 UNK         0.0800 
    247 H247        0.6799  -17.4868  -54.2713 H         1 UNK         0.0800 
@<TRIPOS>BOND
     1    1    2 1    
     2    1  127 1    
     3    1  128 1    
     4    1  129 1    
     5    2    3 2    
     6    2    4 am   BACKBONE|DICT|INTERRES
     7    4    5 1    
     8    4  130 1    
     9    5    6 1    
    10    5   65 1    
    11    5  131 1    
    12    6    7 1    
    13    6  132 1    
    14    6  133 1    
    15    7    8 1    
    16    8    9 1    
    17    8  134 1    
    18    8  135 1    
    19    9   10 ar   
    20    9   14 ar   
    21   10   11 ar   
    22   10  136 1    
    23   11   12 ar   
    24   11  126 1    
    25   12   13 ar   
    26   12  137 1    
    27   13   14 ar   
    28   13   15 1    
    29   14  138 1    
    30   15   16 1    
    31   15  139 1    
    32   15  140 1    
    33   16   17 1    
    34   17   18 1    
    35   17  141 1    
    36   17  142 1    
    37   18   19 1    
    38   18   67 1    
    39   18  143 1    
    40   19   20 am   BACKBONE|DICT|INTERRES
    41   19  144 1    
    42   20   21 2    
    43   20   22 1    
    44   22   23 1    
    45   22   24 1    
    46   22  145 1    
    47   23  146 1    
    48   23  147 1    
    49   23  148 1    
    50   24   25 am   BACKBONE|DICT|INTERRES
    51   24  149 1    
    52   25   26 2    
    53   25   27 1    
    54   27   28 1    
    55   27   29 1    
    56   27  150 1    
    57   28  151 1    
    58   28  152 1    
    59   28  153 1    
    60   29   30 am   BACKBONE|DICT|INTERRES
    61   29  154 1    
    62   30   31 2    
    63   30   32 1    
    64   32   33 1    
    65   32   34 1    
    66   32  155 1    
    67   33  156 1    
    68   33  157 1    
    69   33  158 1    
    70   34   35 am   BACKBONE|DICT|INTERRES
    71   34  159 1    
    72   35   36 2    
    73   35   37 1    
    74   37   38 1    
    75   37   39 1    
    76   37  160 1    
    77   38  161 1    
    78   38  162 1    
    79   38  163 1    
    80   39   40 am   BACKBONE|DICT|INTERRES
    81   39  164 1    
    82   40   41 2    
    83   40   42 1    
    84   42   43 1    
    85   42   44 1    
    86   42  165 1    
    87   43  166 1    
    88   43  167 1    
    89   43  168 1    
    90   44   45 am   BACKBONE|DICT|INTERRES
    91   44  169 1    
    92   45   46 2    
    93   45   47 1    
    94   47   48 1    
    95   47   49 1    
    96   47  170 1    
    97   48  171 1    
    98   48  172 1    
    99   48  173 1    
   100   49   50 am   BACKBONE|DICT|INTERRES
   101   49  174 1    
   102   50   51 2    
   103   50   52 1    
   104   52   53 1    
   105   52   54 1    
   106   52  175 1    
   107   53  176 1    
   108   53  177 1    
   109   53  178 1    
   110   54   55 am   BACKBONE|DICT|INTERRES
   111   54  179 1    
   112   55   56 2    
   113   55   57 1    
   114   57   58 1    
   115   57   59 1    
   116   57  180 1    
   117   58  181 1    
   118   58  182 1    
   119   58  183 1    
   120   59   60 am   BACKBONE|DICT|INTERRES
   121   59  184 1    
   122   60   61 2    
   123   60   62 1    
   124   62   63 1    
   125   62   64 1    
   126   62  185 1    
   127   63  186 1    
   128   63  187 1    
   129   63  188 1    
   130   64   65 am   BACKBONE|DICT|INTERRES
   131   64  189 1    
   132   65   66 2    
   133   67   68 2    
   134   67   69 am   BACKBONE|DICT|INTERRES
   135   69   70 1    
   136   69  190 1    
   137   70   71 1    
   138   70   72 1    
   139   70  191 1    
   140   71  192 1    
   141   71  193 1    
   142   71  194 1    
   143   72   73 2    
   144   72   74 am   BACKBONE|DICT|INTERRES
   145   74   75 1    
   146   74  195 1    
   147   75   76 1    
   148   75   77 1    
   149   75  196 1    
   150   76  197 1    
   151   76  198 1    
   152   76  199 1    
   153   77   78 2    
   154   77   79 am   BACKBONE|DICT|INTERRES
   155   79   80 1    
   156   79  200 1    
   157   80   81 1    
   158   80   82 1    
   159   80  201 1    
   160   81  202 1    
   161   81  203 1    
   162   81  204 1    
   163   82   83 2    
   164   82   84 am   BACKBONE|DICT|INTERRES
   165   84   85 1    
   166   84  205 1    
   167   85   86 1    
   168   85   87 1    
   169   85  206 1    
   170   86  207 1    
   171   86  208 1    
   172   86  209 1    
   173   87   88 2    
   174   87   89 am   BACKBONE|DICT|INTERRES
   175   89   90 1    
   176   89  210 1    
   177   90   91 1    
   178   90   92 1    
   179   90  211 1    
   180   91  212 1    
   181   91  213 1    
   182   91  214 1    
   183   92   93 2    
   184   92   94 am   BACKBONE|DICT|INTERRES
   185   94   95 1    
   186   94  215 1    
   187   95   96 1    
   188   95   97 1    
   189   95  216 1    
   190   96  217 1    
   191   96  218 1    
   192   96  219 1    
   193   97   98 2    
   194   97   99 am   BACKBONE|DICT|INTERRES
   195   99  100 1    
   196   99  220 1    
   197  100  101 1    
   198  100  102 1    
   199  100  221 1    
   200  101  222 1    
   201  101  223 1    
   202  101  224 1    
   203  102  103 2    
   204  102  104 am   BACKBONE|DICT|INTERRES
   205  104  105 1    
   206  104  225 1    
   207  105  106 1    
   208  105  107 1    
   209  105  226 1    
   210  106  227 1    
   211  106  228 1    
   212  106  229 1    
   213  107  108 2    
   214  107  109 am   BACKBONE|DICT|INTERRES
   215  109  110 1    
   216  109  230 1    
   217  110  111 1    
   218  110  112 1    
   219  110  231 1    
   220  111  232 1    
   221  111  233 1    
   222  111  234 1    
   223  112  113 2    
   224  112  114 am   BACKBONE|DICT|INTERRES
   225  114  115 1    
   226  114  235 1    
   227  115  116 1    
   228  115  117 1    
   229  115  236 1    
   230  116  237 1    
   231  116  238 1    
   232  116  239 1    
   233  117  118 2    
   234  117  119 am   BACKBONE|DICT|INTERRES
   235  119  120 1    
   236  119  240 1    
   237  120  121 1    
   238  120  124 1    
   239  120  241 1    
   240  121  122 am   BACKBONE|DICT|INTERRES
   241  121  123 2    
   242  122  242 1    
   243  122  243 1    
   244  124  125 1    
   245  124  244 1    
   246  124  245 1    
   247  125  126 1    
   248  126  246 1    
   249  126  247 1    
@<TRIPOS>SUBSTRUCTURE
     1 UNK         1 GROUP             0       ****    0 ROOT    
