@<TRIPOS>MOLECULE
3R540
247   249    1
SMALL
USER_CHARGES


@<TRIPOS>ATOM
      1 CA         -3.0981   -9.7744  -47.7987 C.3       0 UNK        -0.1800 
      2 C          -1.8348  -10.6174  -47.6951 C.2       0 UNK         0.5000 
      3 O          -1.4599  -11.0088  -46.5930 O.2       0 UNK        -0.5000 
      4 N          -1.1792  -10.8638  -48.8384 N.am      1 UNK        -0.5000 
      5 CA          0.0174  -11.6946  -49.0663 C.3       1 UNK         0.1400 
      6 C6         -0.2627  -13.2239  -49.0968 C.3       23 UNK        -0.0398 
      7 S7         -0.6279  -14.0188  -47.4939 S.3       23 UNK        -0.2404 
      8 C8         -1.6315  -15.4457  -48.0111 C.3       23 UNK        -0.0205 
      9 C9         -0.8533  -16.4027  -48.9011 C.ar      23 UNK        -0.0193 
     10 C10        -1.0837  -16.4179  -50.2793 C.ar      23 UNK        -0.1150 
     11 C11        -0.3763  -17.2860  -51.1145 C.ar      23 UNK        -0.0193 
     12 C12         0.5674  -18.1519  -50.5472 C.ar      23 UNK        -0.1150 
     13 C13         0.7989  -18.1625  -49.1682 C.ar      23 UNK        -0.0193 
     14 C14         0.0913  -17.2741  -48.3505 C.ar      23 UNK        -0.1150 
     15 C15         1.8293  -19.1302  -48.5889 C.3       23 UNK        -0.0205 
     16 S16         1.2486  -20.0513  -47.1244 S.3       23 UNK        -0.2404 
     17 C17        -0.3496  -20.7204  -47.6905 C.3       23 UNK        -0.0398 
     18 CA         -0.5948  -22.1972  -47.3058 C.3       11 UNK         0.1400 
     19 N          -0.4705  -22.4622  -45.8676 N.am      11 UNK        -0.5000 
     20 C          -0.5701  -23.6791  -45.3110 C.2       10 UNK         0.5000 
     21 O          -0.7373  -24.7149  -45.9576 O.2       10 UNK        -0.5000 
     22 CA         -0.5449  -23.7476  -43.7760 C.3       10 UNK         0.1400 
     23 CB          0.8978  -23.8199  -43.2553 C.3       10 UNK        -0.1800 
     24 N          -1.2376  -22.6105  -43.1692 N.am      10 UNK        -0.5000 
     25 C          -2.5685  -22.4536  -43.1636 C.2       9 UNK         0.5000 
     26 O          -3.3510  -23.2649  -43.6539 O.2       9 UNK        -0.5000 
     27 CA         -3.1164  -21.1462  -42.5639 C.3       9 UNK         0.1400 
     28 CB         -3.1114  -21.2047  -41.0292 C.3       9 UNK        -0.1800 
     29 N          -2.3733  -19.9691  -43.0108 N.am      9 UNK        -0.5000 
     30 C          -2.2914  -19.5640  -44.2853 C.2       8 UNK         0.5000 
     31 O          -2.8816  -20.1107  -45.2173 O.2       8 UNK        -0.5000 
     32 CA         -1.3625  -18.3723  -44.5769 C.3       8 UNK         0.1400 
     33 CB         -2.1385  -17.0550  -44.4539 C.3       8 UNK        -0.1800 
     34 N          -0.1503  -18.2935  -43.7541 N.am      8 UNK        -0.5000 
     35 C           0.7466  -19.2707  -43.5483 C.2       7 UNK         0.5000 
     36 O           0.5681  -20.4419  -43.8814 O.2       7 UNK        -0.5000 
     37 CA          2.0744  -18.8915  -42.8684 C.3       7 UNK         0.1400 
     38 CB          3.2422  -19.0837  -43.8501 C.3       7 UNK        -0.1800 
     39 N           2.0888  -17.5048  -42.4012 N.am      7 UNK        -0.5000 
     40 C           1.9521  -17.1179  -41.1259 C.2       6 UNK         0.5000 
     41 O           1.7815  -17.9001  -40.1903 O.2       6 UNK        -0.5000 
     42 CA          2.0235  -15.6040  -40.8355 C.3       6 UNK         0.1400 
     43 CB          3.4260  -15.2205  -40.3391 C.3       6 UNK        -0.1800 
     44 N           1.6927  -14.7710  -41.9921 N.am      6 UNK        -0.5000 
     45 C           0.4658  -14.6409  -42.5149 C.2       5 UNK         0.5000 
     46 O          -0.5363  -15.1774  -42.0433 O.2       5 UNK        -0.5000 
     47 CA          0.3465  -13.8056  -43.8044 C.3       5 UNK         0.1400 
     48 CB          0.0083  -12.3494  -43.4591 C.3       5 UNK        -0.1800 
     49 N           1.5424  -13.8412  -44.6542 N.am      5 UNK        -0.5000 
     50 C           2.0933  -14.9520  -45.1722 C.2       4 UNK         0.5000 
     51 O           1.6604  -16.0826  -44.9524 O.2       4 UNK        -0.5000 
     52 CA          3.3532  -14.8016  -46.0474 C.3       4 UNK         0.1400 
     53 CB          3.0744  -15.2248  -47.4968 C.3       4 UNK        -0.1800 
     54 N           3.9183  -13.4514  -46.0299 N.am      4 UNK        -0.5000 
     55 C           4.6308  -12.9502  -45.0100 C.2       3 UNK         0.5000 
     56 O           4.8934  -13.5895  -43.9903 O.2       3 UNK        -0.5000 
     57 CA          5.1179  -11.4919  -45.1262 C.3       3 UNK         0.1400 
     58 CB          6.5954  -11.4524  -45.5454 C.3       3 UNK        -0.1800 
     59 N           4.3411  -10.6675  -46.0548 N.am      3 UNK        -0.5000 
     60 C           3.0504  -10.3398  -45.9075 C.2       2 UNK         0.5000 
     61 O           2.3594  -10.7257  -44.9645 O.2       2 UNK        -0.5000 
     62 CA          2.4158   -9.4429  -46.9932 C.3       2 UNK         0.1400 
     63 CB          3.4228   -8.9006  -48.0328 C.3       2 UNK        -0.1800 
     64 N           1.2977  -10.0969  -47.6796 N.am      2 UNK        -0.5000 
     65 C           1.3005  -11.2892  -48.2952 C.2       1 UNK         0.5000 
     66 O           2.2893  -12.0245  -48.3342 O.2       1 UNK        -0.5000 
     67 C          -1.9642  -22.6424  -47.8624 C.2       11 UNK         0.5000 
     68 O          -2.0352  -23.0804  -49.0108 O.2       11 UNK        -0.5000 
     69 N          -3.0221  -22.5078  -47.0528 N.am      12 UNK        -0.5000 
     70 CA         -4.3775  -22.9241  -47.3895 C.3       12 UNK         0.1400 
     71 CB         -5.3843  -22.0152  -46.6686 C.3       12 UNK        -0.1800 
     72 C          -4.6315  -24.4027  -47.0539 C.2       12 UNK         0.5000 
     73 O          -5.1171  -25.1352  -47.9138 O.2       12 UNK        -0.5000 
     74 N          -4.3348  -24.8164  -45.8148 N.am      13 UNK        -0.5000 
     75 CA         -4.7272  -26.1266  -45.2928 C.3       13 UNK         0.1400 
     76 CB         -4.7795  -26.0775  -43.7578 C.3       13 UNK        -0.1800 
     77 C          -3.8221  -27.2801  -45.7518 C.2       13 UNK         0.5000 
     78 O          -4.3356  -28.3652  -46.0287 O.2       13 UNK        -0.5000 
     79 N          -2.5033  -27.0493  -45.7900 N.am      14 UNK        -0.5000 
     80 CA         -1.5100  -28.0869  -46.0660 C.3       14 UNK         0.1400 
     81 CB         -0.3233  -27.9459  -45.0970 C.3       14 UNK        -0.1800 
     82 C          -1.0433  -28.0363  -47.5258 C.2       14 UNK         0.5000 
     83 O          -1.0516  -29.0684  -48.1981 O.2       14 UNK        -0.5000 
     84 N          -0.6412  -26.8462  -47.9925 N.am      15 UNK        -0.5000 
     85 CA         -0.1017  -26.6560  -49.3416 C.3       15 UNK         0.1400 
     86 CB          0.7652  -25.3893  -49.3741 C.3       15 UNK        -0.1800 
     87 C          -1.1914  -26.5863  -50.4266 C.2       15 UNK         0.5000 
     88 O          -0.9087  -26.9211  -51.5775 O.2       15 UNK        -0.5000 
     89 N          -2.3987  -26.1351  -50.0477 N.am      16 UNK        -0.5000 
     90 CA         -3.5605  -25.8821  -50.9133 C.3       16 UNK         0.1400 
     91 CB         -4.1188  -27.2016  -51.4842 C.3       16 UNK        -0.1800 
     92 C          -3.2941  -24.8170  -52.0007 C.2       16 UNK         0.5000 
     93 O          -3.9034  -24.8552  -53.0705 O.2       16 UNK        -0.5000 
     94 N          -2.3871  -23.8810  -51.6990 N.am      17 UNK        -0.5000 
     95 CA         -1.9559  -22.8051  -52.5811 C.3       17 UNK         0.1400 
     96 CB         -0.4773  -22.4888  -52.3010 C.3       17 UNK        -0.1800 
     97 C          -2.8483  -21.5766  -52.3735 C.2       17 UNK         0.5000 
     98 O          -3.5231  -21.1455  -53.3090 O.2       17 UNK        -0.5000 
     99 N          -2.8951  -21.0720  -51.1312 N.am      18 UNK        -0.5000 
    100 CA        -3.6905  -19.8997  -50.7482 C.3       18 UNK         0.1400 
    101 CB        -3.2736  -19.4108  -49.3550 C.3       18 UNK        -0.1800 
    102 C         -5.2076  -20.1554  -50.8088 C.2       18 UNK         0.5000 
    103 O         -5.9736  -19.2091  -50.9847 O.2       18 UNK        -0.5000 
    104 N         -5.6088  -21.4333  -50.7426 N.am      19 UNK        -0.5000 
    105 CA        -6.9777  -21.9045  -50.9675 C.3       19 UNK         0.1400 
    106 CB        -7.0490  -23.3999  -50.6227 C.3       19 UNK        -0.1800 
    107 C         -7.4795  -21.6565  -52.4069 C.2       19 UNK         0.5000 
    108 O         -8.6865  -21.5289  -52.6123 O.2       19 UNK        -0.5000 
    109 N         -6.5458  -21.5659  -53.3636 N.am      20 UNK        -0.5000 
    110 CA        -6.7823  -21.2131  -54.7637 C.3       20 UNK         0.1400 
    111 CB        -6.1121  -22.2811  -55.6458 C.3       20 UNK        -0.1800 
    112 C         -6.2389  -19.8044  -55.0863 C.2       20 UNK         0.5000 
    113 O         -6.0893  -19.4687  -56.2631 O.2       20 UNK        -0.5000 
    114 N         -5.9017  -19.0213  -54.0465 N.am      21 UNK        -0.5000 
    115 CA        -5.2733  -17.6930  -54.0860 C.3       21 UNK         0.1400 
    116 CB        -6.2740  -16.6460  -54.6157 C.3       21 UNK        -0.1800 
    117 C         -3.9259  -17.6618  -54.8447 C.2       21 UNK         0.5000 
    118 O         -3.5379  -16.6145  -55.3648 O.2       21 UNK        -0.5000 
    119 N         -3.2509  -18.8173  -54.9092 N.am      22 UNK        -0.5000 
    120 CA        -2.0527  -19.0980  -55.7148 C.3       22 UNK         0.1400 
    121 C         -2.2686  -18.9776  -57.2564 C.2       22 UNK         0.5000 
    122 N         -3.4962  -19.0461  -57.7612 N.am      22 UNK        -0.7600 
    123 O         -1.3114  -18.8536  -58.0160 O.2       22 UNK        -0.5000 
    124 C124       -0.7896  -18.3516  -55.2061 C.3       23 UNK        -0.0398 
    125 S125       -0.3783  -18.8110  -53.4879 S.3       23 UNK        -0.2404 
    126 C126       -0.6238  -17.2265  -52.6217 C.3       23 UNK        -0.0205 
    127 H127       -2.9981   -8.8723  -47.1952 H         1 UNK         0.0600 
    128 H128       -3.9549  -10.3384  -47.4304 H         1 UNK         0.0600 
    129 H129       -3.3052   -9.4748  -48.8263 H         1 UNK         0.0600 
    130 H130       -1.5585  -10.4602  -49.6837 H         1 UNK         0.3000 
    131 H131        0.2815  -11.4458  -50.0953 H         1 UNK         0.0600 
    132 H132        0.5843  -13.7491  -49.5414 H         1 UNK         0.0800 
    133 H133       -1.1001  -13.4099  -49.7699 H         1 UNK         0.0800 
    134 H134       -1.9749  -15.9794  -47.1261 H         1 UNK         0.0800 
    135 H135       -2.5307  -15.0897  -48.5161 H         1 UNK         0.0800 
    136 H136       -1.8093  -15.7397  -50.7059 H         1 UNK         0.1150 
    137 H137        1.1333  -18.8197  -51.1802 H         1 UNK         0.1150 
    138 H138        0.2783  -17.2569  -47.2856 H         1 UNK         0.1150 
    139 H139        2.1382  -19.8559  -49.3428 H         1 UNK         0.0800 
    140 H140        2.7250  -18.5710  -48.3180 H         1 UNK         0.0800 
    141 H141       -0.3958  -20.6213  -48.7764 H         1 UNK         0.0800 
    142 H142       -1.1380  -20.0812  -47.2933 H         1 UNK         0.0800 
    143 H143        0.1717  -22.7949  -47.7993 H         1 UNK         0.0600 
    144 H144       -0.2759  -21.6666  -45.2675 H         1 UNK         0.3000 
    145 H145       -1.0583  -24.6636  -43.4754 H         1 UNK         0.0600 
    146 H146        0.9207  -23.9062  -42.1690 H         1 UNK         0.0600 
    147 H147        1.4133  -24.6910  -43.6618 H         1 UNK         0.0600 
    148 H148        1.4757  -22.9384  -43.5344 H         1 UNK         0.0600 
    149 H149       -0.6541  -21.8397  -42.8684 H         1 UNK         0.3000 
    150 H150       -4.1503  -21.0361  -42.8979 H         1 UNK         0.0600 
    151 H151       -3.6706  -22.0699  -40.6705 H         1 UNK         0.0600 
    152 H152       -3.5769  -20.3175  -40.5996 H         1 UNK         0.0600 
    153 H153       -2.0989  -21.2793  -40.6305 H         1 UNK         0.0600 
    154 H154       -1.8427  -19.4672  -42.3143 H         1 UNK         0.3000 
    155 H155       -1.0313  -18.4680  -45.6109 H         1 UNK         0.0600 
    156 H156       -2.4403  -16.8603  -43.4241 H         1 UNK         0.0600 
    157 H157       -3.0416  -17.0706  -45.0656 H         1 UNK         0.0600 
    158 H158       -1.5332  -16.2150  -44.7903 H         1 UNK         0.0600 
    159 H159        0.1056  -17.3673  -43.4441 H         1 UNK         0.3000 
    160 H160        2.2179  -19.5788  -42.0324 H         1 UNK         0.0600 
    161 H161        3.1369  -18.4475  -44.7300 H         1 UNK         0.0600 
    162 H162        3.2952  -20.1159  -44.1993 H         1 UNK         0.0600 
    163 H163        4.1970  -18.8508  -43.3788 H         1 UNK         0.0600 
    164 H164        2.1710  -16.8008  -43.1269 H         1 UNK         0.3000 
    165 H165        1.3072  -15.3872  -40.0402 H         1 UNK         0.0600 
    166 H166        3.4703  -14.1688  -40.0554 H         1 UNK         0.0600 
    167 H167        3.7043  -15.8047  -39.4610 H         1 UNK         0.0600 
    168 H168        4.1844  -15.3942  -41.1039 H         1 UNK         0.0600 
    169 H169        2.4612  -14.3018  -42.4506 H         1 UNK         0.3000 
    170 H170       -0.4794  -14.2125  -44.3883 H         1 UNK         0.0600 
    171 H171       -0.9019  -12.2889  -42.8612 H         1 UNK         0.0600 
    172 H172        0.8092  -11.8739  -42.8916 H         1 UNK         0.0600 
    173 H173       -0.1577  -11.7608  -44.3610 H         1 UNK         0.0600 
    174 H174        1.9522  -12.9442  -44.8846 H         1 UNK         0.3000 
    175 H175        4.1000  -15.4896  -45.6456 H         1 UNK         0.0600 
    176 H176        3.9679  -15.1412  -48.1152 H         1 UNK         0.0600 
    177 H177        2.7463  -16.2631  -47.5387 H         1 UNK         0.0600 
    178 H178        2.2917  -14.6204  -47.9518 H         1 UNK         0.0600 
    179 H179        3.6906  -12.8553  -46.8178 H         1 UNK         0.3000 
    180 H180        5.0327  -11.0436  -44.1342 H         1 UNK         0.0600 
    181 H181        6.7407  -11.8658  -46.5443 H         1 UNK         0.0600 
    182 H182        7.2131  -12.0315  -44.8576 H         1 UNK         0.0600 
    183 H183        6.9799  -10.4323  -45.5437 H         1 UNK         0.0600 
    184 H184        4.8288  -10.3295  -46.8715 H         1 UNK         0.3000 
    185 H185        1.9946   -8.5863  -46.4652 H         1 UNK         0.0600 
    186 H186        4.2269   -8.3416  -47.5524 H         1 UNK         0.0600 
    187 H187        3.8731   -9.6977  -48.6256 H         1 UNK         0.0600 
    188 H188        2.9326   -8.2163  -48.7255 H         1 UNK         0.0600 
    189 H189        0.4215   -9.5955  -47.6619 H         1 UNK         0.3000 
    190 H190       -2.8910  -22.0686  -46.1490 H         1 UNK         0.3000 
    191 H191       -4.5331  -22.7984  -48.4622 H         1 UNK         0.0600 
    192 H192       -5.2622  -20.9757  -46.9732 H         1 UNK         0.0600 
    193 H193       -6.4098  -22.3042  -46.9020 H         1 UNK         0.0600 
    194 H194       -5.2657  -22.0588  -45.5851 H         1 UNK         0.0600 
    195 H195       -3.9401  -24.1638  -45.1406 H         1 UNK         0.3000 
    196 H196       -5.7385  -26.3443  -45.6443 H         1 UNK         0.0600 
    197 H197       -5.1460  -27.0201  -43.3495 H         1 UNK         0.0600 
    198 H198       -5.4487  -25.2904  -43.4099 H         1 UNK         0.0600 
    199 H199       -3.7945  -25.8959  -43.3262 H         1 UNK         0.0600 
    200 H200       -2.1493  -26.1146  -45.6208 H         1 UNK         0.3000 
    201 H201       -1.9420  -29.0751  -45.8936 H         1 UNK         0.0600 
    202 H202       -0.6550  -28.0003  -44.0601 H         1 UNK         0.0600 
    203 H203        0.2107  -27.0052  -45.2269 H         1 UNK         0.0600 
    204 H204        0.3972  -28.7503  -45.2496 H         1 UNK         0.0600 
    205 H205       -0.6482  -26.0436  -47.3689 H         1 UNK         0.3000 
    206 H206        0.5461  -27.5034  -49.5775 H         1 UNK         0.0600 
    207 H207        1.5077  -25.3906  -48.5759 H         1 UNK         0.0600 
    208 H208        1.3019  -25.3124  -50.3204 H         1 UNK         0.0600 
    209 H209        0.1612  -24.4907  -49.2754 H         1 UNK         0.0600 
    210 H210       -2.5153  -25.8784  -49.0778 H         1 UNK         0.3000 
    211 H211       -4.3331  -25.4541  -50.2780 H         1 UNK         0.0600 
    212 H212       -3.4320  -27.6590  -52.1968 H         1 UNK         0.0600 
    213 H213       -5.0638  -27.0348  -52.0024 H         1 UNK         0.0600 
    214 H214       -4.3094  -27.9234  -50.6899 H         1 UNK         0.0600 
    215 H215       -2.0157  -23.8666  -50.7537 H         1 UNK         0.3000 
    216 H216       -2.0442  -23.1216  -53.6227 H         1 UNK         0.0600 
    217 H217       -0.1107  -21.7140  -52.9738 H         1 UNK         0.0600 
    218 H218        0.1455  -23.3701  -52.4561 H         1 UNK         0.0600 
    219 H219       -0.3134  -22.1448  -51.2790 H         1 UNK         0.0600 
    220 H220       -2.3725  -21.5377  -50.4004 H         1 UNK         0.3000 
    221 H221       -3.4678  -19.1021  -51.4608 H         1 UNK         0.0600 
    222 H222       -3.4547  -20.1619  -48.5878 H         1 UNK         0.0600 
    223 H223       -2.2180  -19.1446  -49.3356 H         1 UNK         0.0600 
    224 H224       -3.8311  -18.5168  -49.0726 H         1 UNK         0.0600 
    225 H225       -4.9003  -22.1412  -50.6247 H         1 UNK         0.3000 
    226 H226       -7.6379  -21.3608  -50.2886 H         1 UNK         0.0600 
    227 H227       -6.7752  -23.5800  -49.5833 H         1 UNK         0.0600 
    228 H228       -8.0605  -23.7844  -50.7601 H         1 UNK         0.0600 
    229 H229       -6.3854  -23.9918  -51.2543 H         1 UNK         0.0600 
    230 H230       -5.5704  -21.6662  -53.1074 H         1 UNK         0.3000 
    231 H231       -7.8511  -21.2045  -54.9849 H         1 UNK         0.0600 
    232 H232       -6.4902  -23.2769  -55.4135 H         1 UNK         0.0600 
    233 H233       -5.0301  -22.2945  -55.5070 H         1 UNK         0.0600 
    234 H234       -6.3071  -22.1005  -56.7036 H         1 UNK         0.0600 
    235 H235       -6.0749  -19.3787  -53.1151 H         1 UNK         0.3000 
    236 H236       -5.0407  -17.4350  -53.0521 H         1 UNK         0.0600 
    237 H237       -5.8746  -15.6358  -54.5194 H         1 UNK         0.0600 
    238 H238       -6.5071  -16.8070  -55.6687 H         1 UNK         0.0600 
    239 H239       -7.2091  -16.6771  -54.0564 H         1 UNK         0.0600 
    240 H240       -3.6146  -19.6212  -54.4051 H         1 UNK         0.3000 
    241 H241       -1.8649  -20.1622  -55.5678 H         1 UNK         0.0600 
    242 H242       -4.3071  -19.1578  -57.1611 H         1 UNK         0.3800 
    243 H243       -3.6235  -18.9783  -58.7584 H         1 UNK         0.3800 
    244 H244       -0.9148  -17.2718  -55.2945 H         1 UNK         0.0800 
    245 H245        0.0782  -18.6054  -55.8166 H         1 UNK         0.0800 
    246 H246       -1.6424  -16.8871  -52.8162 H         1 UNK         0.0800 
    247 H247        0.0446  -16.4795  -53.0514 H         1 UNK         0.0800 
@<TRIPOS>BOND
     1    1    2 1    
     2    1  127 1    
     3    1  128 1    
     4    1  129 1    
     5    2    3 2    
     6    2    4 am   BACKBONE|DICT|INTERRES
     7    4    5 1    
     8    4  130 1    
     9    5    6 1    
    10    5   65 1    
    11    5  131 1    
    12    6    7 1    
    13    6  132 1    
    14    6  133 1    
    15    7    8 1    
    16    8    9 1    
    17    8  134 1    
    18    8  135 1    
    19    9   10 ar   
    20    9   14 ar   
    21   10   11 ar   
    22   10  136 1    
    23   11   12 ar   
    24   11  126 1    
    25   12   13 ar   
    26   12  137 1    
    27   13   14 ar   
    28   13   15 1    
    29   14  138 1    
    30   15   16 1    
    31   15  139 1    
    32   15  140 1    
    33   16   17 1    
    34   17   18 1    
    35   17  141 1    
    36   17  142 1    
    37   18   19 1    
    38   18   67 1    
    39   18  143 1    
    40   19   20 am   BACKBONE|DICT|INTERRES
    41   19  144 1    
    42   20   21 2    
    43   20   22 1    
    44   22   23 1    
    45   22   24 1    
    46   22  145 1    
    47   23  146 1    
    48   23  147 1    
    49   23  148 1    
    50   24   25 am   BACKBONE|DICT|INTERRES
    51   24  149 1    
    52   25   26 2    
    53   25   27 1    
    54   27   28 1    
    55   27   29 1    
    56   27  150 1    
    57   28  151 1    
    58   28  152 1    
    59   28  153 1    
    60   29   30 am   BACKBONE|DICT|INTERRES
    61   29  154 1    
    62   30   31 2    
    63   30   32 1    
    64   32   33 1    
    65   32   34 1    
    66   32  155 1    
    67   33  156 1    
    68   33  157 1    
    69   33  158 1    
    70   34   35 am   BACKBONE|DICT|INTERRES
    71   34  159 1    
    72   35   36 2    
    73   35   37 1    
    74   37   38 1    
    75   37   39 1    
    76   37  160 1    
    77   38  161 1    
    78   38  162 1    
    79   38  163 1    
    80   39   40 am   BACKBONE|DICT|INTERRES
    81   39  164 1    
    82   40   41 2    
    83   40   42 1    
    84   42   43 1    
    85   42   44 1    
    86   42  165 1    
    87   43  166 1    
    88   43  167 1    
    89   43  168 1    
    90   44   45 am   BACKBONE|DICT|INTERRES
    91   44  169 1    
    92   45   46 2    
    93   45   47 1    
    94   47   48 1    
    95   47   49 1    
    96   47  170 1    
    97   48  171 1    
    98   48  172 1    
    99   48  173 1    
   100   49   50 am   BACKBONE|DICT|INTERRES
   101   49  174 1    
   102   50   51 2    
   103   50   52 1    
   104   52   53 1    
   105   52   54 1    
   106   52  175 1    
   107   53  176 1    
   108   53  177 1    
   109   53  178 1    
   110   54   55 am   BACKBONE|DICT|INTERRES
   111   54  179 1    
   112   55   56 2    
   113   55   57 1    
   114   57   58 1    
   115   57   59 1    
   116   57  180 1    
   117   58  181 1    
   118   58  182 1    
   119   58  183 1    
   120   59   60 am   BACKBONE|DICT|INTERRES
   121   59  184 1    
   122   60   61 2    
   123   60   62 1    
   124   62   63 1    
   125   62   64 1    
   126   62  185 1    
   127   63  186 1    
   128   63  187 1    
   129   63  188 1    
   130   64   65 am   BACKBONE|DICT|INTERRES
   131   64  189 1    
   132   65   66 2    
   133   67   68 2    
   134   67   69 am   BACKBONE|DICT|INTERRES
   135   69   70 1    
   136   69  190 1    
   137   70   71 1    
   138   70   72 1    
   139   70  191 1    
   140   71  192 1    
   141   71  193 1    
   142   71  194 1    
   143   72   73 2    
   144   72   74 am   BACKBONE|DICT|INTERRES
   145   74   75 1    
   146   74  195 1    
   147   75   76 1    
   148   75   77 1    
   149   75  196 1    
   150   76  197 1    
   151   76  198 1    
   152   76  199 1    
   153   77   78 2    
   154   77   79 am   BACKBONE|DICT|INTERRES
   155   79   80 1    
   156   79  200 1    
   157   80   81 1    
   158   80   82 1    
   159   80  201 1    
   160   81  202 1    
   161   81  203 1    
   162   81  204 1    
   163   82   83 2    
   164   82   84 am   BACKBONE|DICT|INTERRES
   165   84   85 1    
   166   84  205 1    
   167   85   86 1    
   168   85   87 1    
   169   85  206 1    
   170   86  207 1    
   171   86  208 1    
   172   86  209 1    
   173   87   88 2    
   174   87   89 am   BACKBONE|DICT|INTERRES
   175   89   90 1    
   176   89  210 1    
   177   90   91 1    
   178   90   92 1    
   179   90  211 1    
   180   91  212 1    
   181   91  213 1    
   182   91  214 1    
   183   92   93 2    
   184   92   94 am   BACKBONE|DICT|INTERRES
   185   94   95 1    
   186   94  215 1    
   187   95   96 1    
   188   95   97 1    
   189   95  216 1    
   190   96  217 1    
   191   96  218 1    
   192   96  219 1    
   193   97   98 2    
   194   97   99 am   BACKBONE|DICT|INTERRES
   195   99  100 1    
   196   99  220 1    
   197  100  101 1    
   198  100  102 1    
   199  100  221 1    
   200  101  222 1    
   201  101  223 1    
   202  101  224 1    
   203  102  103 2    
   204  102  104 am   BACKBONE|DICT|INTERRES
   205  104  105 1    
   206  104  225 1    
   207  105  106 1    
   208  105  107 1    
   209  105  226 1    
   210  106  227 1    
   211  106  228 1    
   212  106  229 1    
   213  107  108 2    
   214  107  109 am   BACKBONE|DICT|INTERRES
   215  109  110 1    
   216  109  230 1    
   217  110  111 1    
   218  110  112 1    
   219  110  231 1    
   220  111  232 1    
   221  111  233 1    
   222  111  234 1    
   223  112  113 2    
   224  112  114 am   BACKBONE|DICT|INTERRES
   225  114  115 1    
   226  114  235 1    
   227  115  116 1    
   228  115  117 1    
   229  115  236 1    
   230  116  237 1    
   231  116  238 1    
   232  116  239 1    
   233  117  118 2    
   234  117  119 am   BACKBONE|DICT|INTERRES
   235  119  120 1    
   236  119  240 1    
   237  120  121 1    
   238  120  124 1    
   239  120  241 1    
   240  121  122 am   BACKBONE|DICT|INTERRES
   241  121  123 2    
   242  122  242 1    
   243  122  243 1    
   244  124  125 1    
   245  124  244 1    
   246  124  245 1    
   247  125  126 1    
   248  126  246 1    
   249  126  247 1    
@<TRIPOS>SUBSTRUCTURE
     1 UNK         1 GROUP             0       ****    0 ROOT    
