@<TRIPOS>MOLECULE
3R540
247   249    1
SMALL
USER_CHARGES


@<TRIPOS>ATOM
      1 CA         -4.9249  -14.6438  -44.2777 C.3       0 UNK        -0.1800 
      2 C          -4.1434  -13.3550  -44.4926 C.2       0 UNK         0.5000 
      3 O          -4.5076  -12.3173  -43.9393 O.2       0 UNK        -0.5000 
      4 N          -3.0827  -13.4183  -45.3061 N.am      1 UNK        -0.5000 
      5 CA         -2.1867  -12.3069  -45.6374 C.3       1 UNK         0.1400 
      6 C6         -1.1835  -12.6731  -46.7628 C.3       23 UNK        -0.0398 
      7 S7         -1.9846  -13.3597  -48.2510 S.3       23 UNK        -0.2404 
      8 C8         -1.1907  -14.9952  -48.3420 C.3       23 UNK        -0.0205 
      9 C9         -1.9010  -15.8953  -49.3391 C.ar      23 UNK        -0.0193 
     10 C10        -1.6502  -15.7632  -50.7081 C.ar      23 UNK        -0.1150 
     11 C11        -2.3127  -16.5743  -51.6350 C.ar      23 UNK        -0.0193 
     12 C12        -3.2263  -17.5285  -51.1756 C.ar      23 UNK        -0.1150 
     13 C13        -3.4750  -17.6814  -49.8092 C.ar      23 UNK        -0.0193 
     14 C14        -2.8121  -16.8583  -48.8950 C.ar      23 UNK        -0.1150 
     15 C15        -4.4720  -18.7253  -49.3278 C.3       23 UNK        -0.0205 
     16 S16        -3.7801  -20.4071  -49.3930 S.3       23 UNK        -0.2404 
     17 C17        -2.5346  -20.3445  -48.0656 C.3       23 UNK        -0.0398 
     18 CA         -2.1480  -21.7467  -47.5354 C.3       11 UNK         0.1400 
     19 N          -0.8636  -21.7220  -46.8337 N.am      11 UNK        -0.5000 
     20 C          -0.2010  -22.7994  -46.3904 C.2       10 UNK         0.5000 
     21 O          -0.5847  -23.9571  -46.5544 O.2       10 UNK        -0.5000 
     22 CA          1.0812  -22.5351  -45.5810 C.3       10 UNK         0.1400 
     23 CB          2.2555  -22.1936  -46.5100 C.3       10 UNK        -0.1800 
     24 N           0.9086  -21.4746  -44.5860 N.am      10 UNK        -0.5000 
     25 C           0.0557  -21.5424  -43.5528 C.2       9 UNK         0.5000 
     26 O          -0.6449  -22.5237  -43.3079 O.2       9 UNK        -0.5000 
     27 CA         -0.0764  -20.2902  -42.6698 C.3       9 UNK         0.1400 
     28 CB          1.0936  -20.1933  -41.6797 C.3       9 UNK        -0.1800 
     29 N          -0.1692  -19.0568  -43.4495 N.am      9 UNK        -0.5000 
     30 C          -1.1518  -18.7714  -44.3159 C.2       8 UNK         0.5000 
     31 O          -2.1140  -19.5075  -44.5337 O.2       8 UNK        -0.5000 
     32 CA         -1.0032  -17.4678  -45.1189 C.3       8 UNK         0.1400 
     33 CB         -1.3452  -16.2469  -44.2537 C.3       8 UNK        -0.1800 
     34 N           0.3371  -17.3106  -45.6827 N.am      8 UNK        -0.5000 
     35 C           0.9039  -18.1610  -46.5507 C.2       7 UNK         0.5000 
     36 O           0.3360  -19.1470  -47.0157 O.2       7 UNK        -0.5000 
     37 CA          2.3724  -17.8981  -46.9152 C.3       7 UNK         0.1400 
     38 CB          2.4794  -16.8455  -48.0287 C.3       7 UNK        -0.1800 
     39 N           3.1466  -17.4790  -45.7466 N.am      7 UNK        -0.5000 
     40 C           3.4619  -18.2888  -44.7248 C.2       6 UNK         0.5000 
     41 O           3.1742  -19.4855  -44.6872 O.2       6 UNK        -0.5000 
     42 CA          4.1804  -17.6417  -43.5261 C.3       6 UNK         0.1400 
     43 CB          5.6882  -17.5256  -43.7943 C.3       6 UNK        -0.1800 
     44 N           3.6411  -16.3212  -43.1958 N.am      6 UNK        -0.5000 
     45 C           2.4079  -16.1093  -42.7149 C.2       5 UNK         0.5000 
     46 O           1.6180  -17.0140  -42.4487 O.2       5 UNK        -0.5000 
     47 CA          1.9640  -14.6435  -42.5448 C.3       5 UNK         0.1400 
     48 CB          2.3060  -14.1332  -41.1376 C.3       5 UNK        -0.1800 
     49 N           2.5291  -13.7285  -43.5405 N.am      5 UNK        -0.5000 
     50 C           2.3518  -13.8299  -44.8644 C.2       4 UNK         0.5000 
     51 O           1.7287  -14.7462  -45.4034 O.2       4 UNK        -0.5000 
     52 CA          2.9556  -12.6980  -45.7049 C.3       4 UNK         0.1400 
     53 CB          2.7763  -12.8976  -47.2222 C.3       4 UNK        -0.1800 
     54 N           2.3509  -11.4345  -45.2937 N.am      4 UNK        -0.5000 
     55 C           2.9759  -10.2507  -45.2776 C.2       3 UNK         0.5000 
     56 O           4.1617  -10.1070  -45.5783 O.2       3 UNK        -0.5000 
     57 CA          2.1484   -9.0097  -44.8835 C.3       3 UNK         0.1400 
     58 CB          1.9929   -8.0659  -46.0872 C.3       3 UNK        -0.1800 
     59 N           0.8128   -9.3348  -44.3786 N.am      3 UNK        -0.5000 
     60 C           0.5267   -9.6737  -43.1143 C.2       2 UNK         0.5000 
     61 O           1.3682   -9.7594  -42.2200 O.2       2 UNK        -0.5000 
     62 CA         -0.9518   -9.9868  -42.8100 C.3       2 UNK         0.1400 
     63 CB         -1.6954   -8.7136  -42.3790 C.3       2 UNK        -0.1800 
     64 N          -1.6496  -10.5917  -43.9498 N.am      2 UNK        -0.5000 
     65 C          -1.4158  -11.8353  -44.3880 C.2       1 UNK         0.5000 
     66 O          -0.6038  -12.5960  -43.8609 O.2       1 UNK        -0.5000 
     67 C          -3.2615  -22.3801  -46.6754 C.2       11 UNK         0.5000 
     68 O          -3.9897  -23.2430  -47.1685 O.2       11 UNK        -0.5000 
     69 N          -3.3387  -21.9839  -45.3970 N.am      12 UNK        -0.5000 
     70 CA         -4.2713  -22.5324  -44.4134 C.3       12 UNK         0.1400 
     71 CB         -4.2152  -21.6960  -43.1263 C.3       12 UNK        -0.1800 
     72 C          -4.0194  -24.0214  -44.1133 C.2       12 UNK         0.5000 
     73 O          -4.9736  -24.7988  -44.0900 O.2       12 UNK        -0.5000 
     74 N          -2.7469  -24.3978  -43.9205 N.am      13 UNK        -0.5000 
     75 CA         -2.3135  -25.7715  -43.6515 C.3       13 UNK         0.1400 
     76 CB         -0.8259  -25.7767  -43.2684 C.3       13 UNK        -0.1800 
     77 C          -2.5723  -26.7301  -44.8279 C.2       13 UNK         0.5000 
     78 O          -2.9955  -27.8652  -44.6057 O.2       13 UNK        -0.5000 
     79 N          -2.3378  -26.2504  -46.0560 N.am      14 UNK        -0.5000 
     80 CA         -2.6034  -26.9788  -47.2979 C.3       14 UNK         0.1400 
     81 CB         -1.8128  -26.3129  -48.4319 C.3       14 UNK        -0.1800 
     82 C          -4.0978  -27.0355  -47.6702 C.2       14 UNK         0.5000 
     83 O          -4.4688  -27.8364  -48.5283 O.2       14 UNK        -0.5000 
     84 N          -4.9145  -26.1702  -47.0497 N.am      15 UNK        -0.5000 
     85 CA         -6.3234  -25.9022  -47.3524 C.3       15 UNK         0.1400 
     86 CB         -7.2058  -27.1272  -47.0347 C.3       15 UNK        -0.1800 
     87 C          -6.4960  -25.3740  -48.7916 C.2       15 UNK         0.5000 
     88 O          -7.3347  -25.8691  -49.5457 O.2       15 UNK        -0.5000 
     89 N          -5.6453  -24.4021  -49.1505 N.am      16 UNK        -0.5000 
     90 CA         -5.5127  -23.6967  -50.4312 C.3       16 UNK         0.1400 
     91 CB         -6.8108  -22.9495  -50.7912 C.3       16 UNK        -0.1800 
     92 C          -5.0044  -24.5375  -51.6197 C.2       16 UNK         0.5000 
     93 O          -4.4416  -23.9568  -52.5488 O.2       16 UNK        -0.5000 
     94 N          -5.1864  -25.8644  -51.5822 N.am      17 UNK        -0.5000 
     95 CA         -4.7902  -26.8259  -52.6127 C.3       17 UNK         0.1400 
     96 CB         -5.1561  -28.2426  -52.1443 C.3       17 UNK        -0.1800 
     97 C          -3.2932  -26.7255  -52.9585 C.2       17 UNK         0.5000 
     98 O          -2.4507  -26.9716  -52.0938 O.2       17 UNK        -0.5000 
     99 N          -3.0022  -26.2978  -54.1951 N.am      18 UNK        -0.5000 
    100 CA        -1.6902  -25.9972  -54.7898 C.3       18 UNK         0.1400 
    101 CB        -0.7826  -27.2422  -54.8043 C.3       18 UNK        -0.1800 
    102 C         -0.9547  -24.7832  -54.1795 C.2       18 UNK         0.5000 
    103 O         -0.2418  -24.0895  -54.9053 O.2       18 UNK        -0.5000 
    104 N         -1.1337  -24.5398  -52.8760 N.am      19 UNK        -0.5000 
    105 CA        -0.5138  -23.4575  -52.1147 C.3       19 UNK         0.1400 
    106 CB        -0.7486  -23.7011  -50.6191 C.3       19 UNK        -0.1800 
    107 C         -1.0066  -22.0552  -52.5110 C.2       19 UNK         0.5000 
    108 O         -0.2205  -21.1087  -52.4535 O.2       19 UNK        -0.5000 
    109 N         -2.2750  -21.9338  -52.9296 N.am      20 UNK        -0.5000 
    110 CA        -2.9057  -20.6762  -53.3428 C.3       20 UNK         0.1400 
    111 CB        -4.4310  -20.7918  -53.1797 C.3       20 UNK        -0.1800 
    112 C         -2.4966  -20.2251  -54.7625 C.2       20 UNK         0.5000 
    113 O         -3.3492  -19.8504  -55.5701 O.2       20 UNK        -0.5000 
    114 N         -1.1905  -20.2480  -55.0469 N.am      21 UNK        -0.5000 
    115 CA        -0.5715  -19.8258  -56.3021 C.3       21 UNK         0.1400 
    116 CB         0.7549  -20.5880  -56.4719 C.3       21 UNK        -0.1800 
    117 C         -0.3938  -18.2938  -56.3435 C.2       21 UNK         0.5000 
    118 O          0.7290  -17.7990  -56.4618 O.2       21 UNK        -0.5000 
    119 N         -1.5089  -17.5694  -56.1996 N.am      22 UNK        -0.5000 
    120 CA        -1.5790  -16.1027  -56.2236 C.3       22 UNK         0.1400 
    121 C         -1.2377  -15.5138  -57.6224 C.2       22 UNK         0.5000 
    122 N         -0.5828  -14.3618  -57.6752 N.am      22 UNK        -0.7600 
    123 O         -1.5990  -16.0682  -58.6586 O.2       22 UNK        -0.5000 
    124 C124       -2.9694  -15.5951  -55.7572 C.3       23 UNK        -0.0398 
    125 S125       -3.5394  -16.0741  -54.0810 S.3       23 UNK        -0.2404 
    126 C126       -2.0263  -16.4280  -53.1247 C.3       23 UNK        -0.0205 
    127 H127       -4.5919  -15.4368  -44.9477 H         1 UNK         0.0600 
    128 H128       -5.9864  -14.4742  -44.4581 H         1 UNK         0.0600 
    129 H129       -4.8031  -14.9890  -43.2510 H         1 UNK         0.0600 
    130 H130       -2.8518  -14.2966  -45.7436 H         1 UNK         0.3000 
    131 H131       -2.8080  -11.4843  -45.9978 H         1 UNK         0.0600 
    132 H132       -0.6205  -11.7892  -47.0674 H         1 UNK         0.0800 
    133 H133       -0.4437  -13.3884  -46.3996 H         1 UNK         0.0800 
    134 H134       -1.1894  -15.4593  -47.3558 H         1 UNK         0.0800 
    135 H135       -0.1444  -14.8755  -48.6270 H         1 UNK         0.0800 
    136 H136       -0.9439  -15.0190  -51.0487 H         1 UNK         0.1150 
    137 H137       -3.7545  -18.1493  -51.8837 H         1 UNK         0.1150 
    138 H138       -3.0126  -16.9630  -47.8389 H         1 UNK         0.1150 
    139 H139       -4.8089  -18.5061  -48.3135 H         1 UNK         0.0800 
    140 H140       -5.3618  -18.6890  -49.9580 H         1 UNK         0.0800 
    141 H141       -2.8759  -19.6980  -47.2554 H         1 UNK         0.0800 
    142 H142       -1.6602  -19.8556  -48.4959 H         1 UNK         0.0800 
    143 H143       -2.0083  -22.4007  -48.3962 H         1 UNK         0.0600 
    144 H144       -0.4506  -20.8033  -46.6889 H         1 UNK         0.3000 
    145 H145        1.3299  -23.4541  -45.0463 H         1 UNK         0.0600 
    146 H146        3.1823  -22.0805  -45.9474 H         1 UNK         0.0600 
    147 H147        2.4144  -22.9841  -47.2445 H         1 UNK         0.0600 
    148 H148        2.0822  -21.2670  -47.0571 H         1 UNK         0.0600 
    149 H149        1.4805  -20.6442  -44.6991 H         1 UNK         0.3000 
    150 H150       -0.9994  -20.3873  -42.0947 H         1 UNK         0.0600 
    151 H151        1.1770  -21.1021  -41.0825 H         1 UNK         0.0600 
    152 H152        0.9558  -19.3616  -40.9886 H         1 UNK         0.0600 
    153 H153        2.0449  -20.0470  -42.1921 H         1 UNK         0.0600 
    154 H154        0.5625  -18.3684  -43.2944 H         1 UNK         0.3000 
    155 H155       -1.7065  -17.5069  -45.9518 H         1 UNK         0.0600 
    156 H156       -2.3977  -16.2546  -43.9712 H         1 UNK         0.0600 
    157 H157       -1.1460  -15.3164  -44.7830 H         1 UNK         0.0600 
    158 H158       -0.7661  -16.2273  -43.3316 H         1 UNK         0.0600 
    159 H159        0.8709  -16.4983  -45.3869 H         1 UNK         0.3000 
    160 H160        2.7991  -18.8307  -47.2902 H         1 UNK         0.0600 
    161 H161        2.0238  -15.8994  -47.7390 H         1 UNK         0.0600 
    162 H162        1.9705  -17.1856  -48.9315 H         1 UNK         0.0600 
    163 H163        3.5189  -16.6525  -48.2936 H         1 UNK         0.0600 
    164 H164        3.3515  -16.4935  -45.6696 H         1 UNK         0.3000 
    165 H165        4.0373  -18.2935  -42.6615 H         1 UNK         0.0600 
    166 H166        6.2150  -17.1397  -42.9214 H         1 UNK         0.0600 
    167 H167        6.1185  -18.5005  -44.0275 H         1 UNK         0.0600 
    168 H168        5.9000  -16.8635  -44.6347 H         1 UNK         0.0600 
    169 H169        4.2291  -15.5229  -43.3835 H         1 UNK         0.3000 
    170 H170        0.8789  -14.6165  -42.6585 H         1 UNK         0.0600 
    171 H171        1.8761  -14.7808  -40.3722 H         1 UNK         0.0600 
    172 H172        3.3835  -14.0984  -40.9723 H         1 UNK         0.0600 
    173 H173        1.9073  -13.1314  -40.9752 H         1 UNK         0.0600 
    174 H174        3.0335  -12.9308  -43.1818 H         1 UNK         0.3000 
    175 H175        4.0256  -12.6857  -45.4866 H         1 UNK         0.0600 
    176 H176        1.7251  -12.9548  -47.5043 H         1 UNK         0.0600 
    177 H177        3.2278  -12.0796  -47.7835 H         1 UNK         0.0600 
    178 H178        3.2582  -13.8180  -47.5525 H         1 UNK         0.0600 
    179 H179        1.3973  -11.4878  -44.9629 H         1 UNK         0.3000 
    180 H180        2.7047   -8.4806  -44.1069 H         1 UNK         0.0600 
    181 H181        1.4522   -8.5427  -46.9058 H         1 UNK         0.0600 
    182 H182        2.9655   -7.7570  -46.4727 H         1 UNK         0.0600 
    183 H183        1.4539   -7.1594  -45.8108 H         1 UNK         0.0600 
    184 H184        0.0551   -9.2828  -45.0432 H         1 UNK         0.3000 
    185 H185       -0.9763  -10.6932  -41.9772 H         1 UNK         0.0600 
    186 H186       -1.2122   -8.2525  -41.5165 H         1 UNK         0.0600 
    187 H187       -1.7209   -7.9706  -43.1772 H         1 UNK         0.0600 
    188 H188       -2.7238   -8.9357  -42.0933 H         1 UNK         0.0600 
    189 H189       -2.3552  -10.0286  -44.4032 H         1 UNK         0.3000 
    190 H190       -2.7239  -21.2416  -45.0728 H         1 UNK         0.3000 
    191 H191       -5.2777  -22.4449  -44.8282 H         1 UNK         0.0600 
    192 H192       -4.4793  -20.6564  -43.3211 H         1 UNK         0.0600 
    193 H193       -4.9157  -22.0761  -42.3817 H         1 UNK         0.0600 
    194 H194       -3.2208  -21.7086  -42.6796 H         1 UNK         0.0600 
    195 H195       -2.0198  -23.6864  -43.9136 H         1 UNK         0.3000 
    196 H196       -2.8843  -26.1380  -42.7958 H         1 UNK         0.0600 
    197 H197       -0.4785  -26.7890  -43.0578 H         1 UNK         0.0600 
    198 H198       -0.6478  -25.1796  -42.3739 H         1 UNK         0.0600 
    199 H199       -0.2037  -25.3741  -44.0685 H         1 UNK         0.0600 
    200 H200       -1.9268  -25.3254  -46.1530 H         1 UNK         0.3000 
    201 H201       -2.2487  -28.0054  -47.1869 H         1 UNK         0.0600 
    202 H202       -0.7434  -26.3081  -48.2209 H         1 UNK         0.0600 
    203 H203       -2.1319  -25.2805  -48.5766 H         1 UNK         0.0600 
    204 H204       -1.9568  -26.8385  -49.3766 H         1 UNK         0.0600 
    205 H205       -4.4955  -25.5468  -46.3721 H         1 UNK         0.3000 
    206 H206       -6.6303  -25.0931  -46.6880 H         1 UNK         0.0600 
    207 H207       -7.0559  -27.4633  -46.0087 H         1 UNK         0.0600 
    208 H208       -8.2628  -26.8830  -47.1456 H         1 UNK         0.0600 
    209 H209       -6.9950  -27.9670  -47.6973 H         1 UNK         0.0600 
    210 H210       -4.9945  -24.0824  -48.4337 H         1 UNK         0.3000 
    211 H211       -4.7407  -22.9479  -50.2610 H         1 UNK         0.0600 
    212 H212       -6.6852  -22.3604  -51.7000 H         1 UNK         0.0600 
    213 H213       -7.1001  -22.2613  -49.9970 H         1 UNK         0.0600 
    214 H214       -7.6413  -23.6338  -50.9647 H         1 UNK         0.0600 
    215 H215       -5.6822  -26.2404  -50.7837 H         1 UNK         0.3000 
    216 H216       -5.3761  -26.6043  -53.5067 H         1 UNK         0.0600 
    217 H217       -4.8966  -28.9836  -52.9012 H         1 UNK         0.0600 
    218 H218       -6.2257  -28.3319  -51.9531 H         1 UNK         0.0600 
    219 H219       -4.6294  -28.5108  -51.2275 H         1 UNK         0.0600 
    220 H220       -3.7844  -26.0718  -54.7938 H         1 UNK         0.3000 
    221 H221       -1.8969  -25.7352  -55.8286 H         1 UNK         0.0600 
    222 H222       -0.4970  -27.5519  -53.7988 H         1 UNK         0.0600 
    223 H223       -1.2762  -28.0849  -55.2884 H         1 UNK         0.0600 
    224 H224        0.1377  -27.0445  -55.3553 H         1 UNK         0.0600 
    225 H225       -1.7033  -25.2014  -52.3588 H         1 UNK         0.3000 
    226 H226        0.5616  -23.4921  -52.3004 H         1 UNK         0.0600 
    227 H227       -0.3153  -24.6501  -50.3039 H         1 UNK         0.0600 
    228 H228       -0.2855  -22.9185  -50.0165 H         1 UNK         0.0600 
    229 H229       -1.8135  -23.7189  -50.3841 H         1 UNK         0.0600 
    230 H230       -2.8662  -22.7592  -52.9517 H         1 UNK         0.3000 
    231 H231       -2.5621  -19.8967  -52.6623 H         1 UNK         0.0600 
    232 H232       -4.8494  -21.5490  -53.8436 H         1 UNK         0.0600 
    233 H233       -4.9251  -19.8458  -53.4041 H         1 UNK         0.0600 
    234 H234       -4.6968  -21.0575  -52.1579 H         1 UNK         0.0600 
    235 H235       -0.5604  -20.5273  -54.3017 H         1 UNK         0.3000 
    236 H236       -1.2227  -20.1016  -57.1342 H         1 UNK         0.0600 
    237 H237        0.5903  -21.6659  -56.4781 H         1 UNK         0.0600 
    238 H238        1.2386  -20.3285  -57.4144 H         1 UNK         0.0600 
    239 H239        1.4554  -20.3625  -55.6668 H         1 UNK         0.0600 
    240 H240       -2.3881  -18.0640  -56.1030 H         1 UNK         0.3000 
    241 H241       -0.8227  -15.7314  -55.5310 H         1 UNK         0.0600 
    242 H242       -0.3690  -13.9618  -58.5761 H         1 UNK         0.3800 
    243 H243       -0.2817  -13.8826  -56.8403 H         1 UNK         0.3800 
    244 H244       -2.9885  -14.5042  -55.7880 H         1 UNK         0.0800 
    245 H245       -3.7364  -15.9203  -56.4624 H         1 UNK         0.0800 
    246 H246       -1.5647  -17.3484  -53.4821 H         1 UNK         0.0800 
    247 H247       -1.3065  -15.6250  -53.2872 H         1 UNK         0.0800 
@<TRIPOS>BOND
     1    1    2 1    
     2    1  127 1    
     3    1  128 1    
     4    1  129 1    
     5    2    3 2    
     6    2    4 am   BACKBONE|DICT|INTERRES
     7    4    5 1    
     8    4  130 1    
     9    5    6 1    
    10    5   65 1    
    11    5  131 1    
    12    6    7 1    
    13    6  132 1    
    14    6  133 1    
    15    7    8 1    
    16    8    9 1    
    17    8  134 1    
    18    8  135 1    
    19    9   10 ar   
    20    9   14 ar   
    21   10   11 ar   
    22   10  136 1    
    23   11   12 ar   
    24   11  126 1    
    25   12   13 ar   
    26   12  137 1    
    27   13   14 ar   
    28   13   15 1    
    29   14  138 1    
    30   15   16 1    
    31   15  139 1    
    32   15  140 1    
    33   16   17 1    
    34   17   18 1    
    35   17  141 1    
    36   17  142 1    
    37   18   19 1    
    38   18   67 1    
    39   18  143 1    
    40   19   20 am   BACKBONE|DICT|INTERRES
    41   19  144 1    
    42   20   21 2    
    43   20   22 1    
    44   22   23 1    
    45   22   24 1    
    46   22  145 1    
    47   23  146 1    
    48   23  147 1    
    49   23  148 1    
    50   24   25 am   BACKBONE|DICT|INTERRES
    51   24  149 1    
    52   25   26 2    
    53   25   27 1    
    54   27   28 1    
    55   27   29 1    
    56   27  150 1    
    57   28  151 1    
    58   28  152 1    
    59   28  153 1    
    60   29   30 am   BACKBONE|DICT|INTERRES
    61   29  154 1    
    62   30   31 2    
    63   30   32 1    
    64   32   33 1    
    65   32   34 1    
    66   32  155 1    
    67   33  156 1    
    68   33  157 1    
    69   33  158 1    
    70   34   35 am   BACKBONE|DICT|INTERRES
    71   34  159 1    
    72   35   36 2    
    73   35   37 1    
    74   37   38 1    
    75   37   39 1    
    76   37  160 1    
    77   38  161 1    
    78   38  162 1    
    79   38  163 1    
    80   39   40 am   BACKBONE|DICT|INTERRES
    81   39  164 1    
    82   40   41 2    
    83   40   42 1    
    84   42   43 1    
    85   42   44 1    
    86   42  165 1    
    87   43  166 1    
    88   43  167 1    
    89   43  168 1    
    90   44   45 am   BACKBONE|DICT|INTERRES
    91   44  169 1    
    92   45   46 2    
    93   45   47 1    
    94   47   48 1    
    95   47   49 1    
    96   47  170 1    
    97   48  171 1    
    98   48  172 1    
    99   48  173 1    
   100   49   50 am   BACKBONE|DICT|INTERRES
   101   49  174 1    
   102   50   51 2    
   103   50   52 1    
   104   52   53 1    
   105   52   54 1    
   106   52  175 1    
   107   53  176 1    
   108   53  177 1    
   109   53  178 1    
   110   54   55 am   BACKBONE|DICT|INTERRES
   111   54  179 1    
   112   55   56 2    
   113   55   57 1    
   114   57   58 1    
   115   57   59 1    
   116   57  180 1    
   117   58  181 1    
   118   58  182 1    
   119   58  183 1    
   120   59   60 am   BACKBONE|DICT|INTERRES
   121   59  184 1    
   122   60   61 2    
   123   60   62 1    
   124   62   63 1    
   125   62   64 1    
   126   62  185 1    
   127   63  186 1    
   128   63  187 1    
   129   63  188 1    
   130   64   65 am   BACKBONE|DICT|INTERRES
   131   64  189 1    
   132   65   66 2    
   133   67   68 2    
   134   67   69 am   BACKBONE|DICT|INTERRES
   135   69   70 1    
   136   69  190 1    
   137   70   71 1    
   138   70   72 1    
   139   70  191 1    
   140   71  192 1    
   141   71  193 1    
   142   71  194 1    
   143   72   73 2    
   144   72   74 am   BACKBONE|DICT|INTERRES
   145   74   75 1    
   146   74  195 1    
   147   75   76 1    
   148   75   77 1    
   149   75  196 1    
   150   76  197 1    
   151   76  198 1    
   152   76  199 1    
   153   77   78 2    
   154   77   79 am   BACKBONE|DICT|INTERRES
   155   79   80 1    
   156   79  200 1    
   157   80   81 1    
   158   80   82 1    
   159   80  201 1    
   160   81  202 1    
   161   81  203 1    
   162   81  204 1    
   163   82   83 2    
   164   82   84 am   BACKBONE|DICT|INTERRES
   165   84   85 1    
   166   84  205 1    
   167   85   86 1    
   168   85   87 1    
   169   85  206 1    
   170   86  207 1    
   171   86  208 1    
   172   86  209 1    
   173   87   88 2    
   174   87   89 am   BACKBONE|DICT|INTERRES
   175   89   90 1    
   176   89  210 1    
   177   90   91 1    
   178   90   92 1    
   179   90  211 1    
   180   91  212 1    
   181   91  213 1    
   182   91  214 1    
   183   92   93 2    
   184   92   94 am   BACKBONE|DICT|INTERRES
   185   94   95 1    
   186   94  215 1    
   187   95   96 1    
   188   95   97 1    
   189   95  216 1    
   190   96  217 1    
   191   96  218 1    
   192   96  219 1    
   193   97   98 2    
   194   97   99 am   BACKBONE|DICT|INTERRES
   195   99  100 1    
   196   99  220 1    
   197  100  101 1    
   198  100  102 1    
   199  100  221 1    
   200  101  222 1    
   201  101  223 1    
   202  101  224 1    
   203  102  103 2    
   204  102  104 am   BACKBONE|DICT|INTERRES
   205  104  105 1    
   206  104  225 1    
   207  105  106 1    
   208  105  107 1    
   209  105  226 1    
   210  106  227 1    
   211  106  228 1    
   212  106  229 1    
   213  107  108 2    
   214  107  109 am   BACKBONE|DICT|INTERRES
   215  109  110 1    
   216  109  230 1    
   217  110  111 1    
   218  110  112 1    
   219  110  231 1    
   220  111  232 1    
   221  111  233 1    
   222  111  234 1    
   223  112  113 2    
   224  112  114 am   BACKBONE|DICT|INTERRES
   225  114  115 1    
   226  114  235 1    
   227  115  116 1    
   228  115  117 1    
   229  115  236 1    
   230  116  237 1    
   231  116  238 1    
   232  116  239 1    
   233  117  118 2    
   234  117  119 am   BACKBONE|DICT|INTERRES
   235  119  120 1    
   236  119  240 1    
   237  120  121 1    
   238  120  124 1    
   239  120  241 1    
   240  121  122 am   BACKBONE|DICT|INTERRES
   241  121  123 2    
   242  122  242 1    
   243  122  243 1    
   244  124  125 1    
   245  124  244 1    
   246  124  245 1    
   247  125  126 1    
   248  126  246 1    
   249  126  247 1    
@<TRIPOS>SUBSTRUCTURE
     1 UNK         1 GROUP             0       ****    0 ROOT    
