@<TRIPOS>MOLECULE
3R540
247   249    1
SMALL
USER_CHARGES


@<TRIPOS>ATOM
      1 CA         -0.1278  -13.6932  -47.1044 C.3       0 UNK        -0.1800 
      2 C           0.8812  -14.5794  -47.8190 C.2       0 UNK         0.5000 
      3 O           1.1284  -15.7100  -47.3961 O.2       0 UNK        -0.5000 
      4 N           1.4595  -14.0601  -48.9086 N.am      1 UNK        -0.5000 
      5 CA          2.3930  -14.7508  -49.8052 C.3       1 UNK         0.1400 
      6 C6          1.7153  -15.8934  -50.6140 C.3       23 UNK        -0.0398 
      7 S7          0.3314  -15.2951  -51.6414 S.3       23 UNK        -0.2404 
      8 C8         -0.0135  -16.7711  -52.6473 C.3       23 UNK        -0.0205 
      9 C9         -0.5343  -17.9254  -51.8046 C.ar      23 UNK        -0.0193 
     10 C10        -1.8695  -17.9519  -51.3961 C.ar      23 UNK        -0.1150 
     11 C11        -2.3680  -19.0195  -50.6418 C.ar      23 UNK        -0.0193 
     12 C12        -1.5058  -20.0620  -50.2847 C.ar      23 UNK        -0.1150 
     13 C13        -0.1682  -20.0502  -50.6944 C.ar      23 UNK        -0.0193 
     14 C14         0.3106  -18.9807  -51.4545 C.ar      23 UNK        -0.1150 
     15 C15         0.7527  -21.2145  -50.3644 C.3       23 UNK        -0.0205 
     16 S16         2.0189  -20.7865  -49.1242 S.3       23 UNK        -0.2404 
     17 C17         1.0340  -20.5270  -47.6113 C.3       23 UNK        -0.0398 
     18 CA          0.8864  -21.8169  -46.7635 C.3       11 UNK         0.1400 
     19 N           0.6769  -21.5367  -45.3397 N.am      11 UNK        -0.5000 
     20 C           0.7261  -22.4614  -44.3678 C.2       10 UNK         0.5000 
     21 O           1.0218  -23.6397  -44.5602 O.2       10 UNK        -0.5000 
     22 CA          0.3185  -22.0105  -42.9532 C.3       10 UNK         0.1400 
     23 CB          1.5254  -21.4688  -42.1754 C.3       10 UNK        -0.1800 
     24 N          -0.7478  -21.0082  -42.9775 N.am      10 UNK        -0.5000 
     25 C          -2.0114  -21.2794  -43.3332 C.2       9 UNK         0.5000 
     26 O          -2.4079  -22.4053  -43.6345 O.2       9 UNK        -0.5000 
     27 CA         -2.9779  -20.0846  -43.4136 C.3       9 UNK         0.1400 
     28 CB         -3.5763  -19.7844  -42.0324 C.3       9 UNK        -0.1800 
     29 N          -2.3637  -18.8726  -43.9694 N.am      9 UNK        -0.5000 
     30 C          -1.8957  -18.7771  -45.2245 C.2       8 UNK         0.5000 
     31 O          -1.8477  -19.7397  -45.9901 O.2       8 UNK        -0.5000 
     32 CA         -1.3549  -17.4235  -45.7245 C.3       8 UNK         0.1400 
     33 CB         -2.0386  -17.0116  -47.0443 C.3       8 UNK        -0.1800 
     34 N          -1.3750  -16.3454  -44.7292 N.am      8 UNK        -0.5000 
     35 C          -2.4295  -15.6655  -44.2539 C.2       7 UNK         0.5000 
     36 O          -3.5925  -15.8556  -44.6115 O.2       7 UNK        -0.5000 
     37 CA         -2.1126  -14.6183  -43.1615 C.3       7 UNK         0.1400 
     38 CB         -3.3701  -14.1094  -42.4270 C.3       7 UNK        -0.1800 
     39 N          -1.1105  -15.0906  -42.1984 N.am      7 UNK        -0.5000 
     40 C          -1.1754  -16.2031  -41.4484 C.2       6 UNK         0.5000 
     41 O          -2.1480  -16.9566  -41.4407 O.2       6 UNK        -0.5000 
     42 CA          0.0604  -16.5766  -40.6066 C.3       6 UNK         0.1400 
     43 CB          0.5234  -18.0053  -40.9427 C.3       6 UNK        -0.1800 
     44 N           1.1778  -15.6612  -40.8405 N.am      6 UNK        -0.5000 
     45 C           1.5623  -14.6791  -40.0141 C.2       5 UNK         0.5000 
     46 O           1.0372  -14.4587  -38.9223 O.2       5 UNK        -0.5000 
     47 CA          2.7237  -13.7793  -40.4876 C.3       5 UNK         0.1400 
     48 CB          4.0450  -14.2298  -39.8460 C.3       5 UNK        -0.1800 
     49 N           2.8916  -13.7484  -41.9434 N.am      5 UNK        -0.5000 
     50 C           2.0142  -13.2179  -42.8065 C.2       4 UNK         0.5000 
     51 O           0.9639  -12.6736  -42.4661 O.2       4 UNK        -0.5000 
     52 CA          2.3252  -13.3928  -44.3046 C.3       4 UNK         0.1400 
     53 CB          3.1798  -12.2311  -44.8305 C.3       4 UNK        -0.1800 
     54 N           2.9783  -14.6639  -44.6323 N.am      4 UNK        -0.5000 
     55 C           2.4669  -15.8780  -44.3877 C.2       3 UNK         0.5000 
     56 O           1.3746  -16.0608  -43.8449 O.2       3 UNK        -0.5000 
     57 CA          3.3282  -17.0716  -44.8207 C.3       3 UNK         0.1400 
     58 CB          2.6493  -18.4272  -44.5637 C.3       3 UNK        -0.1800 
     59 N           3.6694  -16.9528  -46.2360 N.am      3 UNK        -0.5000 
     60 C           4.8882  -17.1840  -46.7442 C.2       2 UNK         0.5000 
     61 O           5.8630  -17.4833  -46.0531 O.2       2 UNK        -0.5000 
     62 CA          5.0710  -17.0871  -48.2727 C.3       2 UNK         0.1400 
     63 CB          5.3412  -18.4776  -48.8691 C.3       2 UNK        -0.1800 
     64 N           3.9266  -16.4999  -48.9683 N.am      2 UNK        -0.5000 
     65 C           3.6618  -15.1883  -49.0354 C.2       1 UNK         0.5000 
     66 O           4.3687  -14.3273  -48.5075 O.2       1 UNK        -0.5000 
     67 C          -0.2381  -22.7185  -47.3040 C.2       11 UNK         0.5000 
     68 O           0.0472  -23.7475  -47.9140 O.2       11 UNK        -0.5000 
     69 N          -1.4919  -22.3385  -47.0200 N.am      12 UNK        -0.5000 
     70 CA         -2.7000  -23.0768  -47.3816 C.3       12 UNK         0.1400 
     71 CB         -3.9347  -22.2813  -46.9343 C.3       12 UNK        -0.1800 
     72 C          -2.7341  -24.5105  -46.8217 C.2       12 UNK         0.5000 
     73 O          -3.2028  -25.4158  -47.5105 O.2       12 UNK        -0.5000 
     74 N          -2.2119  -24.6956  -45.6029 N.am      13 UNK        -0.5000 
     75 CA         -2.0444  -26.0001  -44.9708 C.3       13 UNK         0.1400 
     76 CB         -1.8012  -25.8096  -43.4652 C.3       13 UNK        -0.1800 
     77 C          -0.9139  -26.8293  -45.6104 C.2       13 UNK         0.5000 
     78 O          -1.1357  -27.9927  -45.9482 O.2       13 UNK        -0.5000 
     79 N           0.2809  -26.2352  -45.7366 N.am      14 UNK        -0.5000 
     80 CA          1.5030  -26.9431  -46.1226 C.3       14 UNK         0.1400 
     81 CB          2.7226  -26.1655  -45.6040 C.3       14 UNK        -0.1800 
     82 C           1.6436  -27.1912  -47.6342 C.2       14 UNK         0.5000 
     83 O           2.1080  -28.2637  -48.0238 O.2       14 UNK        -0.5000 
     84 N           1.2873  -26.1944  -48.4524 N.am      15 UNK        -0.5000 
     85 CA          1.5717  -26.1516  -49.8902 C.3       15 UNK         0.1400 
     86 CB          2.4441  -24.9141  -50.1684 C.3       15 UNK        -0.1800 
     87 C           0.2991  -26.1319  -50.7571 C.2       15 UNK         0.5000 
     88 O           0.4190  -26.0418  -51.9800 O.2       15 UNK        -0.5000 
     89 N          -0.8765  -26.2232  -50.1173 N.am      16 UNK        -0.5000 
     90 CA         -2.2309  -26.0612  -50.6611 C.3       16 UNK         0.1400 
     91 CB         -2.4916  -26.9648  -51.8834 C.3       16 UNK        -0.1800 
     92 C          -2.5663  -24.5865  -50.9599 C.2       16 UNK         0.5000 
     93 O          -1.6825  -23.7777  -51.2499 O.2       16 UNK        -0.5000 
     94 N          -3.8559  -24.2484  -50.8527 N.am      17 UNK        -0.5000 
     95 CA         -4.3588  -22.8938  -51.0557 C.3       17 UNK         0.1400 
     96 CB         -5.7398  -22.7571  -50.3954 C.3       17 UNK        -0.1800 
     97 C          -4.4396  -22.5414  -52.5488 C.2       17 UNK         0.5000 
     98 O          -5.1488  -23.2180  -53.2969 O.2       17 UNK        -0.5000 
     99 N          -3.7627  -21.4571  -52.9429 N.am      18 UNK        -0.5000 
    100 CA        -3.9641  -20.7814  -54.2204 C.3       18 UNK         0.1400 
    101 CB        -2.7135  -19.9522  -54.5582 C.3       18 UNK        -0.1800 
    102 C         -5.2252  -19.9069  -54.1098 C.2       18 UNK         0.5000 
    103 O         -5.1387  -18.7521  -53.6886 O.2       18 UNK        -0.5000 
    104 N         -6.3861  -20.4879  -54.4366 N.am      19 UNK        -0.5000 
    105 CA        -7.7146  -19.8814  -54.2818 C.3       19 UNK         0.1400 
    106 CB        -8.7811  -20.9325  -54.6237 C.3       19 UNK        -0.1800 
    107 C         -7.9388  -18.5945  -55.1027 C.2       19 UNK         0.5000 
    108 O         -8.8157  -17.8028  -54.7581 O.2       19 UNK        -0.5000 
    109 N         -7.1360  -18.3957  -56.1571 N.am      20 UNK        -0.5000 
    110 CA        -7.0885  -17.1642  -56.9460 C.3       20 UNK         0.1400 
    111 CB        -6.3112  -17.4343  -58.2435 C.3       20 UNK        -0.1800 
    112 C         -6.4621  -15.9809  -56.1788 C.2       20 UNK         0.5000 
    113 O         -6.7890  -14.8317  -56.4781 O.2       20 UNK        -0.5000 
    114 N         -5.5799  -16.2776  -55.2145 N.am      21 UNK        -0.5000 
    115 CA        -4.9445  -15.3015  -54.3340 C.3       21 UNK         0.1400 
    116 CB        -3.4776  -15.6980  -54.1055 C.3       21 UNK        -0.1800 
    117 C         -5.7146  -15.1999  -53.0085 C.2       21 UNK         0.5000 
    118 O         -6.1188  -14.1007  -52.6253 O.2       21 UNK        -0.5000 
    119 N         -5.9453  -16.3448  -52.3522 N.am      22 UNK        -0.5000 
    120 CA        -6.7316  -16.4631  -51.1119 C.3       22 UNK         0.1400 
    121 C         -8.2635  -16.4550  -51.3897 C.2       22 UNK         0.5000 
    122 N         -8.7849  -15.4069  -52.0126 N.am      22 UNK        -0.7600 
    123 O         -8.9848  -17.3883  -51.0462 O.2       22 UNK        -0.5000 
    124 C124       -6.2828  -17.6637  -50.2357 C.3       23 UNK        -0.0398 
    125 S125       -4.5438  -17.5202  -49.6936 S.3       23 UNK        -0.2404 
    126 C126       -3.8491  -19.0956  -50.2874 C.3       23 UNK        -0.0205 
    127 H127        0.2783  -12.6951  -46.9404 H         1 UNK         0.0600 
    128 H128       -0.3977  -14.1173  -46.1386 H         1 UNK         0.0600 
    129 H129       -1.0369  -13.6036  -47.6990 H         1 UNK         0.0600 
    130 H130        1.2269  -13.1161  -49.1819 H         1 UNK         0.3000 
    131 H131        2.7326  -14.0023  -50.5227 H         1 UNK         0.0600 
    132 H132        2.4379  -16.3705  -51.2785 H         1 UNK         0.0800 
    133 H133        1.3326  -16.6689  -49.9482 H         1 UNK         0.0800 
    134 H134       -0.7514  -16.5164  -53.4085 H         1 UNK         0.0800 
    135 H135        0.8883  -17.0630  -53.1876 H         1 UNK         0.0800 
    136 H136       -2.5264  -17.1428  -51.6785 H         1 UNK         0.1150 
    137 H137       -1.8768  -20.8973  -49.7081 H         1 UNK         0.1150 
    138 H138        1.3421  -18.9758  -51.7775 H         1 UNK         0.1150 
    139 H139        0.1787  -22.0806  -50.0365 H         1 UNK         0.0800 
    140 H140        1.2588  -21.5305  -51.2776 H         1 UNK         0.0800 
    141 H141        1.5722  -19.7724  -47.0387 H         1 UNK         0.0800 
    142 H142        0.0713  -20.0741  -47.8528 H         1 UNK         0.0800 
    143 H143        1.8203  -22.3799  -46.8331 H         1 UNK         0.0600 
    144 H144        0.3518  -20.6124  -45.1034 H         1 UNK         0.3000 
    145 H145       -0.0533  -22.8893  -42.4216 H         1 UNK         0.0600 
    146 H146        1.2480  -21.1902  -41.1586 H         1 UNK         0.0600 
    147 H147        2.3102  -22.2229  -42.1028 H         1 UNK         0.0600 
    148 H148        1.9580  -20.5946  -42.6574 H         1 UNK         0.0600 
    149 H149       -0.5030  -20.0588  -42.7414 H         1 UNK         0.3000 
    150 H150       -3.7965  -20.3678  -44.0781 H         1 UNK         0.0600 
    151 H151       -4.1227  -20.6474  -41.6497 H         1 UNK         0.0600 
    152 H152       -4.2757  -18.9493  -42.0765 H         1 UNK         0.0600 
    153 H153       -2.8042  -19.5381  -41.3029 H         1 UNK         0.0600 
    154 H154       -2.3680  -18.0493  -43.3794 H         1 UNK         0.3000 
    155 H155       -0.3010  -17.5857  -45.9498 H         1 UNK         0.0600 
    156 H156       -1.6978  -16.0387  -47.3907 H         1 UNK         0.0600 
    157 H157       -3.1232  -16.9692  -46.9448 H         1 UNK         0.0600 
    158 H158       -1.8168  -17.7283  -47.8363 H         1 UNK         0.0600 
    159 H159       -0.4618  -16.1302  -44.3344 H         1 UNK         0.3000 
    160 H160       -1.6641  -13.7678  -43.6770 H         1 UNK         0.0600 
    161 H161       -3.9001  -14.9180  -41.9226 H         1 UNK         0.0600 
    162 H162       -4.0687  -13.6446  -43.1236 H         1 UNK         0.0600 
    163 H163       -3.1122  -13.3597  -41.6791 H         1 UNK         0.0600 
    164 H164       -0.2687  -14.5322  -42.1419 H         1 UNK         0.3000 
    165 H165       -0.2401  -16.5531  -39.5574 H         1 UNK         0.0600 
    166 H166        0.7314  -18.1168  -42.0064 H         1 UNK         0.0600 
    167 H167        1.4267  -18.2696  -40.3928 H         1 UNK         0.0600 
    168 H168       -0.2407  -18.7374  -40.6785 H         1 UNK         0.0600 
    169 H169        1.6303  -15.7476  -41.7420 H         1 UNK         0.3000 
    170 H170        2.5081  -12.7630  -40.1510 H         1 UNK         0.0600 
    171 H171        3.9691  -14.2363  -38.7577 H         1 UNK         0.0600 
    172 H172        4.3229  -15.2363  -40.1615 H         1 UNK         0.0600 
    173 H173        4.8614  -13.5568  -40.1087 H         1 UNK         0.0600 
    174 H174        3.7242  -14.1835  -42.3131 H         1 UNK         0.3000 
    175 H175        1.3692  -13.3712  -44.8247 H         1 UNK         0.0600 
    176 H176        4.1679  -12.2167  -44.3689 H         1 UNK         0.0600 
    177 H177        3.3138  -12.2996  -45.9106 H         1 UNK         0.0600 
    178 H178        2.7052  -11.2711  -44.6230 H         1 UNK         0.0600 
    179 H179        3.8699  -14.6055  -45.1032 H         1 UNK         0.3000 
    180 H180        4.2300  -17.0278  -44.2068 H         1 UNK         0.0600 
    181 H181        1.6848  -18.4976  -45.0638 H         1 UNK         0.0600 
    182 H182        2.4812  -18.5636  -43.4969 H         1 UNK         0.0600 
    183 H183        3.2699  -19.2562  -44.9042 H         1 UNK         0.0600 
    184 H184        2.9163  -16.6509  -46.8474 H         1 UNK         0.3000 
    185 H185        5.9493  -16.4646  -48.4562 H         1 UNK         0.0600 
    186 H186        6.2300  -18.9285  -48.4259 H         1 UNK         0.0600 
    187 H187        4.5080  -19.1581  -48.6933 H         1 UNK         0.0600 
    188 H188        5.5098  -18.4221  -49.9447 H         1 UNK         0.0600 
    189 H189        3.2843  -17.1540  -49.3898 H         1 UNK         0.3000 
    190 H190       -1.6345  -21.4559  -46.5318 H         1 UNK         0.3000 
    191 H191       -2.7173  -23.1485  -48.4680 H         1 UNK         0.0600 
    192 H192       -3.9823  -21.3127  -47.4319 H         1 UNK         0.0600 
    193 H193       -4.8547  -22.8175  -47.1669 H         1 UNK         0.0600 
    194 H194       -3.9287  -22.1038  -45.8594 H         1 UNK         0.0600 
    195 H195       -1.9144  -23.8848  -45.0728 H         1 UNK         0.3000 
    196 H196       -2.9754  -26.5588  -45.0891 H         1 UNK         0.0600 
    197 H197       -1.6885  -26.7710  -42.9628 H         1 UNK         0.0600 
    198 H198       -2.6376  -25.2923  -42.9947 H         1 UNK         0.0600 
    199 H199       -0.8994  -25.2287  -43.2701 H         1 UNK         0.0600 
    200 H200        0.3958  -25.2739  -45.4279 H         1 UNK         0.3000 
    201 H201        1.5040  -27.9179  -45.6297 H         1 UNK         0.0600 
    202 H202        2.6813  -26.0430  -44.5215 H         1 UNK         0.0600 
    203 H203        2.7857  -25.1724  -46.0509 H         1 UNK         0.0600 
    204 H204        3.6502  -26.6899  -45.8369 H         1 UNK         0.0600 
    205 H205        0.8787  -25.3450  -48.0638 H         1 UNK         0.3000 
    206 H206        2.1380  -27.0332  -50.1962 H         1 UNK         0.0600 
    207 H207        3.3633  -24.9399  -49.5830 H         1 UNK         0.0600 
    208 H208        2.7313  -24.8597  -51.2191 H         1 UNK         0.0600 
    209 H209        1.9186  -23.9907  -49.9240 H         1 UNK         0.0600 
    210 H210       -0.8299  -26.2729  -49.1094 H         1 UNK         0.3000 
    211 H211       -2.9002  -26.3976  -49.8695 H         1 UNK         0.0600 
    212 H212       -1.9623  -26.6191  -52.7714 H         1 UNK         0.0600 
    213 H213       -3.5533  -26.9796  -52.1321 H         1 UNK         0.0600 
    214 H214       -2.1897  -27.9937  -51.6879 H         1 UNK         0.0600 
    215 H215       -4.5420  -24.9596  -50.6452 H         1 UNK         0.3000 
    216 H216       -3.6847  -22.1947  -50.5588 H         1 UNK         0.0600 
    217 H217       -5.6972  -22.9906  -49.3329 H         1 UNK         0.0600 
    218 H218       -6.4739  -23.4226  -50.8516 H         1 UNK         0.0600 
    219 H219       -6.1178  -21.7381  -50.4901 H         1 UNK         0.0600 
    220 H220       -3.1717  -20.9754  -52.2812 H         1 UNK         0.3000 
    221 H221       -4.1073  -21.5177  -55.0142 H         1 UNK         0.0600 
    222 H222       -2.5057  -19.1982  -53.8000 H         1 UNK         0.0600 
    223 H223       -1.8317  -20.5872  -54.6444 H         1 UNK         0.0600 
    224 H224       -2.8363  -19.4325  -55.5091 H         1 UNK         0.0600 
    225 H225       -6.3701  -21.4561  -54.7276 H         1 UNK         0.3000 
    226 H226       -7.8289  -19.6098  -53.2300 H         1 UNK         0.0600 
    227 H227       -9.7859  -20.5302  -54.4867 H         1 UNK         0.0600 
    228 H228       -8.6988  -21.2658  -55.6590 H         1 UNK         0.0600 
    229 H229       -8.6933  -21.8079  -53.9799 H         1 UNK         0.0600 
    230 H230       -6.4593  -19.1092  -56.3834 H         1 UNK         0.3000 
    231 H231       -8.1105  -16.8847  -57.2107 H         1 UNK         0.0600 
    232 H232       -6.2783  -16.5430  -58.8714 H         1 UNK         0.0600 
    233 H233       -6.7816  -18.2249  -58.8284 H         1 UNK         0.0600 
    234 H234       -5.2813  -17.7317  -58.0416 H         1 UNK         0.0600 
    235 H235       -5.4159  -17.2510  -54.9847 H         1 UNK         0.3000 
    236 H236       -4.9499  -14.3133  -54.7988 H         1 UNK         0.0600 
    237 H237       -2.9047  -15.6203  -55.0294 H         1 UNK         0.0600 
    238 H238       -3.0019  -15.0469  -53.3708 H         1 UNK         0.0600 
    239 H239       -3.3871  -16.7232  -53.7490 H         1 UNK         0.0600 
    240 H240       -5.6080  -17.2155  -52.7538 H         1 UNK         0.3000 
    241 H241       -6.5472  -15.5707  -50.5104 H         1 UNK         0.0600 
    242 H242       -9.7716  -15.3824  -52.2157 H         1 UNK         0.3800 
    243 H243       -8.1821  -14.6500  -52.3091 H         1 UNK         0.3800 
    244 H244       -6.4465  -18.6005  -50.7699 H         1 UNK         0.0800 
    245 H245       -6.8944  -17.7221  -49.3338 H         1 UNK         0.0800 
    246 H246       -4.0290  -19.8569  -49.5273 H         1 UNK         0.0800 
    247 H247       -4.3840  -19.4099  -51.1812 H         1 UNK         0.0800 
@<TRIPOS>BOND
     1    1    2 1    
     2    1  127 1    
     3    1  128 1    
     4    1  129 1    
     5    2    3 2    
     6    2    4 am   BACKBONE|DICT|INTERRES
     7    4    5 1    
     8    4  130 1    
     9    5    6 1    
    10    5   65 1    
    11    5  131 1    
    12    6    7 1    
    13    6  132 1    
    14    6  133 1    
    15    7    8 1    
    16    8    9 1    
    17    8  134 1    
    18    8  135 1    
    19    9   10 ar   
    20    9   14 ar   
    21   10   11 ar   
    22   10  136 1    
    23   11   12 ar   
    24   11  126 1    
    25   12   13 ar   
    26   12  137 1    
    27   13   14 ar   
    28   13   15 1    
    29   14  138 1    
    30   15   16 1    
    31   15  139 1    
    32   15  140 1    
    33   16   17 1    
    34   17   18 1    
    35   17  141 1    
    36   17  142 1    
    37   18   19 1    
    38   18   67 1    
    39   18  143 1    
    40   19   20 am   BACKBONE|DICT|INTERRES
    41   19  144 1    
    42   20   21 2    
    43   20   22 1    
    44   22   23 1    
    45   22   24 1    
    46   22  145 1    
    47   23  146 1    
    48   23  147 1    
    49   23  148 1    
    50   24   25 am   BACKBONE|DICT|INTERRES
    51   24  149 1    
    52   25   26 2    
    53   25   27 1    
    54   27   28 1    
    55   27   29 1    
    56   27  150 1    
    57   28  151 1    
    58   28  152 1    
    59   28  153 1    
    60   29   30 am   BACKBONE|DICT|INTERRES
    61   29  154 1    
    62   30   31 2    
    63   30   32 1    
    64   32   33 1    
    65   32   34 1    
    66   32  155 1    
    67   33  156 1    
    68   33  157 1    
    69   33  158 1    
    70   34   35 am   BACKBONE|DICT|INTERRES
    71   34  159 1    
    72   35   36 2    
    73   35   37 1    
    74   37   38 1    
    75   37   39 1    
    76   37  160 1    
    77   38  161 1    
    78   38  162 1    
    79   38  163 1    
    80   39   40 am   BACKBONE|DICT|INTERRES
    81   39  164 1    
    82   40   41 2    
    83   40   42 1    
    84   42   43 1    
    85   42   44 1    
    86   42  165 1    
    87   43  166 1    
    88   43  167 1    
    89   43  168 1    
    90   44   45 am   BACKBONE|DICT|INTERRES
    91   44  169 1    
    92   45   46 2    
    93   45   47 1    
    94   47   48 1    
    95   47   49 1    
    96   47  170 1    
    97   48  171 1    
    98   48  172 1    
    99   48  173 1    
   100   49   50 am   BACKBONE|DICT|INTERRES
   101   49  174 1    
   102   50   51 2    
   103   50   52 1    
   104   52   53 1    
   105   52   54 1    
   106   52  175 1    
   107   53  176 1    
   108   53  177 1    
   109   53  178 1    
   110   54   55 am   BACKBONE|DICT|INTERRES
   111   54  179 1    
   112   55   56 2    
   113   55   57 1    
   114   57   58 1    
   115   57   59 1    
   116   57  180 1    
   117   58  181 1    
   118   58  182 1    
   119   58  183 1    
   120   59   60 am   BACKBONE|DICT|INTERRES
   121   59  184 1    
   122   60   61 2    
   123   60   62 1    
   124   62   63 1    
   125   62   64 1    
   126   62  185 1    
   127   63  186 1    
   128   63  187 1    
   129   63  188 1    
   130   64   65 am   BACKBONE|DICT|INTERRES
   131   64  189 1    
   132   65   66 2    
   133   67   68 2    
   134   67   69 am   BACKBONE|DICT|INTERRES
   135   69   70 1    
   136   69  190 1    
   137   70   71 1    
   138   70   72 1    
   139   70  191 1    
   140   71  192 1    
   141   71  193 1    
   142   71  194 1    
   143   72   73 2    
   144   72   74 am   BACKBONE|DICT|INTERRES
   145   74   75 1    
   146   74  195 1    
   147   75   76 1    
   148   75   77 1    
   149   75  196 1    
   150   76  197 1    
   151   76  198 1    
   152   76  199 1    
   153   77   78 2    
   154   77   79 am   BACKBONE|DICT|INTERRES
   155   79   80 1    
   156   79  200 1    
   157   80   81 1    
   158   80   82 1    
   159   80  201 1    
   160   81  202 1    
   161   81  203 1    
   162   81  204 1    
   163   82   83 2    
   164   82   84 am   BACKBONE|DICT|INTERRES
   165   84   85 1    
   166   84  205 1    
   167   85   86 1    
   168   85   87 1    
   169   85  206 1    
   170   86  207 1    
   171   86  208 1    
   172   86  209 1    
   173   87   88 2    
   174   87   89 am   BACKBONE|DICT|INTERRES
   175   89   90 1    
   176   89  210 1    
   177   90   91 1    
   178   90   92 1    
   179   90  211 1    
   180   91  212 1    
   181   91  213 1    
   182   91  214 1    
   183   92   93 2    
   184   92   94 am   BACKBONE|DICT|INTERRES
   185   94   95 1    
   186   94  215 1    
   187   95   96 1    
   188   95   97 1    
   189   95  216 1    
   190   96  217 1    
   191   96  218 1    
   192   96  219 1    
   193   97   98 2    
   194   97   99 am   BACKBONE|DICT|INTERRES
   195   99  100 1    
   196   99  220 1    
   197  100  101 1    
   198  100  102 1    
   199  100  221 1    
   200  101  222 1    
   201  101  223 1    
   202  101  224 1    
   203  102  103 2    
   204  102  104 am   BACKBONE|DICT|INTERRES
   205  104  105 1    
   206  104  225 1    
   207  105  106 1    
   208  105  107 1    
   209  105  226 1    
   210  106  227 1    
   211  106  228 1    
   212  106  229 1    
   213  107  108 2    
   214  107  109 am   BACKBONE|DICT|INTERRES
   215  109  110 1    
   216  109  230 1    
   217  110  111 1    
   218  110  112 1    
   219  110  231 1    
   220  111  232 1    
   221  111  233 1    
   222  111  234 1    
   223  112  113 2    
   224  112  114 am   BACKBONE|DICT|INTERRES
   225  114  115 1    
   226  114  235 1    
   227  115  116 1    
   228  115  117 1    
   229  115  236 1    
   230  116  237 1    
   231  116  238 1    
   232  116  239 1    
   233  117  118 2    
   234  117  119 am   BACKBONE|DICT|INTERRES
   235  119  120 1    
   236  119  240 1    
   237  120  121 1    
   238  120  124 1    
   239  120  241 1    
   240  121  122 am   BACKBONE|DICT|INTERRES
   241  121  123 2    
   242  122  242 1    
   243  122  243 1    
   244  124  125 1    
   245  124  244 1    
   246  124  245 1    
   247  125  126 1    
   248  126  246 1    
   249  126  247 1    
@<TRIPOS>SUBSTRUCTURE
     1 UNK         1 GROUP             0       ****    0 ROOT    
