@<TRIPOS>MOLECULE
3R540
247   249    1
SMALL
USER_CHARGES


@<TRIPOS>ATOM
      1 CA          1.1892  -12.7267  -53.3854 C.3       0 UNK        -0.1800 
      2 C           1.6098  -12.2461  -52.0030 C.2       0 UNK         0.5000 
      3 O           2.4741  -11.3761  -51.8945 O.2       0 UNK        -0.5000 
      4 N           0.9962  -12.8061  -50.9561 N.am      1 UNK        -0.5000 
      5 CA          1.1947  -12.4506  -49.5494 C.3       1 UNK         0.1400 
      6 C6          2.0648  -13.4806  -48.7787 C.3       23 UNK        -0.0398 
      7 S7          3.7627  -13.6466  -49.4248 S.3       23 UNK        -0.2404 
      8 C8          4.1109  -15.4087  -49.0818 C.3       23 UNK        -0.0205 
      9 C9          3.2423  -16.4233  -49.8293 C.ar      23 UNK        -0.0193 
     10 C10         2.5111  -16.0913  -50.9787 C.ar      23 UNK        -0.1150 
     11 C11         1.7100  -17.0403  -51.6177 C.ar      23 UNK        -0.0193 
     12 C12         1.6796  -18.3459  -51.1296 C.ar      23 UNK        -0.1150 
     13 C13         2.4202  -18.7039  -50.0019 C.ar      23 UNK        -0.0193 
     14 C14         3.1896  -17.7369  -49.3499 C.ar      23 UNK        -0.1150 
     15 C15         2.3920  -20.1414  -49.5121 C.3       23 UNK        -0.0205 
     16 S16         0.7965  -20.5411  -48.7410 S.3       23 UNK        -0.2404 
     17 C17         0.7670  -22.3558  -48.9310 C.3       23 UNK        -0.0398 
     18 CA          0.0929  -23.1242  -47.7704 C.3       11 UNK         0.1400 
     19 N           0.7256  -22.8930  -46.4706 N.am      11 UNK        -0.5000 
     20 C           0.5581  -23.6947  -45.4107 C.2       10 UNK         0.5000 
     21 O          -0.1740  -24.6843  -45.4347 O.2       10 UNK        -0.5000 
     22 CA          1.2614  -23.3330  -44.0902 C.3       10 UNK         0.1400 
     23 CB          2.0638  -24.5200  -43.5213 C.3       10 UNK        -0.1800 
     24 N           2.0673  -22.1099  -44.1295 N.am      10 UNK        -0.5000 
     25 C           3.2382  -21.8825  -44.7422 C.2       9 UNK         0.5000 
     26 O           3.8190  -22.7121  -45.4418 O.2       9 UNK        -0.5000 
     27 CA          3.8651  -20.4827  -44.5564 C.3       9 UNK         0.1400 
     28 CB          3.8589  -19.7130  -45.8868 C.3       9 UNK        -0.1800 
     29 N           3.1910  -19.6708  -43.5389 N.am      9 UNK        -0.5000 
     30 C           3.2635  -19.8636  -42.2143 C.2       8 UNK         0.5000 
     31 O           3.9982  -20.6972  -41.6840 O.2       8 UNK        -0.5000 
     32 CA          2.3087  -19.0238  -41.3422 C.3       8 UNK         0.1400 
     33 CB          2.9355  -17.6660  -40.9926 C.3       8 UNK        -0.1800 
     34 N           0.9996  -18.8195  -41.9724 N.am      8 UNK        -0.5000 
     35 C           0.1160  -19.7981  -42.2210 C.2       7 UNK         0.5000 
     36 O           0.2903  -20.9693  -41.8891 O.2       7 UNK        -0.5000 
     37 CA         -1.1456  -19.4292  -43.0199 C.3       7 UNK         0.1400 
     38 CB         -2.2304  -18.8479  -42.1027 C.3       7 UNK        -0.1800 
     39 N          -0.8526  -18.4954  -44.1067 N.am      7 UNK        -0.5000 
     40 C          -0.1908  -18.8211  -45.2259 C.2       6 UNK         0.5000 
     41 O           0.1348  -19.9762  -45.5031 O.2       6 UNK        -0.5000 
     42 CA          0.1851  -17.6703  -46.1827 C.3       6 UNK         0.1400 
     43 CB         -0.9204  -17.4298  -47.2164 C.3       6 UNK        -0.1800 
     44 N           0.4692  -16.4166  -45.4832 N.am      6 UNK        -0.5000 
     45 C           1.5157  -16.2284  -44.6691 C.2       5 UNK         0.5000 
     46 O           2.3808  -17.0783  -44.4674 O.2       5 UNK        -0.5000 
     47 CA          1.5736  -14.8946  -43.9059 C.3       5 UNK         0.1400 
     48 CB          2.1793  -13.7797  -44.7694 C.3       5 UNK        -0.1800 
     49 N           0.2548  -14.4834  -43.4261 N.am      5 UNK        -0.5000 
     50 C          -0.4016  -15.0804  -42.4224 C.2       4 UNK         0.5000 
     51 O           0.0543  -16.0231  -41.7763 O.2       4 UNK        -0.5000 
     52 CA         -1.8189  -14.5613  -42.1161 C.3       4 UNK         0.1400 
     53 CB         -1.7579  -13.3335  -41.1956 C.3       4 UNK        -0.1800 
     54 N          -2.5703  -14.2233  -43.3264 N.am      4 UNK        -0.5000 
     55 C          -2.9772  -15.1185  -44.2376 C.2       3 UNK         0.5000 
     56 O          -2.7894  -16.3290  -44.1354 O.2       3 UNK        -0.5000 
     57 CA         -3.6612  -14.5642  -45.5013 C.3       3 UNK         0.1400 
     58 CB         -5.1688  -14.3895  -45.2666 C.3       3 UNK        -0.1800 
     59 N          -3.0903  -13.2985  -45.9738 N.am      3 UNK        -0.5000 
     60 C          -1.8129  -13.1311  -46.3399 C.2       2 UNK         0.5000 
     61 O          -0.9593  -14.0185  -46.2617 O.2       2 UNK        -0.5000 
     62 CA         -1.4137  -11.7224  -46.8206 C.3       2 UNK         0.1400 
     63 CB         -1.1079  -10.8218  -45.6133 C.3       2 UNK        -0.1800 
     64 N          -0.2357  -11.7542  -47.6892 N.am      2 UNK        -0.5000 
     65 C          -0.1939  -12.3409  -48.8925 C.2       1 UNK         0.5000 
     66 O          -1.1871  -12.8049  -49.4623 O.2       1 UNK        -0.5000 
     67 C          -1.4306  -22.9057  -47.7052 C.2       11 UNK         0.5000 
     68 O          -2.1804  -23.7614  -48.1738 O.2       11 UNK        -0.5000 
     69 N          -1.8667  -21.8185  -47.0488 N.am      12 UNK        -0.5000 
     70 CA         -3.2868  -21.5279  -46.8285 C.3       12 UNK         0.1400 
     71 CB         -3.4696  -20.0731  -46.3743 C.3       12 UNK        -0.1800 
     72 C          -3.9470  -22.4904  -45.8268 C.2       12 UNK         0.5000 
     73 O          -5.1564  -22.6938  -45.9029 O.2       12 UNK        -0.5000 
     74 N          -3.1506  -23.0811  -44.9254 N.am      13 UNK        -0.5000 
     75 CA         -3.5981  -24.1230  -44.0032 C.3       13 UNK         0.1400 
     76 CB         -2.5913  -24.2650  -42.8506 C.3       13 UNK        -0.1800 
     77 C          -3.8103  -25.4626  -44.7320 C.2       13 UNK         0.5000 
     78 O          -4.8373  -26.1087  -44.5248 O.2       13 UNK        -0.5000 
     79 N          -2.8498  -25.8394  -45.5884 N.am      14 UNK        -0.5000 
     80 CA         -2.8744  -27.0653  -46.3859 C.3       14 UNK         0.1400 
     81 CB         -1.4845  -27.3040  -46.9961 C.3       14 UNK        -0.1800 
     82 C          -3.9547  -27.0498  -47.4820 C.2       14 UNK         0.5000 
     83 O          -4.6896  -28.0282  -47.6224 O.2       14 UNK        -0.5000 
     84 N          -4.0368  -25.9442  -48.2348 N.am      15 UNK        -0.5000 
     85 CA         -4.9984  -25.7618  -49.3256 C.3       15 UNK         0.1400 
     86 CB         -4.4630  -24.6899  -50.2858 C.3       15 UNK        -0.1800 
     87 C          -6.4090  -25.3807  -48.8378 C.2       15 UNK         0.5000 
     88 O          -7.3613  -25.4960  -49.6088 O.2       15 UNK        -0.5000 
     89 N          -6.5090  -24.9047  -47.5883 N.am      16 UNK        -0.5000 
     90 CA         -7.6911  -24.4006  -46.8748 C.3       16 UNK         0.1400 
     91 CB         -8.8271  -25.4426  -46.8454 C.3       16 UNK        -0.1800 
     92 C          -8.1950  -23.0199  -47.3505 C.2       16 UNK         0.5000 
     93 O          -8.9802  -22.3955  -46.6352 O.2       16 UNK        -0.5000 
     94 N          -7.7334  -22.5487  -48.5140 N.am      17 UNK        -0.5000 
     95 CA         -8.0430  -21.2605  -49.1228 C.3       17 UNK         0.1400 
     96 CB         -9.4950  -21.2479  -49.6414 C.3       17 UNK        -0.1800 
     97 C          -7.0583  -21.0131  -50.2761 C.2       17 UNK         0.5000 
     98 O          -6.4221  -21.9568  -50.7497 O.2       17 UNK        -0.5000 
     99 N          -6.9750  -19.7502  -50.7174 N.am      18 UNK        -0.5000 
    100 CA        -6.2563  -19.2597  -51.9046 C.3       18 UNK         0.1400 
    101 CB        -6.8354  -19.8877  -53.1905 C.3       18 UNK        -0.1800 
    102 C         -4.7164  -19.3717  -51.8548 C.2       18 UNK         0.5000 
    103 O         -4.0693  -19.1699  -52.8846 O.2       18 UNK        -0.5000 
    104 N         -4.1468  -19.6511  -50.6724 N.am      19 UNK        -0.5000 
    105 CA        -2.7114  -19.8030  -50.4097 C.3       19 UNK         0.1400 
    106 CB        -2.0055  -18.4327  -50.5219 C.3       19 UNK        -0.1800 
    107 C         -2.0947  -20.9144  -51.2874 C.2       19 UNK         0.5000 
    108 O         -2.4434  -22.0791  -51.1025 O.2       19 UNK        -0.5000 
    109 N         -1.2237  -20.5417  -52.2328 N.am      20 UNK        -0.5000 
    110 CA        -0.6533  -21.4301  -53.2496 C.3       20 UNK         0.1400 
    111 CB         0.8790  -21.4466  -53.1090 C.3       20 UNK        -0.1800 
    112 C         -1.0853  -21.0151  -54.6711 C.2       20 UNK         0.5000 
    113 O         -0.4625  -21.4569  -55.6376 O.2       20 UNK        -0.5000 
    114 N         -2.1298  -20.1763  -54.7798 N.am      21 UNK        -0.5000 
    115 CA        -2.6958  -19.6190  -56.0132 C.3       21 UNK         0.1400 
    116 CB        -3.3785  -20.7225  -56.8485 C.3       21 UNK        -0.1800 
    117 C         -1.6736  -18.7850  -56.8155 C.2       21 UNK         0.5000 
    118 O         -1.5227  -18.9789  -58.0238 O.2       21 UNK        -0.5000 
    119 N         -0.9778  -17.8804  -56.1124 N.am      22 UNK        -0.5000 
    120 CA        -0.0015  -16.9326  -56.6751 C.3       22 UNK         0.1400 
    121 C         -0.6217  -15.9791  -57.7371 C.2       22 UNK         0.5000 
    122 N          0.1013  -15.6752  -58.8064 N.am      22 UNK        -0.7600 
    123 O         -1.7321  -15.4769  -57.5756 O.2       22 UNK        -0.5000 
    124 C124        0.6918  -16.0956  -55.5697 C.3       23 UNK        -0.0398 
    125 S125        1.6567  -17.0983  -54.3864 S.3       23 UNK        -0.2404 
    126 C126        0.8601  -16.6477  -52.8157 C.3       23 UNK        -0.0205 
    127 H127        0.2253  -13.2351  -53.3589 H         1 UNK         0.0600 
    128 H128        1.1030  -11.8825  -54.0695 H         1 UNK         0.0600 
    129 H129        1.9326  -13.4167  -53.7852 H         1 UNK         0.0600 
    130 H130        0.2263  -13.4450  -51.1046 H         1 UNK         0.3000 
    131 H131        1.6624  -11.4664  -49.4782 H         1 UNK         0.0600 
    132 H132        1.5760  -14.4565  -48.7701 H         1 UNK         0.0800 
    133 H133        2.1640  -13.1857  -47.7352 H         1 UNK         0.0800 
    134 H134        4.0145  -15.5704  -48.0067 H         1 UNK         0.0800 
    135 H135        5.1544  -15.6050  -49.3308 H         1 UNK         0.0800 
    136 H136        2.5490  -15.0902  -51.3792 H         1 UNK         0.1150 
    137 H137        1.0711  -19.0868  -51.6214 H         1 UNK         0.1150 
    138 H138        3.7576  -18.0097  -48.4714 H         1 UNK         0.1150 
    139 H139        2.5729  -20.8021  -50.3604 H         1 UNK         0.0800 
    140 H140        3.1952  -20.3297  -48.7994 H         1 UNK         0.0800 
    141 H141        1.7923  -22.7139  -49.0334 H         1 UNK         0.0800 
    142 H142        0.2769  -22.5944  -49.8766 H         1 UNK         0.0800 
    143 H143        0.2313  -24.1840  -47.9979 H         1 UNK         0.0600 
    144 H144        1.2684  -22.0469  -46.3666 H         1 UNK         0.3000 
    145 H145        0.4562  -23.1270  -43.3851 H         1 UNK         0.0600 
    146 H146        2.5303  -24.2607  -42.5708 H         1 UNK         0.0600 
    147 H147        1.4152  -25.3778  -43.3395 H         1 UNK         0.0600 
    148 H148        2.8479  -24.8471  -44.2043 H         1 UNK         0.0600 
    149 H149        1.6754  -21.3422  -43.6000 H         1 UNK         0.3000 
    150 H150        4.9026  -20.6265  -44.2484 H         1 UNK         0.0600 
    151 H151        4.4245  -20.2481  -46.6501 H         1 UNK         0.0600 
    152 H152        4.3140  -18.7284  -45.7778 H         1 UNK         0.0600 
    153 H153        2.8458  -19.5740  -46.2646 H         1 UNK         0.0600 
    154 H154        2.6347  -18.8920  -43.8812 H         1 UNK         0.3000 
    155 H155        2.1471  -19.5695  -40.4103 H         1 UNK         0.0600 
    156 H156        3.1250  -17.0665  -41.8826 H         1 UNK         0.0600 
    157 H157        3.8881  -17.7979  -40.4782 H         1 UNK         0.0600 
    158 H158        2.2865  -17.0900  -40.3328 H         1 UNK         0.0600 
    159 H159        0.7562  -17.8652  -42.2166 H         1 UNK         0.3000 
    160 H160       -1.5384  -20.3500  -43.4567 H         1 UNK         0.0600 
    161 H161       -3.1526  -18.6636  -42.6540 H         1 UNK         0.0600 
    162 H162       -1.9170  -17.9071  -41.6506 H         1 UNK         0.0600 
    163 H163       -2.4686  -19.5388  -41.2931 H         1 UNK         0.0600 
    164 H164       -1.1905  -17.5455  -43.9959 H         1 UNK         0.3000 
    165 H165        1.0873  -17.9682  -46.7205 H         1 UNK         0.0600 
    166 H166       -0.6347  -16.6536  -47.9270 H         1 UNK         0.0600 
    167 H167       -1.1106  -18.3378  -47.7866 H         1 UNK         0.0600 
    168 H168       -1.8560  -17.1284  -46.7451 H         1 UNK         0.0600 
    169 H169       -0.1731  -15.6440  -45.6390 H         1 UNK         0.3000 
    170 H170        2.2252  -15.0381  -43.0414 H         1 UNK         0.0600 
    171 H171        3.1351  -14.0864  -45.1966 H         1 UNK         0.0600 
    172 H172        1.5196  -13.5095  -45.5915 H         1 UNK         0.0600 
    173 H173        2.3589  -12.8811  -44.1792 H         1 UNK         0.0600 
    174 H174       -0.2159  -13.7640  -43.9544 H         1 UNK         0.3000 
    175 H175       -2.3572  -15.3540  -41.5923 H         1 UNK         0.0600 
    176 H176       -2.7574  -13.0057  -40.9092 H         1 UNK         0.0600 
    177 H177       -1.2164  -13.5619  -40.2766 H         1 UNK         0.0600 
    178 H178       -1.2529  -12.4936  -41.6744 H         1 UNK         0.0600 
    179 H179       -2.7653  -13.2466  -43.4888 H         1 UNK         0.3000 
    180 H180       -3.5249  -15.3015  -46.2950 H         1 UNK         0.0600 
    181 H181       -5.3741  -13.6344  -44.5069 H         1 UNK         0.0600 
    182 H182       -5.6224  -15.3236  -44.9324 H         1 UNK         0.0600 
    183 H183       -5.6791  -14.0924  -46.1830 H         1 UNK         0.0600 
    184 H184       -3.7285  -12.5197  -46.0508 H         1 UNK         0.3000 
    185 H185       -2.2457  -11.2949  -47.3839 H         1 UNK         0.0600 
    186 H186       -0.2772  -11.2089  -45.0215 H         1 UNK         0.0600 
    187 H187       -0.8506   -9.8110  -45.9307 H         1 UNK         0.0600 
    188 H188       -1.9719  -10.7410  -44.9525 H         1 UNK         0.0600 
    189 H189        0.6193  -11.4015  -47.2856 H         1 UNK         0.3000 
    190 H190       -1.1851  -21.1792  -46.6525 H         1 UNK         0.3000 
    191 H191       -3.8083  -21.6503  -47.7805 H         1 UNK         0.0600 
    192 H192       -3.0840  -19.3738  -47.1133 H         1 UNK         0.0600 
    193 H193       -2.9702  -19.8801  -45.4262 H         1 UNK         0.0600 
    194 H194       -4.5260  -19.8393  -46.2358 H         1 UNK         0.0600 
    195 H195       -2.1632  -22.8794  -44.9506 H         1 UNK         0.3000 
    196 H196       -4.5550  -23.8172  -43.5743 H         1 UNK         0.0600 
    197 H197       -2.9504  -24.9818  -42.1112 H         1 UNK         0.0600 
    198 H198       -2.4416  -23.3153  -42.3363 H         1 UNK         0.0600 
    199 H199       -1.6194  -24.6163  -43.1959 H         1 UNK         0.0600 
    200 H200       -2.0085  -25.2752  -45.6645 H         1 UNK         0.3000 
    201 H201       -3.0945  -27.8981  -45.7146 H         1 UNK         0.0600 
    202 H202       -0.7273  -27.4111  -46.2191 H         1 UNK         0.0600 
    203 H203       -1.1819  -26.4804  -47.6440 H         1 UNK         0.0600 
    204 H204       -1.4696  -28.2166  -47.5932 H         1 UNK         0.0600 
    205 H205       -3.3704  -25.1880  -48.0883 H         1 UNK         0.3000 
    206 H206       -5.0833  -26.6987  -49.8801 H         1 UNK         0.0600 
    207 H207       -3.4748  -24.9518  -50.6643 H         1 UNK         0.0600 
    208 H208       -5.1204  -24.5688  -51.1476 H         1 UNK         0.0600 
    209 H209       -4.3847  -23.7171  -49.7984 H         1 UNK         0.0600 
    210 H210       -5.6473  -24.8184  -47.0672 H         1 UNK         0.3000 
    211 H211       -7.3629  -24.2592  -45.8441 H         1 UNK         0.0600 
    212 H212       -9.2753  -25.5881  -47.8283 H         1 UNK         0.0600 
    213 H213       -9.6246  -25.1262  -46.1723 H         1 UNK         0.0600 
    214 H214       -8.4677  -26.4088  -46.4909 H         1 UNK         0.0600 
    215 H215       -7.0943  -23.1150  -49.0584 H         1 UNK         0.3000 
    216 H216       -7.9082  -20.4763  -48.3753 H         1 UNK         0.0600 
    217 H217       -9.7315  -20.3034  -50.1326 H         1 UNK         0.0600 
    218 H218      -10.2129  -21.3729  -48.8311 H         1 UNK         0.0600 
    219 H219       -9.6665  -22.0458  -50.3651 H         1 UNK         0.0600 
    220 H220       -7.5223  -19.0481  -50.2383 H         1 UNK         0.3000 
    221 H221       -6.4638  -18.1897  -51.9495 H         1 UNK         0.0600 
    222 H222       -6.6052  -20.9513  -53.2605 H         1 UNK         0.0600 
    223 H223       -7.9187  -19.7748  -53.2321 H         1 UNK         0.0600 
    224 H224       -6.4277  -19.4087  -54.0815 H         1 UNK         0.0600 
    225 H225       -4.7631  -19.8374  -49.8960 H         1 UNK         0.3000 
    226 H226       -2.6095  -20.1408  -49.3790 H         1 UNK         0.0600 
    227 H227       -2.4584  -17.7090  -49.8443 H         1 UNK         0.0600 
    228 H228       -0.9547  -18.5088  -50.2464 H         1 UNK         0.0600 
    229 H229       -2.0613  -18.0123  -51.5258 H         1 UNK         0.0600 
    230 H230       -1.0184  -19.5591  -52.3317 H         1 UNK         0.3000 
    231 H231       -1.0114  -22.4515  -53.1072 H         1 UNK         0.0600 
    232 H232        1.1793  -21.6766  -52.0878 H         1 UNK         0.0600 
    233 H233        1.3218  -20.4907  -53.3905 H         1 UNK         0.0600 
    234 H234        1.3209  -22.2086  -53.7520 H         1 UNK         0.0600 
    235 H235       -2.6181  -19.8959  -53.9331 H         1 UNK         0.3000 
    236 H236       -3.4749  -18.9218  -55.7013 H         1 UNK         0.0600 
    237 H237       -3.8996  -20.2958  -57.7062 H         1 UNK         0.0600 
    238 H238       -2.6599  -21.4479  -57.2307 H         1 UNK         0.0600 
    239 H239       -4.1178  -21.2620  -56.2565 H         1 UNK         0.0600 
    240 H240       -1.1633  -17.7934  -55.1257 H         1 UNK         0.3000 
    241 H241        0.7634  -17.5318  -57.1731 H         1 UNK         0.0600 
    242 H242       -0.2829  -15.0459  -59.4946 H         1 UNK         0.3800 
    243 H243        1.0175  -16.0694  -58.9568 H         1 UNK         0.3800 
    244 H244       -0.0469  -15.4942  -55.0371 H         1 UNK         0.0800 
    245 H245        1.3876  -15.3829  -56.0166 H         1 UNK         0.0800 
    246 H246       -0.1167  -17.1276  -52.7553 H         1 UNK         0.0800 
    247 H247        0.6751  -15.5740  -52.7917 H         1 UNK         0.0800 
@<TRIPOS>BOND
     1    1    2 1    
     2    1  127 1    
     3    1  128 1    
     4    1  129 1    
     5    2    3 2    
     6    2    4 am   BACKBONE|DICT|INTERRES
     7    4    5 1    
     8    4  130 1    
     9    5    6 1    
    10    5   65 1    
    11    5  131 1    
    12    6    7 1    
    13    6  132 1    
    14    6  133 1    
    15    7    8 1    
    16    8    9 1    
    17    8  134 1    
    18    8  135 1    
    19    9   10 ar   
    20    9   14 ar   
    21   10   11 ar   
    22   10  136 1    
    23   11   12 ar   
    24   11  126 1    
    25   12   13 ar   
    26   12  137 1    
    27   13   14 ar   
    28   13   15 1    
    29   14  138 1    
    30   15   16 1    
    31   15  139 1    
    32   15  140 1    
    33   16   17 1    
    34   17   18 1    
    35   17  141 1    
    36   17  142 1    
    37   18   19 1    
    38   18   67 1    
    39   18  143 1    
    40   19   20 am   BACKBONE|DICT|INTERRES
    41   19  144 1    
    42   20   21 2    
    43   20   22 1    
    44   22   23 1    
    45   22   24 1    
    46   22  145 1    
    47   23  146 1    
    48   23  147 1    
    49   23  148 1    
    50   24   25 am   BACKBONE|DICT|INTERRES
    51   24  149 1    
    52   25   26 2    
    53   25   27 1    
    54   27   28 1    
    55   27   29 1    
    56   27  150 1    
    57   28  151 1    
    58   28  152 1    
    59   28  153 1    
    60   29   30 am   BACKBONE|DICT|INTERRES
    61   29  154 1    
    62   30   31 2    
    63   30   32 1    
    64   32   33 1    
    65   32   34 1    
    66   32  155 1    
    67   33  156 1    
    68   33  157 1    
    69   33  158 1    
    70   34   35 am   BACKBONE|DICT|INTERRES
    71   34  159 1    
    72   35   36 2    
    73   35   37 1    
    74   37   38 1    
    75   37   39 1    
    76   37  160 1    
    77   38  161 1    
    78   38  162 1    
    79   38  163 1    
    80   39   40 am   BACKBONE|DICT|INTERRES
    81   39  164 1    
    82   40   41 2    
    83   40   42 1    
    84   42   43 1    
    85   42   44 1    
    86   42  165 1    
    87   43  166 1    
    88   43  167 1    
    89   43  168 1    
    90   44   45 am   BACKBONE|DICT|INTERRES
    91   44  169 1    
    92   45   46 2    
    93   45   47 1    
    94   47   48 1    
    95   47   49 1    
    96   47  170 1    
    97   48  171 1    
    98   48  172 1    
    99   48  173 1    
   100   49   50 am   BACKBONE|DICT|INTERRES
   101   49  174 1    
   102   50   51 2    
   103   50   52 1    
   104   52   53 1    
   105   52   54 1    
   106   52  175 1    
   107   53  176 1    
   108   53  177 1    
   109   53  178 1    
   110   54   55 am   BACKBONE|DICT|INTERRES
   111   54  179 1    
   112   55   56 2    
   113   55   57 1    
   114   57   58 1    
   115   57   59 1    
   116   57  180 1    
   117   58  181 1    
   118   58  182 1    
   119   58  183 1    
   120   59   60 am   BACKBONE|DICT|INTERRES
   121   59  184 1    
   122   60   61 2    
   123   60   62 1    
   124   62   63 1    
   125   62   64 1    
   126   62  185 1    
   127   63  186 1    
   128   63  187 1    
   129   63  188 1    
   130   64   65 am   BACKBONE|DICT|INTERRES
   131   64  189 1    
   132   65   66 2    
   133   67   68 2    
   134   67   69 am   BACKBONE|DICT|INTERRES
   135   69   70 1    
   136   69  190 1    
   137   70   71 1    
   138   70   72 1    
   139   70  191 1    
   140   71  192 1    
   141   71  193 1    
   142   71  194 1    
   143   72   73 2    
   144   72   74 am   BACKBONE|DICT|INTERRES
   145   74   75 1    
   146   74  195 1    
   147   75   76 1    
   148   75   77 1    
   149   75  196 1    
   150   76  197 1    
   151   76  198 1    
   152   76  199 1    
   153   77   78 2    
   154   77   79 am   BACKBONE|DICT|INTERRES
   155   79   80 1    
   156   79  200 1    
   157   80   81 1    
   158   80   82 1    
   159   80  201 1    
   160   81  202 1    
   161   81  203 1    
   162   81  204 1    
   163   82   83 2    
   164   82   84 am   BACKBONE|DICT|INTERRES
   165   84   85 1    
   166   84  205 1    
   167   85   86 1    
   168   85   87 1    
   169   85  206 1    
   170   86  207 1    
   171   86  208 1    
   172   86  209 1    
   173   87   88 2    
   174   87   89 am   BACKBONE|DICT|INTERRES
   175   89   90 1    
   176   89  210 1    
   177   90   91 1    
   178   90   92 1    
   179   90  211 1    
   180   91  212 1    
   181   91  213 1    
   182   91  214 1    
   183   92   93 2    
   184   92   94 am   BACKBONE|DICT|INTERRES
   185   94   95 1    
   186   94  215 1    
   187   95   96 1    
   188   95   97 1    
   189   95  216 1    
   190   96  217 1    
   191   96  218 1    
   192   96  219 1    
   193   97   98 2    
   194   97   99 am   BACKBONE|DICT|INTERRES
   195   99  100 1    
   196   99  220 1    
   197  100  101 1    
   198  100  102 1    
   199  100  221 1    
   200  101  222 1    
   201  101  223 1    
   202  101  224 1    
   203  102  103 2    
   204  102  104 am   BACKBONE|DICT|INTERRES
   205  104  105 1    
   206  104  225 1    
   207  105  106 1    
   208  105  107 1    
   209  105  226 1    
   210  106  227 1    
   211  106  228 1    
   212  106  229 1    
   213  107  108 2    
   214  107  109 am   BACKBONE|DICT|INTERRES
   215  109  110 1    
   216  109  230 1    
   217  110  111 1    
   218  110  112 1    
   219  110  231 1    
   220  111  232 1    
   221  111  233 1    
   222  111  234 1    
   223  112  113 2    
   224  112  114 am   BACKBONE|DICT|INTERRES
   225  114  115 1    
   226  114  235 1    
   227  115  116 1    
   228  115  117 1    
   229  115  236 1    
   230  116  237 1    
   231  116  238 1    
   232  116  239 1    
   233  117  118 2    
   234  117  119 am   BACKBONE|DICT|INTERRES
   235  119  120 1    
   236  119  240 1    
   237  120  121 1    
   238  120  124 1    
   239  120  241 1    
   240  121  122 am   BACKBONE|DICT|INTERRES
   241  121  123 2    
   242  122  242 1    
   243  122  243 1    
   244  124  125 1    
   245  124  244 1    
   246  124  245 1    
   247  125  126 1    
   248  126  246 1    
   249  126  247 1    
@<TRIPOS>SUBSTRUCTURE
     1 UNK         1 GROUP             0       ****    0 ROOT    
