@<TRIPOS>MOLECULE
3R540
247   249    1
SMALL
USER_CHARGES


@<TRIPOS>ATOM
      1 CA          1.1903  -10.7385  -52.5980 C.3       0 UNK        -0.1800 
      2 C           1.1648  -12.0046  -51.7550 C.2       0 UNK         0.5000 
      3 O           0.3226  -12.8742  -51.9828 O.2       0 UNK        -0.5000 
      4 N           2.0706  -12.1054  -50.7706 N.am      1 UNK        -0.5000 
      5 CA          2.2686  -13.2266  -49.8372 C.3       1 UNK         0.1400 
      6 C6          2.5308  -14.5730  -50.5646 C.3       23 UNK        -0.0398 
      7 S7          3.1579  -15.8958  -49.4734 S.3       23 UNK        -0.2404 
      8 C8          1.6339  -16.8459  -49.1674 C.3       23 UNK        -0.0205 
      9 C9          1.4816  -18.0248  -50.1181 C.ar      23 UNK        -0.0193 
     10 C10         1.1331  -17.8281  -51.4564 C.ar      23 UNK        -0.1150 
     11 C11         0.9813  -18.9161  -52.3177 C.ar      23 UNK        -0.0193 
     12 C12         1.1308  -20.2136  -51.8208 C.ar      23 UNK        -0.1150 
     13 C13         1.4581  -20.4338  -50.4783 C.ar      23 UNK        -0.0193 
     14 C14         1.6533  -19.3263  -49.6419 C.ar      23 UNK        -0.1150 
     15 C15         1.5431  -21.8752  -49.9707 C.3       23 UNK        -0.0205 
     16 S16         2.7141  -22.1643  -48.5976 S.3       23 UNK        -0.2404 
     17 C17         1.7272  -21.6720  -47.1417 C.3       23 UNK        -0.0398 
     18 CA          1.1508  -22.8685  -46.3524 C.3       11 UNK         0.1400 
     19 N           0.8029  -22.4889  -44.9835 N.am      11 UNK        -0.5000 
     20 C           0.4073  -23.3346  -44.0228 C.2       10 UNK         0.5000 
     21 O           0.3569  -24.5574  -44.1618 O.2       10 UNK        -0.5000 
     22 CA         -0.0607  -22.6947  -42.7024 C.3       10 UNK         0.1400 
     23 CB          1.1365  -22.3164  -41.8178 C.3       10 UNK        -0.1800 
     24 N          -0.9028  -21.5159  -42.9218 N.am      10 UNK        -0.5000 
     25 C          -2.1018  -21.5501  -43.5220 C.2       9 UNK         0.5000 
     26 O          -2.6412  -22.5863  -43.9121 O.2       9 UNK        -0.5000 
     27 CA         -2.7994  -20.1992  -43.7629 C.3       9 UNK         0.1400 
     28 CB         -3.4883  -19.7099  -42.4805 C.3       9 UNK        -0.1800 
     29 N          -1.8900  -19.1665  -44.2641 N.am      9 UNK        -0.5000 
     30 C          -1.2475  -19.2276  -45.4394 C.2       8 UNK         0.5000 
     31 O          -1.3769  -20.1523  -46.2376 O.2       8 UNK        -0.5000 
     32 CA         -0.2414  -18.1089  -45.7578 C.3       8 UNK         0.1400 
     33 CB         -0.9458  -16.8363  -46.2499 C.3       8 UNK        -0.1800 
     34 N           0.6116  -17.7830  -44.6190 N.am      8 UNK        -0.5000 
     35 C           1.4518  -18.6354  -44.0176 C.2       7 UNK         0.5000 
     36 O           1.6284  -19.7976  -44.3803 O.2       7 UNK        -0.5000 
     37 CA          2.1771  -18.1118  -42.7689 C.3       7 UNK         0.1400 
     38 CB          3.3889  -17.2514  -43.1577 C.3       7 UNK        -0.1800 
     39 N           1.2781  -17.3410  -41.9111 N.am      7 UNK        -0.5000 
     40 C           0.2749  -17.8724  -41.1990 C.2       6 UNK         0.5000 
     41 O           0.0231  -19.0778  -41.1617 O.2       6 UNK        -0.5000 
     42 CA         -0.6173  -16.8801  -40.4304 C.3       6 UNK         0.1400 
     43 CB          0.0514  -16.4508  -39.1159 C.3       6 UNK        -0.1800 
     44 N          -0.9512  -15.6915  -41.2193 N.am      6 UNK        -0.5000 
     45 C          -1.7282  -15.7130  -42.3108 C.2       5 UNK         0.5000 
     46 O          -2.2406  -16.7358  -42.7621 O.2       5 UNK        -0.5000 
     47 CA         -1.9503  -14.3783  -43.0437 C.3       5 UNK         0.1400 
     48 CB         -3.0865  -13.5828  -42.3845 C.3       5 UNK        -0.1800 
     49 N          -0.7675  -13.5217  -43.1582 N.am      5 UNK        -0.5000 
     50 C           0.4201  -13.8763  -43.6666 C.2       4 UNK         0.5000 
     51 O           0.7315  -15.0354  -43.9410 O.2       4 UNK        -0.5000 
     52 CA          1.3872  -12.7192  -43.9760 C.3       4 UNK         0.1400 
     53 CB          2.7940  -13.2086  -44.3641 C.3       4 UNK        -0.1800 
     54 N           0.8362  -11.9263  -45.0744 N.am      4 UNK        -0.5000 
     55 C          -0.0564  -10.9350  -44.9320 C.2       3 UNK         0.5000 
     56 O          -0.4170  -10.5026  -43.8363 O.2       3 UNK        -0.5000 
     57 CA         -0.6932  -10.3629  -46.2157 C.3       3 UNK         0.1400 
     58 CB          0.1006   -9.1464  -46.7150 C.3       3 UNK        -0.1800 
     59 N          -0.7925  -11.3437  -47.2977 N.am      3 UNK        -0.5000 
     60 C          -1.5220  -12.4684  -47.2624 C.2       2 UNK         0.5000 
     61 O          -2.2991  -12.7484  -46.3495 O.2       2 UNK        -0.5000 
     62 CA         -1.3367  -13.4644  -48.4263 C.3       2 UNK         0.1400 
     63 CB         -2.5420  -13.4225  -49.3760 C.3       2 UNK        -0.1800 
     64 N          -0.1165  -13.2817  -49.2186 N.am      2 UNK        -0.5000 
     65 C           1.1469  -13.3383  -48.7780 C.2       1 UNK         0.5000 
     66 O           1.4434  -13.4479  -47.5882 O.2       1 UNK        -0.5000 
     67 C          -0.0518  -23.4937  -47.0855 C.2       11 UNK         0.5000 
     68 O           0.0930  -24.5612  -47.6768 O.2       11 UNK        -0.5000 
     69 N          -1.2198  -22.8400  -47.0092 N.am      12 UNK        -0.5000 
     70 CA         -2.4677  -23.2807  -47.6315 C.3       12 UNK         0.1400 
     71 CB         -3.5561  -22.2163  -47.4256 C.3       12 UNK        -0.1800 
     72 C          -2.9509  -24.6474  -47.1220 C.2       12 UNK         0.5000 
     73 O          -3.3985  -25.4687  -47.9223 O.2       12 UNK        -0.5000 
     74 N          -2.8128  -24.8817  -45.8098 N.am      13 UNK        -0.5000 
     75 CA         -3.1145  -26.1565  -45.1597 C.3       13 UNK         0.1400 
     76 CB         -3.0264  -25.9845  -43.6359 C.3       13 UNK        -0.1800 
     77 C          -2.2028  -27.3047  -45.6341 C.2       13 UNK         0.5000 
     78 O          -2.6796  -28.4297  -45.7876 O.2       13 UNK        -0.5000 
     79 N          -0.9200  -27.0007  -45.8746 N.am      14 UNK        -0.5000 
     80 CA          0.0645  -27.9436  -46.4047 C.3       14 UNK         0.1400 
     81 CB          1.4799  -27.4246  -46.1062 C.3       14 UNK        -0.1800 
     82 C          -0.1230  -28.1994  -47.9122 C.2       14 UNK         0.5000 
     83 O          -0.0532  -29.3495  -48.3473 O.2       14 UNK        -0.5000 
     84 N          -0.3549  -27.1257  -48.6791 N.am      15 UNK        -0.5000 
     85 CA         -0.5320  -27.1485  -50.1322 C.3       15 UNK         0.1400 
     86 CB         -0.3944  -25.7159  -50.6743 C.3       15 UNK        -0.1800 
     87 C          -1.8738  -27.7534  -50.5833 C.2       15 UNK         0.5000 
     88 O          -1.9491  -28.2792  -51.6944 O.2       15 UNK        -0.5000 
     89 N          -2.9015  -27.6448  -49.7284 N.am      16 UNK        -0.5000 
     90 CA         -4.3036  -28.0003  -49.9702 C.3       16 UNK         0.1400 
     91 CB         -4.4683  -29.5172  -50.2006 C.3       16 UNK        -0.1800 
     92 C          -4.9406  -27.1337  -51.0788 C.2       16 UNK         0.5000 
     93 O          -5.7294  -27.6300  -51.8856 O.2       16 UNK        -0.5000 
     94 N          -4.5808  -25.8458  -51.0928 N.am      17 UNK        -0.5000 
     95 CA         -5.0549  -24.8257  -52.0207 C.3       17 UNK         0.1400 
     96 CB         -4.2110  -24.8546  -53.3062 C.3       17 UNK        -0.1800 
     97 C          -4.9462  -23.4672  -51.3183 C.2       17 UNK         0.5000 
     98 O          -4.0432  -23.2836  -50.5013 O.2       17 UNK        -0.5000 
     99 N          -5.8646  -22.5457  -51.6288 N.am      18 UNK        -0.5000 
    100 CA        -5.9502  -21.2278  -51.0014 C.3       18 UNK         0.1400 
    101 CB        -7.2980  -20.5811  -51.3625 C.3       18 UNK        -0.1800 
    102 C         -4.7816  -20.3108  -51.4053 C.2       18 UNK         0.5000 
    103 O         -4.6896  -19.9197  -52.5694 O.2       18 UNK        -0.5000 
    104 N         -3.9478  -19.9356  -50.4262 N.am      19 UNK        -0.5000 
    105 CA        -2.8489  -18.9755  -50.5831 C.3       19 UNK         0.1400 
    106 CB        -2.0036  -18.9712  -49.3030 C.3       19 UNK        -0.1800 
    107 C         -3.3354  -17.5496  -50.9141 C.2       19 UNK         0.5000 
    108 O         -2.6239  -16.7906  -51.5717 O.2       19 UNK        -0.5000 
    109 N         -4.5673  -17.2235  -50.4976 N.am      20 UNK        -0.5000 
    110 CA        -5.2625  -15.9699  -50.7980 C.3       20 UNK         0.1400 
    111 CB        -6.5753  -15.9316  -50.0013 C.3       20 UNK        -0.1800 
    112 C         -5.5358  -15.7454  -52.3000 C.2       20 UNK         0.5000 
    113 O         -5.7361  -14.6016  -52.7091 O.2       20 UNK        -0.5000 
    114 N         -5.5321  -16.8258  -53.0937 N.am      21 UNK        -0.5000 
    115 CA        -5.7110  -16.7889  -54.5440 C.3       21 UNK         0.1400 
    116 CB        -6.3150  -18.1271  -55.0004 C.3       21 UNK        -0.1800 
    117 C         -4.4064  -16.4922  -55.3123 C.2       21 UNK         0.5000 
    118 O         -4.4746  -16.2904  -56.5261 O.2       21 UNK        -0.5000 
    119 N         -3.2532  -16.4854  -54.6287 N.am      22 UNK        -0.5000 
    120 CA        -1.9237  -16.3320  -55.2435 C.3       22 UNK         0.1400 
    121 C         -0.9591  -15.3694  -54.4934 C.2       22 UNK         0.5000 
    122 N         -1.1711  -15.0465  -53.2243 N.am      22 UNK        -0.7600 
    123 O         -0.0121  -14.8714  -55.0962 O.2       22 UNK        -0.5000 
    124 C124       -1.2756  -17.7042  -55.5680 C.3       23 UNK        -0.0398 
    125 S125       -1.1131  -18.7984  -54.1127 S.3       23 UNK        -0.2404 
    126 C126        0.6693  -18.6796  -53.7857 C.3       23 UNK        -0.0205 
    127 H127        1.3476  -10.9915  -53.6465 H         1 UNK         0.0600 
    128 H128        1.9851  -10.0596  -52.2881 H         1 UNK         0.0600 
    129 H129        0.2395  -10.2127  -52.5121 H         1 UNK         0.0600 
    130 H130        2.7083  -11.3333  -50.6329 H         1 UNK         0.3000 
    131 H131        3.1784  -12.9751  -49.2892 H         1 UNK         0.0600 
    132 H132        3.2782  -14.4234  -51.3447 H         1 UNK         0.0800 
    133 H133        1.6338  -14.9097  -51.0804 H         1 UNK         0.0800 
    134 H134        1.6637  -17.1935  -48.1345 H         1 UNK         0.0800 
    135 H135        0.7532  -16.2068  -49.2379 H         1 UNK         0.0800 
    136 H136        0.9816  -16.8309  -51.8395 H         1 UNK         0.1150 
    137 H137        0.9840  -21.0543  -52.4844 H         1 UNK         0.1150 
    138 H138        1.9261  -19.4581  -48.6082 H         1 UNK         0.1150 
    139 H139        0.5449  -22.2050  -49.6809 H         1 UNK         0.0800 
    140 H140        1.8475  -22.5266  -50.7915 H         1 UNK         0.0800 
    141 H141        0.9311  -20.9818  -47.4223 H         1 UNK         0.0800 
    142 H142        2.4035  -21.1027  -46.5037 H         1 UNK         0.0800 
    143 H143        1.9258  -23.6343  -46.2755 H         1 UNK         0.0600 
    144 H144        0.8619  -21.4983  -44.7621 H         1 UNK         0.3000 
    145 H145       -0.6571  -23.4370  -42.1678 H         1 UNK         0.0600 
    146 H146        0.8063  -21.9278  -40.8543 H         1 UNK         0.0600 
    147 H147        1.7660  -23.1850  -41.6209 H         1 UNK         0.0600 
    148 H148        1.7620  -21.5562  -42.2863 H         1 UNK         0.0600 
    149 H149       -0.5364  -20.6255  -42.6055 H         1 UNK         0.3000 
    150 H150       -3.5701  -20.3567  -44.5199 H         1 UNK         0.0600 
    151 H151       -4.1630  -20.4693  -42.0833 H         1 UNK         0.0600 
    152 H152       -4.0825  -18.8160  -42.6705 H         1 UNK         0.0600 
    153 H153       -2.7645  -19.4706  -41.7006 H         1 UNK         0.0600 
    154 H154       -1.7721  -18.3445  -43.6777 H         1 UNK         0.3000 
    155 H155        0.4052  -18.4711  -46.5587 H         1 UNK         0.0600 
    156 H156       -0.2212  -16.0606  -46.4995 H         1 UNK         0.0600 
    157 H157       -1.5369  -17.0305  -47.1439 H         1 UNK         0.0600 
    158 H158       -1.6188  -16.4320  -45.4946 H         1 UNK         0.0600 
    159 H159        0.5632  -16.8266  -44.2728 H         1 UNK         0.3000 
    160 H160        2.5381  -18.9733  -42.2030 H         1 UNK         0.0600 
    161 H161        3.0955  -16.3729  -43.7331 H         1 UNK         0.0600 
    162 H162        4.0901  -17.8220  -43.7679 H         1 UNK         0.0600 
    163 H163        3.9295  -16.9093  -42.2752 H         1 UNK         0.0600 
    164 H164        1.3662  -16.3358  -41.9495 H         1 UNK         0.3000 
    165 H165       -1.5483  -17.3956  -40.1843 H         1 UNK         0.0600 
    166 H166       -0.6102  -15.8157  -38.5265 H         1 UNK         0.0600 
    167 H167        0.2983  -17.3185  -38.5027 H         1 UNK         0.0600 
    168 H168        0.9760  -15.9000  -39.2930 H         1 UNK         0.0600 
    169 H169       -0.5589  -14.8108  -40.9206 H         1 UNK         0.3000 
    170 H170       -2.2618  -14.6186  -44.0618 H         1 UNK         0.0600 
    171 H171       -3.9914  -14.1866  -42.3027 H         1 UNK         0.0600 
    172 H172       -2.8178  -13.2538  -41.3800 H         1 UNK         0.0600 
    173 H173       -3.3396  -12.6995  -42.9716 H         1 UNK         0.0600 
    174 H174       -0.9214  -12.5339  -42.9994 H         1 UNK         0.3000 
    175 H175        1.4815  -12.1043  -43.0786 H         1 UNK         0.0600 
    176 H176        3.2435  -13.7825  -43.5530 H         1 UNK         0.0600 
    177 H177        2.7728  -13.8493  -45.2466 H         1 UNK         0.0600 
    178 H178        3.4575  -12.3704  -44.5765 H         1 UNK         0.0600 
    179 H179        1.0291  -12.2808  -46.0065 H         1 UNK         0.3000 
    180 H180       -1.7045  -10.0359  -45.9655 H         1 UNK         0.0600 
    181 H181        1.1166   -9.4194  -47.0032 H         1 UNK         0.0600 
    182 H182        0.1731   -8.3827  -45.9395 H         1 UNK         0.0600 
    183 H183       -0.3821   -8.6867  -47.5777 H         1 UNK         0.0600 
    184 H184       -0.1876  -11.2030  -48.0928 H         1 UNK         0.3000 
    185 H185       -1.2886  -14.4611  -47.9862 H         1 UNK         0.0600 
    186 H186       -3.4722  -13.6098  -48.8381 H         1 UNK         0.0600 
    187 H187       -2.6328  -12.4525  -49.8663 H         1 UNK         0.0600 
    188 H188       -2.4539  -14.1828  -50.1526 H         1 UNK         0.0600 
    189 H189       -0.2418  -13.1622  -50.2206 H         1 UNK         0.3000 
    190 H190       -1.2520  -21.9376  -46.5385 H         1 UNK         0.3000 
    191 H191       -2.2694  -23.3760  -48.6993 H         1 UNK         0.0600 
    192 H192       -3.7592  -22.0474  -46.3683 H         1 UNK         0.0600 
    193 H193       -4.4929  -22.5186  -47.8950 H         1 UNK         0.0600 
    194 H194       -3.2624  -21.2650  -47.8653 H         1 UNK         0.0600 
    195 H195       -2.4856  -24.1286  -45.2122 H         1 UNK         0.3000 
    196 H196       -4.1424  -26.4242  -45.4130 H         1 UNK         0.0600 
    197 H197       -3.2679  -26.9158  -43.1221 H         1 UNK         0.0600 
    198 H198       -3.7273  -25.2271  -43.2841 H         1 UNK         0.0600 
    199 H199       -2.0263  -25.6845  -43.3217 H         1 UNK         0.0600 
    200 H200       -0.6044  -26.0524  -45.7131 H         1 UNK         0.3000 
    201 H201       -0.0567  -28.8974  -45.8867 H         1 UNK         0.0600 
    202 H202        1.6341  -27.2980  -45.0344 H         1 UNK         0.0600 
    203 H203        1.6700  -26.4635  -46.5847 H         1 UNK         0.0600 
    204 H204        2.2356  -28.1247  -46.4643 H         1 UNK         0.0600 
    205 H205       -0.3326  -26.2045  -48.2438 H         1 UNK         0.3000 
    206 H206        0.2670  -27.7554  -50.5630 H         1 UNK         0.0600 
    207 H207        0.5775  -25.2900  -50.4241 H         1 UNK         0.0600 
    208 H208       -0.4888  -25.6963  -51.7607 H         1 UNK         0.0600 
    209 H209       -1.1627  -25.0574  -50.2666 H         1 UNK         0.0600 
    210 H210       -2.7427  -27.1216  -48.8733 H         1 UNK         0.3000 
    211 H211       -4.8367  -27.7516  -49.0515 H         1 UNK         0.0600 
    212 H212       -4.0275  -29.8375  -51.1448 H         1 UNK         0.0600 
    213 H213       -5.5227  -29.7945  -50.2240 H         1 UNK         0.0600 
    214 H214       -4.0004  -30.0897  -49.3997 H         1 UNK         0.0600 
    215 H215       -3.9749  -25.4926  -50.3601 H         1 UNK         0.3000 
    216 H216       -6.1030  -25.0129  -52.2635 H         1 UNK         0.0600 
    217 H217       -3.1547  -24.6825  -53.0947 H         1 UNK         0.0600 
    218 H218       -4.5374  -24.0847  -54.0063 H         1 UNK         0.0600 
    219 H219       -4.2975  -25.8151  -53.8145 H         1 UNK         0.0600 
    220 H220       -6.5521  -22.7513  -52.3389 H         1 UNK         0.3000 
    221 H221       -5.9301  -21.3675  -49.9182 H         1 UNK         0.0600 
    222 H222       -8.1332  -21.1865  -51.0099 H         1 UNK         0.0600 
    223 H223       -7.4090  -20.4520  -52.4401 H         1 UNK         0.0600 
    224 H224       -7.3951  -19.5963  -50.9035 H         1 UNK         0.0600 
    225 H225       -4.0718  -20.3277  -49.5050 H         1 UNK         0.3000 
    226 H226       -2.2173  -19.3088  -51.4081 H         1 UNK         0.0600 
    227 H227       -1.5087  -19.9313  -49.1530 H         1 UNK         0.0600 
    228 H228       -1.2245  -18.2108  -49.3511 H         1 UNK         0.0600 
    229 H229       -2.6110  -18.7641  -48.4219 H         1 UNK         0.0600 
    230 H230       -5.0819  -17.9049  -49.9606 H         1 UNK         0.3000 
    231 H231       -4.6326  -15.1474  -50.4583 H         1 UNK         0.0600 
    232 H232       -7.2408  -16.7484  -50.2837 H         1 UNK         0.0600 
    233 H233       -7.1109  -14.9971  -50.1742 H         1 UNK         0.0600 
    234 H234       -6.3893  -16.0032  -48.9295 H         1 UNK         0.0600 
    235 H235       -5.3313  -17.7334  -52.6929 H         1 UNK         0.3000 
    236 H236       -6.4230  -15.9996  -54.7943 H         1 UNK         0.0600 
    237 H237       -7.2310  -18.3563  -54.4555 H         1 UNK         0.0600 
    238 H238       -6.5669  -18.0998  -56.0612 H         1 UNK         0.0600 
    239 H239       -5.6196  -18.9538  -54.8531 H         1 UNK         0.0600 
    240 H240       -3.2613  -16.6582  -53.6318 H         1 UNK         0.3000 
    241 H241       -2.0614  -15.8315  -56.2039 H         1 UNK         0.0600 
    242 H242       -0.5689  -14.3524  -52.7922 H         1 UNK         0.3800 
    243 H243       -1.8401  -15.5538  -52.6521 H         1 UNK         0.3800 
    244 H244       -0.3076  -17.5727  -56.0542 H         1 UNK         0.0800 
    245 H245       -1.8949  -18.2262  -56.2984 H         1 UNK         0.0800 
    246 H246        1.1995  -19.4039  -54.4056 H         1 UNK         0.0800 
    247 H247        1.0381  -17.6958  -54.0803 H         1 UNK         0.0800 
@<TRIPOS>BOND
     1    1    2 1    
     2    1  127 1    
     3    1  128 1    
     4    1  129 1    
     5    2    3 2    
     6    2    4 am   BACKBONE|DICT|INTERRES
     7    4    5 1    
     8    4  130 1    
     9    5    6 1    
    10    5   65 1    
    11    5  131 1    
    12    6    7 1    
    13    6  132 1    
    14    6  133 1    
    15    7    8 1    
    16    8    9 1    
    17    8  134 1    
    18    8  135 1    
    19    9   10 ar   
    20    9   14 ar   
    21   10   11 ar   
    22   10  136 1    
    23   11   12 ar   
    24   11  126 1    
    25   12   13 ar   
    26   12  137 1    
    27   13   14 ar   
    28   13   15 1    
    29   14  138 1    
    30   15   16 1    
    31   15  139 1    
    32   15  140 1    
    33   16   17 1    
    34   17   18 1    
    35   17  141 1    
    36   17  142 1    
    37   18   19 1    
    38   18   67 1    
    39   18  143 1    
    40   19   20 am   BACKBONE|DICT|INTERRES
    41   19  144 1    
    42   20   21 2    
    43   20   22 1    
    44   22   23 1    
    45   22   24 1    
    46   22  145 1    
    47   23  146 1    
    48   23  147 1    
    49   23  148 1    
    50   24   25 am   BACKBONE|DICT|INTERRES
    51   24  149 1    
    52   25   26 2    
    53   25   27 1    
    54   27   28 1    
    55   27   29 1    
    56   27  150 1    
    57   28  151 1    
    58   28  152 1    
    59   28  153 1    
    60   29   30 am   BACKBONE|DICT|INTERRES
    61   29  154 1    
    62   30   31 2    
    63   30   32 1    
    64   32   33 1    
    65   32   34 1    
    66   32  155 1    
    67   33  156 1    
    68   33  157 1    
    69   33  158 1    
    70   34   35 am   BACKBONE|DICT|INTERRES
    71   34  159 1    
    72   35   36 2    
    73   35   37 1    
    74   37   38 1    
    75   37   39 1    
    76   37  160 1    
    77   38  161 1    
    78   38  162 1    
    79   38  163 1    
    80   39   40 am   BACKBONE|DICT|INTERRES
    81   39  164 1    
    82   40   41 2    
    83   40   42 1    
    84   42   43 1    
    85   42   44 1    
    86   42  165 1    
    87   43  166 1    
    88   43  167 1    
    89   43  168 1    
    90   44   45 am   BACKBONE|DICT|INTERRES
    91   44  169 1    
    92   45   46 2    
    93   45   47 1    
    94   47   48 1    
    95   47   49 1    
    96   47  170 1    
    97   48  171 1    
    98   48  172 1    
    99   48  173 1    
   100   49   50 am   BACKBONE|DICT|INTERRES
   101   49  174 1    
   102   50   51 2    
   103   50   52 1    
   104   52   53 1    
   105   52   54 1    
   106   52  175 1    
   107   53  176 1    
   108   53  177 1    
   109   53  178 1    
   110   54   55 am   BACKBONE|DICT|INTERRES
   111   54  179 1    
   112   55   56 2    
   113   55   57 1    
   114   57   58 1    
   115   57   59 1    
   116   57  180 1    
   117   58  181 1    
   118   58  182 1    
   119   58  183 1    
   120   59   60 am   BACKBONE|DICT|INTERRES
   121   59  184 1    
   122   60   61 2    
   123   60   62 1    
   124   62   63 1    
   125   62   64 1    
   126   62  185 1    
   127   63  186 1    
   128   63  187 1    
   129   63  188 1    
   130   64   65 am   BACKBONE|DICT|INTERRES
   131   64  189 1    
   132   65   66 2    
   133   67   68 2    
   134   67   69 am   BACKBONE|DICT|INTERRES
   135   69   70 1    
   136   69  190 1    
   137   70   71 1    
   138   70   72 1    
   139   70  191 1    
   140   71  192 1    
   141   71  193 1    
   142   71  194 1    
   143   72   73 2    
   144   72   74 am   BACKBONE|DICT|INTERRES
   145   74   75 1    
   146   74  195 1    
   147   75   76 1    
   148   75   77 1    
   149   75  196 1    
   150   76  197 1    
   151   76  198 1    
   152   76  199 1    
   153   77   78 2    
   154   77   79 am   BACKBONE|DICT|INTERRES
   155   79   80 1    
   156   79  200 1    
   157   80   81 1    
   158   80   82 1    
   159   80  201 1    
   160   81  202 1    
   161   81  203 1    
   162   81  204 1    
   163   82   83 2    
   164   82   84 am   BACKBONE|DICT|INTERRES
   165   84   85 1    
   166   84  205 1    
   167   85   86 1    
   168   85   87 1    
   169   85  206 1    
   170   86  207 1    
   171   86  208 1    
   172   86  209 1    
   173   87   88 2    
   174   87   89 am   BACKBONE|DICT|INTERRES
   175   89   90 1    
   176   89  210 1    
   177   90   91 1    
   178   90   92 1    
   179   90  211 1    
   180   91  212 1    
   181   91  213 1    
   182   91  214 1    
   183   92   93 2    
   184   92   94 am   BACKBONE|DICT|INTERRES
   185   94   95 1    
   186   94  215 1    
   187   95   96 1    
   188   95   97 1    
   189   95  216 1    
   190   96  217 1    
   191   96  218 1    
   192   96  219 1    
   193   97   98 2    
   194   97   99 am   BACKBONE|DICT|INTERRES
   195   99  100 1    
   196   99  220 1    
   197  100  101 1    
   198  100  102 1    
   199  100  221 1    
   200  101  222 1    
   201  101  223 1    
   202  101  224 1    
   203  102  103 2    
   204  102  104 am   BACKBONE|DICT|INTERRES
   205  104  105 1    
   206  104  225 1    
   207  105  106 1    
   208  105  107 1    
   209  105  226 1    
   210  106  227 1    
   211  106  228 1    
   212  106  229 1    
   213  107  108 2    
   214  107  109 am   BACKBONE|DICT|INTERRES
   215  109  110 1    
   216  109  230 1    
   217  110  111 1    
   218  110  112 1    
   219  110  231 1    
   220  111  232 1    
   221  111  233 1    
   222  111  234 1    
   223  112  113 2    
   224  112  114 am   BACKBONE|DICT|INTERRES
   225  114  115 1    
   226  114  235 1    
   227  115  116 1    
   228  115  117 1    
   229  115  236 1    
   230  116  237 1    
   231  116  238 1    
   232  116  239 1    
   233  117  118 2    
   234  117  119 am   BACKBONE|DICT|INTERRES
   235  119  120 1    
   236  119  240 1    
   237  120  121 1    
   238  120  124 1    
   239  120  241 1    
   240  121  122 am   BACKBONE|DICT|INTERRES
   241  121  123 2    
   242  122  242 1    
   243  122  243 1    
   244  124  125 1    
   245  124  244 1    
   246  124  245 1    
   247  125  126 1    
   248  126  246 1    
   249  126  247 1    
@<TRIPOS>SUBSTRUCTURE
     1 UNK         1 GROUP             0       ****    0 ROOT    
