@<TRIPOS>MOLECULE
3R540
247   249    1
SMALL
USER_CHARGES


@<TRIPOS>ATOM
      1 CA          0.9357  -11.9242  -48.2305 C.3       0 UNK        -0.1800 
      2 C           1.4620  -12.9446  -49.2296 C.2       0 UNK         0.5000 
      3 O           2.5180  -12.7334  -49.8256 O.2       0 UNK        -0.5000 
      4 N           0.7304  -14.0521  -49.4091 N.am      1 UNK        -0.5000 
      5 CA          1.0704  -15.1585  -50.3190 C.3       1 UNK         0.1400 
      6 C6         -0.1456  -16.0788  -50.5889 C.3       23 UNK        -0.0398 
      7 S7         -1.5597  -15.1687  -51.2997 S.3       23 UNK        -0.2404 
      8 C8         -2.6755  -15.0143  -49.8697 C.3       23 UNK        -0.0205 
      9 C9         -3.7596  -16.0813  -49.8670 C.ar      23 UNK        -0.0193 
     10 C10        -4.9293  -15.8812  -50.6051 C.ar      23 UNK        -0.1150 
     11 C11        -5.9642  -16.8197  -50.5685 C.ar      23 UNK        -0.0193 
     12 C12        -5.8221  -17.9700  -49.7894 C.ar      23 UNK        -0.1150 
     13 C13        -4.6564  -18.1840  -49.0473 C.ar      23 UNK        -0.0193 
     14 C14        -3.6238  -17.2404  -49.0963 C.ar      23 UNK        -0.1150 
     15 C15        -4.5366  -19.4161  -48.1641 C.3       23 UNK        -0.0205 
     16 S16        -4.1979  -20.9069  -49.1454 S.3       23 UNK        -0.2404 
     17 C17        -4.1072  -22.1885  -47.8541 C.3       23 UNK        -0.0398 
     18 CA         -2.6416  -22.5243  -47.4974 C.3       11 UNK         0.1400 
     19 N          -1.9810  -21.4384  -46.7709 N.am      11 UNK        -0.5000 
     20 C          -0.6551  -21.3392  -46.6241 C.2       10 UNK         0.5000 
     21 O           0.1452  -22.1714  -47.0490 O.2       10 UNK        -0.5000 
     22 CA         -0.1456  -20.1389  -45.8107 C.3       10 UNK         0.1400 
     23 CB         -0.1575  -18.8630  -46.6661 C.3       10 UNK        -0.1800 
     24 N          -0.8895  -19.9042  -44.5672 N.am      10 UNK        -0.5000 
     25 C          -1.0796  -20.8068  -43.5921 C.2       9 UNK         0.5000 
     26 O          -0.6778  -21.9678  -43.6593 O.2       9 UNK        -0.5000 
     27 CA         -1.8488  -20.3607  -42.3364 C.3       9 UNK         0.1400 
     28 CB         -0.9784  -20.5033  -41.0771 C.3       9 UNK        -0.1800 
     29 N          -2.3151  -18.9770  -42.4166 N.am      9 UNK        -0.5000 
     30 C          -3.5765  -18.5999  -42.6635 C.2       8 UNK         0.5000 
     31 O          -4.4698  -19.3875  -42.9787 O.2       8 UNK        -0.5000 
     32 CA         -3.8854  -17.0902  -42.5360 C.3       8 UNK         0.1400 
     33 CB         -5.3623  -16.8065  -42.1933 C.3       8 UNK        -0.1800 
     34 N          -2.9888  -16.3907  -41.6063 N.am      8 UNK        -0.5000 
     35 C          -2.8206  -16.6184  -40.2922 C.2       7 UNK         0.5000 
     36 O          -3.5012  -17.4146  -39.6446 O.2       7 UNK        -0.5000 
     37 CA         -1.6755  -15.8634  -39.5840 C.3       7 UNK         0.1400 
     38 CB         -0.6900  -16.8564  -38.9436 C.3       7 UNK        -0.1800 
     39 N          -0.9256  -15.0120  -40.5085 N.am      7 UNK        -0.5000 
     40 C          -1.0801  -13.6883  -40.6485 C.2       6 UNK         0.5000 
     41 O          -1.8283  -13.0072  -39.9470 O.2       6 UNK        -0.5000 
     42 CA         -0.2843  -13.0143  -41.7871 C.3       6 UNK         0.1400 
     43 CB          1.0333  -12.4340  -41.2519 C.3       6 UNK        -0.1800 
     44 N           0.0146  -13.9207  -42.8996 N.am      6 UNK        -0.5000 
     45 C          -0.9031  -14.4952  -43.6912 C.2       5 UNK         0.5000 
     46 O          -2.1088  -14.2645  -43.6143 O.2       5 UNK        -0.5000 
     47 CA         -0.4080  -15.5677  -44.6783 C.3       5 UNK         0.1400 
     48 CB         -0.2797  -14.9823  -46.0925 C.3       5 UNK        -0.1800 
     49 N           0.8547  -16.1921  -44.2618 N.am      5 UNK        -0.5000 
     50 C           0.9776  -16.9887  -43.1859 C.2       4 UNK         0.5000 
     51 O           0.0240  -17.2692  -42.4572 O.2       4 UNK        -0.5000 
     52 CA          2.3681  -17.5652  -42.8447 C.3       4 UNK         0.1400 
     53 CB          2.4089  -19.0783  -43.1024 C.3       4 UNK        -0.1800 
     54 N           3.4672  -16.9509  -43.5851 N.am      4 UNK        -0.5000 
     55 C           3.9672  -15.7261  -43.3771 C.2       3 UNK         0.5000 
     56 O           3.5752  -14.9670  -42.4906 O.2       3 UNK        -0.5000 
     57 CA          5.0517  -15.2613  -44.3742 C.3       3 UNK         0.1400 
     58 CB          6.4528  -15.5967  -43.8418 C.3       3 UNK        -0.1800 
     59 N           4.8924  -15.8376  -45.7189 N.am      3 UNK        -0.5000 
     60 C           3.8089  -15.6536  -46.4843 C.2       2 UNK         0.5000 
     61 O           2.8530  -14.9555  -46.1342 O.2       2 UNK        -0.5000 
     62 CA          3.7420  -16.4075  -47.8219 C.3       2 UNK         0.1400 
     63 CB          3.6032  -17.9258  -47.6027 C.3       2 UNK        -0.1800 
     64 N           2.5808  -15.8864  -48.5295 N.am      2 UNK        -0.5000 
     65 C           2.2848  -15.9829  -49.8284 C.2       1 UNK         0.5000 
     66 O           2.9277  -16.6609  -50.6302 O.2       1 UNK        -0.5000 
     67 C          -2.5453  -23.8684  -46.7504 C.2       11 UNK         0.5000 
     68 O          -2.4640  -24.9048  -47.4076 O.2       11 UNK        -0.5000 
     69 N          -2.5196  -23.8418  -45.4113 N.am      12 UNK        -0.5000 
     70 CA         -2.3215  -25.0326  -44.5845 C.3       12 UNK         0.1400 
     71 CB         -2.7530  -24.7393  -43.1388 C.3       12 UNK        -0.1800 
     72 C          -0.8645  -25.5248  -44.6410 C.2       12 UNK         0.5000 
     73 O          -0.6320  -26.7272  -44.7672 O.2       12 UNK        -0.5000 
     74 N           0.0839  -24.5817  -44.5689 N.am      13 UNK        -0.5000 
     75 CA          1.5226  -24.8328  -44.6053 C.3       13 UNK         0.1400 
     76 CB          2.2666  -23.5495  -44.2011 C.3       13 UNK        -0.1800 
     77 C           2.0140  -25.3382  -45.9736 C.2       13 UNK         0.5000 
     78 O           2.7808  -26.3006  -46.0248 O.2       13 UNK        -0.5000 
     79 N           1.5726  -24.6788  -47.0524 N.am      14 UNK        -0.5000 
     80 CA          2.0331  -24.9323  -48.4194 C.3       14 UNK         0.1400 
     81 CB          2.0958  -23.5912  -49.1642 C.3       14 UNK        -0.1800 
     82 C           1.1534  -25.9295  -49.1960 C.2       14 UNK         0.5000 
     83 O           1.4568  -26.1985  -50.3579 O.2       14 UNK        -0.5000 
     84 N           0.0726  -26.4310  -48.5787 N.am      15 UNK        -0.5000 
     85 CA         -0.9420  -27.3168  -49.1680 C.3       15 UNK         0.1400 
     86 CB         -0.3467  -28.7036  -49.4892 C.3       15 UNK        -0.1800 
     87 C          -1.6442  -26.6574  -50.3756 C.2       15 UNK         0.5000 
     88 O          -1.6672  -27.2108  -51.4759 O.2       15 UNK        -0.5000 
     89 N          -2.1668  -25.4494  -50.1276 N.am      16 UNK        -0.5000 
     90 CA         -2.8915  -24.5483  -51.0321 C.3       16 UNK         0.1400 
     91 CB         -4.1760  -25.2166  -51.5622 C.3       16 UNK        -0.1800 
     92 C          -2.0511  -23.9280  -52.1695 C.2       16 UNK         0.5000 
     93 O          -2.6065  -23.1794  -52.9737 O.2       16 UNK        -0.5000 
     94 N          -0.7406  -24.2097  -52.2252 N.am      17 UNK        -0.5000 
     95 CA          0.1657  -23.6726  -53.2449 C.3       17 UNK         0.1400 
     96 CB          1.4582  -24.5010  -53.2713 C.3       17 UNK        -0.1800 
     97 C           0.4824  -22.1783  -53.0433 C.2       17 UNK         0.5000 
     98 O           0.6789  -21.4617  -54.0254 O.2       17 UNK        -0.5000 
     99 N           0.5104  -21.7302  -51.7815 N.am      18 UNK        -0.5000 
    100 CA         0.7145  -20.3367  -51.3923 C.3       18 UNK         0.1400 
    101 CB         1.5047  -20.2827  -50.0741 C.3       18 UNK        -0.1800 
    102 C         -0.6430  -19.6219  -51.2947 C.2       18 UNK         0.5000 
    103 O         -1.0956  -19.2994  -50.1962 O.2       18 UNK        -0.5000 
    104 N         -1.2629  -19.3979  -52.4554 N.am      19 UNK        -0.5000 
    105 CA        -2.5153  -18.6718  -52.6246 C.3       19 UNK         0.1400 
    106 CB        -3.6709  -19.6754  -52.7447 C.3       19 UNK        -0.1800 
    107 C         -2.4186  -17.8165  -53.8944 C.2       19 UNK         0.5000 
    108 O         -1.6149  -18.1241  -54.7794 O.2       19 UNK        -0.5000 
    109 N         -3.2546  -16.7741  -53.9777 N.am      20 UNK        -0.5000 
    110 CA        -3.3627  -15.9012  -55.1509 C.3       20 UNK         0.1400 
    111 CB        -4.1534  -14.6411  -54.7670 C.3       20 UNK        -0.1800 
    112 C         -4.0161  -16.6171  -56.3503 C.2       20 UNK         0.5000 
    113 O         -3.5915  -16.4269  -57.4903 O.2       20 UNK        -0.5000 
    114 N         -5.0155  -17.4492  -56.0457 N.am      21 UNK        -0.5000 
    115 CA        -5.7402  -18.3487  -56.9337 C.3       21 UNK         0.1400 
    116 CB        -6.5959  -17.5684  -57.9559 C.3       21 UNK        -0.1800 
    117 C         -6.5594  -19.2324  -55.9874 C.2       21 UNK         0.5000 
    118 O         -6.0614  -20.2639  -55.5378 O.2       21 UNK        -0.5000 
    119 N         -7.7410  -18.7327  -55.6047 N.am      22 UNK        -0.5000 
    120 CA        -8.4920  -19.1134  -54.3929 C.3       22 UNK         0.1400 
    121 C         -9.0920  -20.5525  -54.3901 C.2       22 UNK         0.5000 
    122 N         -9.1787  -21.2326  -55.5262 N.am      22 UNK        -0.7600 
    123 O         -9.5199  -21.0496  -53.3518 O.2       22 UNK        -0.5000 
    124 C124       -7.7066  -18.7825  -53.0877 C.3       23 UNK        -0.0398 
    125 S125       -7.0733  -17.0621  -53.0833 S.3       23 UNK        -0.2404 
    126 C126       -7.2451  -16.5643  -51.3451 C.3       23 UNK        -0.0205 
    127 H127       -0.0580  -12.1871  -47.8670 H         1 UNK         0.0600 
    128 H128        1.6063  -11.8610  -47.3734 H         1 UNK         0.0600 
    129 H129        0.8770  -10.9393  -48.6938 H         1 UNK         0.0600 
    130 H130       -0.1419  -14.1480  -48.9130 H         1 UNK         0.3000 
    131 H131        1.3651  -14.7152  -51.2728 H         1 UNK         0.0600 
    132 H132       -0.4539  -16.6062  -49.6843 H         1 UNK         0.0800 
    133 H133        0.1308  -16.8478  -51.3106 H         1 UNK         0.0800 
    134 H134       -3.1427  -14.0289  -49.9042 H         1 UNK         0.0800 
    135 H135       -2.1127  -15.0420  -48.9363 H         1 UNK         0.0800 
    136 H136       -5.0416  -14.9836  -51.1974 H         1 UNK         0.1150 
    137 H137       -6.6218  -18.6963  -49.7509 H         1 UNK         0.1150 
    138 H138       -2.7208  -17.4018  -48.5249 H         1 UNK         0.1150 
    139 H139       -3.7436  -19.2754  -47.4296 H         1 UNK         0.0800 
    140 H140       -5.4622  -19.5517  -47.6026 H         1 UNK         0.0800 
    141 H141       -4.6201  -23.0674  -48.2499 H         1 UNK         0.0800 
    142 H142       -4.6702  -21.8819  -46.9710 H         1 UNK         0.0800 
    143 H143       -2.0957  -22.6623  -48.4338 H         1 UNK         0.0600 
    144 H144       -2.5705  -20.7256  -46.3705 H         1 UNK         0.3000 
    145 H145        0.8879  -20.3615  -45.5433 H         1 UNK         0.0600 
    146 H146        0.3849  -18.0594  -46.1739 H         1 UNK         0.0600 
    147 H147        0.3247  -19.0276  -47.6298 H         1 UNK         0.0600 
    148 H148       -1.1716  -18.5162  -46.8662 H         1 UNK         0.0600 
    149 H149       -1.2574  -18.9769  -44.4217 H         1 UNK         0.3000 
    150 H150       -2.6969  -21.0403  -42.2316 H         1 UNK         0.0600 
    151 H151       -0.1349  -19.8136  -41.0862 H         1 UNK         0.0600 
    152 H152       -0.5800  -21.5143  -40.9806 H         1 UNK         0.0600 
    153 H153       -1.5600  -20.2982  -40.1781 H         1 UNK         0.0600 
    154 H154       -1.6201  -18.2639  -42.2123 H         1 UNK         0.3000 
    155 H155       -3.6914  -16.6625  -43.5205 H         1 UNK         0.0600 
    156 H156       -5.6569  -17.2695  -41.2512 H         1 UNK         0.0600 
    157 H157       -6.0255  -17.1932  -42.9679 H         1 UNK         0.0600 
    158 H158       -5.5491  -15.7355  -42.1142 H         1 UNK         0.0600 
    159 H159       -2.4123  -15.6766  -42.0323 H         1 UNK         0.3000 
    160 H160       -2.1217  -15.2621  -38.7894 H         1 UNK         0.0600 
    161 H161       -0.2416  -17.5158  -39.6878 H         1 UNK         0.0600 
    162 H162       -1.1886  -17.4862  -38.2058 H         1 UNK         0.0600 
    163 H163        0.1168  -16.3341  -38.4292 H         1 UNK         0.0600 
    164 H164       -0.3041  -15.4984  -41.1420 H         1 UNK         0.3000 
    165 H165       -0.8915  -12.1934  -42.1739 H         1 UNK         0.0600 
    166 H166        1.5692  -11.8893  -42.0295 H         1 UNK         0.0600 
    167 H167        0.8502  -11.7358  -40.4340 H         1 UNK         0.0600 
    168 H168        1.6937  -13.2165  -40.8754 H         1 UNK         0.0600 
    169 H169        0.9847  -14.1739  -43.0276 H         1 UNK         0.3000 
    170 H170       -1.1677  -16.3514  -44.7132 H         1 UNK         0.0600 
    171 H171        0.4017  -14.1317  -46.1130 H         1 UNK         0.0600 
    172 H172       -1.2469  -14.6299  -46.4529 H         1 UNK         0.0600 
    173 H173        0.0796  -15.7264  -46.8025 H         1 UNK         0.0600 
    174 H174        1.6765  -15.9484  -44.8037 H         1 UNK         0.3000 
    175 H175        2.5292  -17.3952  -41.7782 H         1 UNK         0.0600 
    176 H176        2.3586  -19.3025  -44.1671 H         1 UNK         0.0600 
    177 H177        3.3289  -19.5164  -42.7151 H         1 UNK         0.0600 
    178 H178        1.5809  -19.5922  -42.6165 H         1 UNK         0.0600 
    179 H179        3.8593  -17.4956  -44.3384 H         1 UNK         0.3000 
    180 H180        4.9696  -14.1760  -44.4635 H         1 UNK         0.0600 
    181 H181        7.2292  -15.1983  -44.4951 H         1 UNK         0.0600 
    182 H182        6.6044  -16.6734  -43.7562 H         1 UNK         0.0600 
    183 H183        6.6087  -15.1635  -42.8528 H         1 UNK         0.0600 
    184 H184        5.6465  -16.4190  -46.0561 H         1 UNK         0.3000 
    185 H185        4.6448  -16.1879  -48.3949 H         1 UNK         0.0600 
    186 H186        3.5636  -18.4597  -48.5514 H         1 UNK         0.0600 
    187 H187        4.4540  -18.3258  -47.0505 H         1 UNK         0.0600 
    188 H188        2.7022  -18.1712  -47.0410 H         1 UNK         0.0600 
    189 H189        2.0300  -15.2615  -47.9526 H         1 UNK         0.3000 
    190 H190       -2.5233  -22.9513  -44.9363 H         1 UNK         0.3000 
    191 H191       -2.9602  -25.8314  -44.9682 H         1 UNK         0.0600 
    192 H192       -2.6526  -25.6295  -42.5166 H         1 UNK         0.0600 
    193 H193       -3.7969  -24.4287  -43.0946 H         1 UNK         0.0600 
    194 H194       -2.1501  -23.9540  -42.6829 H         1 UNK         0.0600 
    195 H195       -0.2017  -23.6171  -44.4187 H         1 UNK         0.3000 
    196 H196        1.7485  -25.6027  -43.8646 H         1 UNK         0.0600 
    197 H197        2.0496  -22.7259  -44.8827 H         1 UNK         0.0600 
    198 H198        1.9853  -23.2313  -43.1970 H         1 UNK         0.0600 
    199 H199        3.3461  -23.7045  -44.2038 H         1 UNK         0.0600 
    200 H200        0.9653  -23.8717  -46.9269 H         1 UNK         0.3000 
    201 H201        3.0439  -25.3446  -48.3937 H         1 UNK         0.0600 
    202 H202        1.0973  -23.1891  -49.3323 H         1 UNK         0.0600 
    203 H203        2.5779  -23.6998  -50.1357 H         1 UNK         0.0600 
    204 H204        2.6667  -22.8518  -48.6022 H         1 UNK         0.0600 
    205 H205       -0.1077  -26.1265  -47.6320 H         1 UNK         0.3000 
    206 H206       -1.7084  -27.4599  -48.4047 H         1 UNK         0.0600 
    207 H207        0.1174  -29.1457  -48.6077 H         1 UNK         0.0600 
    208 H208       -1.1238  -29.3906  -49.8263 H         1 UNK         0.0600 
    209 H209        0.4069  -28.6544  -50.2756 H         1 UNK         0.0600 
    210 H210       -2.1237  -25.1416  -49.1579 H         1 UNK         0.3000 
    211 H211       -3.2033  -23.7058  -50.4145 H         1 UNK         0.0600 
    212 H212       -4.7959  -24.5002  -52.1025 H         1 UNK         0.0600 
    213 H213       -4.7797  -25.6132  -50.7459 H         1 UNK         0.0600 
    214 H214       -3.9550  -26.0356  -52.2470 H         1 UNK         0.0600 
    215 H215       -0.3527  -24.8709  -51.5663 H         1 UNK         0.3000 
    216 H216       -0.3174  -23.7787  -54.2187 H         1 UNK         0.0600 
    217 H217        2.0150  -24.4115  -52.3391 H         1 UNK         0.0600 
    218 H218        2.1153  -24.1710  -54.0768 H         1 UNK         0.0600 
    219 H219        1.2475  -25.5581  -53.4351 H         1 UNK         0.0600 
    220 H220        0.2855  -22.3757  -51.0407 H         1 UNK         0.3000 
    221 H221        1.3094  -19.8190  -52.1481 H         1 UNK         0.0600 
    222 H222        2.4847  -20.7472  -50.1809 H         1 UNK         0.0600 
    223 H223        0.9775  -20.7856  -49.2642 H         1 UNK         0.0600 
    224 H224        1.6667  -19.2493  -49.7670 H         1 UNK         0.0600 
    225 H225       -0.8105  -19.6677  -53.3214 H         1 UNK         0.3000 
    226 H226       -2.6871  -18.0157  -51.7698 H         1 UNK         0.0600 
    227 H227       -3.6059  -20.2627  -53.6618 H         1 UNK         0.0600 
    228 H228       -3.6802  -20.3726  -51.9093 H         1 UNK         0.0600 
    229 H229       -4.6277  -19.1562  -52.7483 H         1 UNK         0.0600 
    230 H230       -3.8717  -16.5736  -53.2036 H         1 UNK         0.3000 
    231 H231       -2.3571  -15.5959  -55.4478 H         1 UNK         0.0600 
    232 H232       -5.1667  -14.8817  -54.4428 H         1 UNK         0.0600 
    233 H233       -4.2327  -13.9579  -55.6135 H         1 UNK         0.0600 
    234 H234       -3.6625  -14.1004  -53.9574 H         1 UNK         0.0600 
    235 H235       -5.2722  -17.5334  -55.0710 H         1 UNK         0.3000 
    236 H236       -5.0284  -18.9832  -57.4652 H         1 UNK         0.0600 
    237 H237       -5.9670  -17.0711  -58.6941 H         1 UNK         0.0600 
    238 H238       -7.2597  -18.2387  -58.5032 H         1 UNK         0.0600 
    239 H239       -7.2094  -16.8019  -57.4813 H         1 UNK         0.0600 
    240 H240       -8.0572  -17.8843  -56.0515 H         1 UNK         0.3000 
    241 H241       -9.3697  -18.4661  -54.3976 H         1 UNK         0.0600 
    242 H242       -9.5770  -22.1586  -55.5250 H         1 UNK         0.3800 
    243 H243       -8.8276  -20.8362  -56.3836 H         1 UNK         0.3800 
    244 H244       -6.8715  -19.4707  -52.9595 H         1 UNK         0.0800 
    245 H245       -8.3507  -18.9273  -52.2195 H         1 UNK         0.0800 
    246 H246       -7.4785  -15.4990  -51.3123 H         1 UNK         0.0800 
    247 H247       -8.0922  -17.0685  -50.8784 H         1 UNK         0.0800 
@<TRIPOS>BOND
     1    1    2 1    
     2    1  127 1    
     3    1  128 1    
     4    1  129 1    
     5    2    3 2    
     6    2    4 am   BACKBONE|DICT|INTERRES
     7    4    5 1    
     8    4  130 1    
     9    5    6 1    
    10    5   65 1    
    11    5  131 1    
    12    6    7 1    
    13    6  132 1    
    14    6  133 1    
    15    7    8 1    
    16    8    9 1    
    17    8  134 1    
    18    8  135 1    
    19    9   10 ar   
    20    9   14 ar   
    21   10   11 ar   
    22   10  136 1    
    23   11   12 ar   
    24   11  126 1    
    25   12   13 ar   
    26   12  137 1    
    27   13   14 ar   
    28   13   15 1    
    29   14  138 1    
    30   15   16 1    
    31   15  139 1    
    32   15  140 1    
    33   16   17 1    
    34   17   18 1    
    35   17  141 1    
    36   17  142 1    
    37   18   19 1    
    38   18   67 1    
    39   18  143 1    
    40   19   20 am   BACKBONE|DICT|INTERRES
    41   19  144 1    
    42   20   21 2    
    43   20   22 1    
    44   22   23 1    
    45   22   24 1    
    46   22  145 1    
    47   23  146 1    
    48   23  147 1    
    49   23  148 1    
    50   24   25 am   BACKBONE|DICT|INTERRES
    51   24  149 1    
    52   25   26 2    
    53   25   27 1    
    54   27   28 1    
    55   27   29 1    
    56   27  150 1    
    57   28  151 1    
    58   28  152 1    
    59   28  153 1    
    60   29   30 am   BACKBONE|DICT|INTERRES
    61   29  154 1    
    62   30   31 2    
    63   30   32 1    
    64   32   33 1    
    65   32   34 1    
    66   32  155 1    
    67   33  156 1    
    68   33  157 1    
    69   33  158 1    
    70   34   35 am   BACKBONE|DICT|INTERRES
    71   34  159 1    
    72   35   36 2    
    73   35   37 1    
    74   37   38 1    
    75   37   39 1    
    76   37  160 1    
    77   38  161 1    
    78   38  162 1    
    79   38  163 1    
    80   39   40 am   BACKBONE|DICT|INTERRES
    81   39  164 1    
    82   40   41 2    
    83   40   42 1    
    84   42   43 1    
    85   42   44 1    
    86   42  165 1    
    87   43  166 1    
    88   43  167 1    
    89   43  168 1    
    90   44   45 am   BACKBONE|DICT|INTERRES
    91   44  169 1    
    92   45   46 2    
    93   45   47 1    
    94   47   48 1    
    95   47   49 1    
    96   47  170 1    
    97   48  171 1    
    98   48  172 1    
    99   48  173 1    
   100   49   50 am   BACKBONE|DICT|INTERRES
   101   49  174 1    
   102   50   51 2    
   103   50   52 1    
   104   52   53 1    
   105   52   54 1    
   106   52  175 1    
   107   53  176 1    
   108   53  177 1    
   109   53  178 1    
   110   54   55 am   BACKBONE|DICT|INTERRES
   111   54  179 1    
   112   55   56 2    
   113   55   57 1    
   114   57   58 1    
   115   57   59 1    
   116   57  180 1    
   117   58  181 1    
   118   58  182 1    
   119   58  183 1    
   120   59   60 am   BACKBONE|DICT|INTERRES
   121   59  184 1    
   122   60   61 2    
   123   60   62 1    
   124   62   63 1    
   125   62   64 1    
   126   62  185 1    
   127   63  186 1    
   128   63  187 1    
   129   63  188 1    
   130   64   65 am   BACKBONE|DICT|INTERRES
   131   64  189 1    
   132   65   66 2    
   133   67   68 2    
   134   67   69 am   BACKBONE|DICT|INTERRES
   135   69   70 1    
   136   69  190 1    
   137   70   71 1    
   138   70   72 1    
   139   70  191 1    
   140   71  192 1    
   141   71  193 1    
   142   71  194 1    
   143   72   73 2    
   144   72   74 am   BACKBONE|DICT|INTERRES
   145   74   75 1    
   146   74  195 1    
   147   75   76 1    
   148   75   77 1    
   149   75  196 1    
   150   76  197 1    
   151   76  198 1    
   152   76  199 1    
   153   77   78 2    
   154   77   79 am   BACKBONE|DICT|INTERRES
   155   79   80 1    
   156   79  200 1    
   157   80   81 1    
   158   80   82 1    
   159   80  201 1    
   160   81  202 1    
   161   81  203 1    
   162   81  204 1    
   163   82   83 2    
   164   82   84 am   BACKBONE|DICT|INTERRES
   165   84   85 1    
   166   84  205 1    
   167   85   86 1    
   168   85   87 1    
   169   85  206 1    
   170   86  207 1    
   171   86  208 1    
   172   86  209 1    
   173   87   88 2    
   174   87   89 am   BACKBONE|DICT|INTERRES
   175   89   90 1    
   176   89  210 1    
   177   90   91 1    
   178   90   92 1    
   179   90  211 1    
   180   91  212 1    
   181   91  213 1    
   182   91  214 1    
   183   92   93 2    
   184   92   94 am   BACKBONE|DICT|INTERRES
   185   94   95 1    
   186   94  215 1    
   187   95   96 1    
   188   95   97 1    
   189   95  216 1    
   190   96  217 1    
   191   96  218 1    
   192   96  219 1    
   193   97   98 2    
   194   97   99 am   BACKBONE|DICT|INTERRES
   195   99  100 1    
   196   99  220 1    
   197  100  101 1    
   198  100  102 1    
   199  100  221 1    
   200  101  222 1    
   201  101  223 1    
   202  101  224 1    
   203  102  103 2    
   204  102  104 am   BACKBONE|DICT|INTERRES
   205  104  105 1    
   206  104  225 1    
   207  105  106 1    
   208  105  107 1    
   209  105  226 1    
   210  106  227 1    
   211  106  228 1    
   212  106  229 1    
   213  107  108 2    
   214  107  109 am   BACKBONE|DICT|INTERRES
   215  109  110 1    
   216  109  230 1    
   217  110  111 1    
   218  110  112 1    
   219  110  231 1    
   220  111  232 1    
   221  111  233 1    
   222  111  234 1    
   223  112  113 2    
   224  112  114 am   BACKBONE|DICT|INTERRES
   225  114  115 1    
   226  114  235 1    
   227  115  116 1    
   228  115  117 1    
   229  115  236 1    
   230  116  237 1    
   231  116  238 1    
   232  116  239 1    
   233  117  118 2    
   234  117  119 am   BACKBONE|DICT|INTERRES
   235  119  120 1    
   236  119  240 1    
   237  120  121 1    
   238  120  124 1    
   239  120  241 1    
   240  121  122 am   BACKBONE|DICT|INTERRES
   241  121  123 2    
   242  122  242 1    
   243  122  243 1    
   244  124  125 1    
   245  124  244 1    
   246  124  245 1    
   247  125  126 1    
   248  126  246 1    
   249  126  247 1    
@<TRIPOS>SUBSTRUCTURE
     1 UNK         1 GROUP             0       ****    0 ROOT    
