@<TRIPOS>MOLECULE
3R540
247   249    1
SMALL
USER_CHARGES


@<TRIPOS>ATOM
      1 CA          9.2750  -12.1685  -50.9000 C.3       0 UNK        -0.1800 
      2 C           8.1811  -12.6656  -49.9652 C.2       0 UNK         0.5000 
      3 O           8.3366  -12.5910  -48.7459 O.2       0 UNK        -0.5000 
      4 N           7.0811  -13.1789  -50.5299 N.am      1 UNK        -0.5000 
      5 CA          5.9004  -13.6416  -49.7959 C.3       1 UNK         0.1400 
      6 C6          4.9817  -14.4965  -50.7030 C.3       23 UNK        -0.0398 
      7 S7          3.7998  -15.5256  -49.7679 S.3       23 UNK        -0.2404 
      8 C8          2.8299  -16.1983  -51.1504 C.3       23 UNK        -0.0205 
      9 C9          1.9370  -17.3453  -50.7063 C.ar      23 UNK        -0.0193 
     10 C10         0.5752  -17.1365  -50.4672 C.ar      23 UNK        -0.1150 
     11 C11        -0.2522  -18.2036  -50.1036 C.ar      23 UNK        -0.0193 
     12 C12         0.2970  -19.4812  -49.9650 C.ar      23 UNK        -0.1150 
     13 C13         1.6596  -19.7010  -50.1888 C.ar      23 UNK        -0.0193 
     14 C14         2.4727  -18.6288  -50.5641 C.ar      23 UNK        -0.1150 
     15 C15         2.2465  -21.1002  -50.0569 C.3       23 UNK        -0.0205 
     16 S16         3.2500  -21.3216  -48.5464 S.3       23 UNK        -0.2404 
     17 C17         2.0487  -21.0162  -47.2050 C.3       23 UNK        -0.0398 
     18 CA          1.3725  -22.2928  -46.6459 C.3       11 UNK         0.1400 
     19 N           0.7024  -22.0335  -45.3674 N.am      11 UNK        -0.5000 
     20 C           0.1162  -22.9632  -44.5983 C.2       10 UNK         0.5000 
     21 O           0.1472  -24.1700  -44.8388 O.2       10 UNK        -0.5000 
     22 CA         -0.6852  -22.4565  -43.3846 C.3       10 UNK         0.1400 
     23 CB          0.2424  -22.1708  -42.1946 C.3       10 UNK        -0.1800 
     24 N          -1.4771  -21.2643  -43.6932 N.am      10 UNK        -0.5000 
     25 C          -2.4938  -21.2328  -44.5671 C.2       9 UNK         0.5000 
     26 O          -2.9185  -22.2274  -45.1536 O.2       9 UNK        -0.5000 
     27 CA         -3.0987  -19.8527  -44.8889 C.3       9 UNK         0.1400 
     28 CB         -4.1270  -19.4340  -43.8293 C.3       9 UNK        -0.1800 
     29 N          -2.0803  -18.8117  -45.0362 N.am      9 UNK        -0.5000 
     30 C          -1.1352  -18.8207  -45.9865 C.2       8 UNK         0.5000 
     31 O          -1.0671  -19.6796  -46.8627 O.2       8 UNK        -0.5000 
     32 CA         -0.0487  -17.7354  -45.9091 C.3       8 UNK         0.1400 
     33 CB         -0.5100  -16.4279  -46.5630 C.3       8 UNK        -0.1800 
     34 N           0.3517  -17.4760  -44.5281 N.am      8 UNK        -0.5000 
     35 C           1.0763  -18.3237  -43.7859 C.2       7 UNK         0.5000 
     36 O           1.5142  -19.3951  -44.2052 O.2       7 UNK        -0.5000 
     37 CA          1.3103  -17.9226  -42.3181 C.3       7 UNK         0.1400 
     38 CB          2.4914  -16.9470  -42.2062 C.3       7 UNK        -0.1800 
     39 N           0.1238  -17.3210  -41.7049 N.am      7 UNK        -0.5000 
     40 C          -1.0234  -17.9760  -41.4771 C.2       6 UNK         0.5000 
     41 O          -1.1878  -19.1688  -41.7280 O.2       6 UNK        -0.5000 
     42 CA         -2.1986  -17.1517  -40.9185 C.3       6 UNK         0.1400 
     43 CB         -2.1517  -17.1197  -39.3838 C.3       6 UNK        -0.1800 
     44 N          -2.2567  -15.7788  -41.4304 N.am      6 UNK        -0.5000 
     45 C          -2.4008  -15.4416  -42.7200 C.2       5 UNK         0.5000 
     46 O          -2.4416  -16.2596  -43.6390 O.2       5 UNK        -0.5000 
     47 CA         -2.4464  -13.9428  -43.0511 C.3       5 UNK         0.1400 
     48 CB         -3.0945  -13.0926  -41.9415 C.3       5 UNK        -0.1800 
     49 N          -1.0696  -13.4970  -43.2539 N.am      5 UNK        -0.5000 
     50 C          -0.4764  -13.0964  -44.3850 C.2       4 UNK         0.5000 
     51 O           0.7304  -12.8457  -44.4033 O.2       4 UNK        -0.5000 
     52 CA         -1.2897  -12.9167  -45.6841 C.3       4 UNK         0.1400 
     53 CB         -2.0900  -11.6000  -45.6592 C.3       4 UNK        -0.1800 
     54 N          -0.3389  -12.9017  -46.7881 N.am      4 UNK        -0.5000 
     55 C          -0.5914  -13.0225  -48.0945 C.2       3 UNK         0.5000 
     56 O          -1.7243  -13.1559  -48.5599 O.2       3 UNK        -0.5000 
     57 CA          0.6257  -13.0437  -49.0475 C.3       3 UNK         0.1400 
     58 CB          0.4208  -12.1349  -50.2763 C.3       3 UNK        -0.1800 
     59 N           1.9227  -12.7732  -48.4097 N.am      3 UNK        -0.5000 
     60 C           2.3502  -11.6332  -47.8407 C.2       2 UNK         0.5000 
     61 O           1.6700  -10.6124  -47.7400 O.2       2 UNK        -0.5000 
     62 CA          3.7849  -11.6429  -47.2758 C.3       2 UNK         0.1400 
     63 CB          3.7674  -11.9599  -45.7727 C.3       2 UNK        -0.1800 
     64 N           4.6526  -12.6078  -47.9550 N.am      2 UNK        -0.5000 
     65 C           5.1312  -12.4466  -49.1953 C.2       1 UNK         0.5000 
     66 O           4.9568  -11.4293  -49.8714 O.2       1 UNK        -0.5000 
     67 C           0.4038  -22.9242  -47.6674 C.2       11 UNK         0.5000 
     68 O           0.7334  -23.9504  -48.2619 O.2       11 UNK        -0.5000 
     69 N          -0.7861  -22.3256  -47.8230 N.am      12 UNK        -0.5000 
     70 CA         -1.8530  -22.8158  -48.6940 C.3       12 UNK         0.1400 
     71 CB         -3.0099  -21.8089  -48.7302 C.3       12 UNK        -0.1800 
     72 C          -2.3502  -24.2114  -48.2867 C.2       12 UNK         0.5000 
     73 O          -2.4748  -25.0757  -49.1512 O.2       12 UNK        -0.5000 
     74 N          -2.5640  -24.4280  -46.9814 N.am      13 UNK        -0.5000 
     75 CA         -2.9504  -25.7179  -46.4086 C.3       13 UNK         0.1400 
     76 CB         -3.2363  -25.5555  -44.9084 C.3       13 UNK        -0.1800 
     77 C          -1.9046  -26.8220  -46.6534 C.2       13 UNK         0.5000 
     78 O          -2.2795  -27.9336  -47.0272 O.2       13 UNK        -0.5000 
     79 N          -0.6163  -26.4881  -46.4884 N.am      14 UNK        -0.5000 
     80 CA          0.5153  -27.3736  -46.7755 C.3       14 UNK         0.1400 
     81 CB          1.8086  -26.7447  -46.2353 C.3       14 UNK        -0.1800 
     82 C           0.6530  -27.7072  -48.2743 C.2       14 UNK         0.5000 
     83 O           0.9774  -28.8447  -48.6168 O.2       14 UNK        -0.5000 
     84 N           0.3751  -26.7218  -49.1381 N.am      15 UNK        -0.5000 
     85 CA          0.3527  -26.8581  -50.5965 C.3       15 UNK         0.1400 
     86 CB          0.4727  -25.4582  -51.2216 C.3       15 UNK        -0.1800 
     87 C          -0.9014  -27.5804  -51.1356 C.2       15 UNK         0.5000 
     88 O          -0.9267  -27.9263  -52.3175 O.2       15 UNK        -0.5000 
     89 N          -1.9148  -27.7745  -50.2779 N.am      16 UNK        -0.5000 
     90 CA         -3.2542  -28.2976  -50.5689 C.3       16 UNK         0.1400 
     91 CB         -3.1919  -29.7678  -51.0333 C.3       16 UNK        -0.1800 
     92 C          -4.0526  -27.3832  -51.5251 C.2       16 UNK         0.5000 
     93 O          -4.7901  -27.8698  -52.3848 O.2       16 UNK        -0.5000 
     94 N          -3.8853  -26.0688  -51.3487 N.am      17 UNK        -0.5000 
     95 CA         -4.5637  -25.0027  -52.0764 C.3       17 UNK         0.1400 
     96 CB         -3.4995  -24.0002  -52.5545 C.3       17 UNK        -0.1800 
     97 C          -5.5757  -24.3007  -51.1554 C.2       17 UNK         0.5000 
     98 O          -5.5001  -24.4276  -49.9306 O.2       17 UNK        -0.5000 
     99 N          -6.4970  -23.5425  -51.7601 N.am      18 UNK        -0.5000 
    100 CA        -7.4210  -22.6650  -51.0458 C.3       18 UNK         0.1400 
    101 CB        -8.6085  -22.3236  -51.9602 C.3       18 UNK        -0.1800 
    102 C         -6.6909  -21.3852  -50.6074 C.2       18 UNK         0.5000 
    103 O         -6.1042  -20.7068  -51.4516 O.2       18 UNK        -0.5000 
    104 N         -6.7657  -21.0532  -49.3124 N.am      19 UNK        -0.5000 
    105 CA        -6.1372  -19.8635  -48.7256 C.3       19 UNK         0.1400 
    106 CB        -6.2487  -19.9403  -47.1952 C.3       19 UNK        -0.1800 
    107 C         -6.7169  -18.5337  -49.2471 C.2       19 UNK         0.5000 
    108 O         -6.0211  -17.5210  -49.2292 O.2       19 UNK        -0.5000 
    109 N         -7.9691  -18.5644  -49.7226 N.am      20 UNK        -0.5000 
    110 CA        -8.6638  -17.4312  -50.3345 C.3       20 UNK         0.1400 
    111 CB       -10.1689  -17.7405  -50.3662 C.3       20 UNK        -0.1800 
    112 C         -8.1574  -17.0826  -51.7501 C.2       20 UNK         0.5000 
    113 O         -8.4445  -15.9869  -52.2333 O.2       20 UNK        -0.5000 
    114 N         -7.4308  -18.0050  -52.3983 N.am      21 UNK        -0.5000 
    115 CA        -6.8998  -17.8430  -53.7545 C.3       21 UNK         0.1400 
    116 CB        -6.8141  -19.2273  -54.4196 C.3       21 UNK        -0.1800 
    117 C         -5.5327  -17.1284  -53.7958 C.2       21 UNK         0.5000 
    118 O         -4.9878  -16.9424  -54.8853 O.2       21 UNK        -0.5000 
    119 N         -4.9898  -16.7526  -52.6338 N.am      22 UNK        -0.5000 
    120 CA        -3.6629  -16.1481  -52.4702 C.3       22 UNK         0.1400 
    121 C         -3.6082  -15.1691  -51.2634 C.2       22 UNK         0.5000 
    122 N         -2.4719  -14.5253  -51.0296 N.am      22 UNK        -0.7600 
    123 O         -4.5834  -14.9699  -50.5436 O.2       22 UNK        -0.5000 
    124 C124       -2.5354  -17.2215  -52.4604 C.3       23 UNK        -0.0398 
    125 S125       -2.7731  -18.5527  -51.2280 S.3       23 UNK        -0.2404 
    126 C126       -1.7362  -17.9810  -49.8472 C.3       23 UNK        -0.0205 
    127 H127       10.2030  -12.7090  -50.7130 H         1 UNK         0.0600 
    128 H128        9.4576  -11.1071  -50.7325 H         1 UNK         0.0600 
    129 H129        9.0069  -12.3060  -51.9479 H         1 UNK         0.0600 
    130 H130        7.0016  -13.1813  -51.5367 H         1 UNK         0.3000 
    131 H131        6.2583  -14.2739  -48.9799 H         1 UNK         0.0600 
    132 H132        4.4401  -13.8721  -51.4167 H         1 UNK         0.0800 
    133 H133        5.5894  -15.1782  -51.3001 H         1 UNK         0.0800 
    134 H134        3.5042  -16.5521  -51.9319 H         1 UNK         0.0800 
    135 H135        2.2350  -15.3993  -51.5959 H         1 UNK         0.0800 
    136 H136        0.1565  -16.1468  -50.5754 H         1 UNK         0.1150 
    137 H137       -0.3425  -20.3045  -49.6831 H         1 UNK         0.1150 
    138 H138        3.5253  -18.7942  -50.7475 H         1 UNK         0.1150 
    139 H139        1.4579  -21.8522  -50.0912 H         1 UNK         0.0800 
    140 H140        2.8796  -21.2998  -50.9224 H         1 UNK         0.0800 
    141 H141        1.3127  -20.2822  -47.5244 H         1 UNK         0.0800 
    142 H142        2.6085  -20.5305  -46.4051 H         1 UNK         0.0800 
    143 H143        2.1553  -23.0266  -46.4430 H         1 UNK         0.0600 
    144 H144        0.6713  -21.0668  -45.0629 H         1 UNK         0.3000 
    145 H145       -1.3771  -23.2482  -43.0903 H         1 UNK         0.0600 
    146 H146       -0.3285  -21.8869  -41.3104 H         1 UNK         0.0600 
    147 H147        0.8274  -23.0540  -41.9349 H         1 UNK         0.0600 
    148 H148        0.9430  -21.3646  -42.4119 H         1 UNK         0.0600 
    149 H149       -1.2332  -20.4133  -43.1944 H         1 UNK         0.3000 
    150 H150       -3.6148  -19.9376  -45.8464 H         1 UNK         0.0600 
    151 H151       -4.9392  -20.1595  -43.7699 H         1 UNK         0.0600 
    152 H152       -4.5699  -18.4670  -44.0687 H         1 UNK         0.0600 
    153 H153       -3.6791  -19.3627  -42.8387 H         1 UNK         0.0600 
    154 H154       -2.1057  -18.0394  -44.3775 H         1 UNK         0.3000 
    155 H155        0.8250  -18.0926  -46.4585 H         1 UNK         0.0600 
    156 H156        0.2545  -15.6570  -46.4724 H         1 UNK         0.0600 
    157 H157       -0.6980  -16.5685  -47.6257 H         1 UNK         0.0600 
    158 H158       -1.4297  -16.0532  -46.1150 H         1 UNK         0.0600 
    159 H159       -0.0260  -16.6484  -44.0916 H         1 UNK         0.3000 
    160 H160        1.5593  -18.8282  -41.7609 H         1 UNK         0.0600 
    161 H161        2.2913  -16.0077  -42.7237 H         1 UNK         0.0600 
    162 H162        3.3942  -17.3764  -42.6427 H         1 UNK         0.0600 
    163 H163        2.7142  -16.7158  -41.1644 H         1 UNK         0.0600 
    164 H164        0.1778  -16.3436  -41.4608 H         1 UNK         0.3000 
    165 H165       -3.1211  -17.6524  -41.2180 H         1 UNK         0.0600 
    166 H166       -3.0304  -16.6227  -38.9723 H         1 UNK         0.0600 
    167 H167       -2.1298  -18.1300  -38.9728 H         1 UNK         0.0600 
    168 H168       -1.2671  -16.5971  -39.0179 H         1 UNK         0.0600 
    169 H169       -2.2244  -15.0426  -40.7404 H         1 UNK         0.3000 
    170 H170       -3.0589  -13.8334  -43.9452 H         1 UNK         0.0600 
    171 H171       -4.0893  -13.4643  -41.6916 H         1 UNK         0.0600 
    172 H172       -2.5023  -13.0796  -41.0259 H         1 UNK         0.0600 
    173 H173       -3.2109  -12.0586  -42.2665 H         1 UNK         0.0600 
    174 H174       -0.4804  -13.5751  -42.4384 H         1 UNK         0.3000 
    175 H175       -1.9575  -13.7661  -45.8278 H         1 UNK         0.0600 
    176 H176       -1.4305  -10.7354  -45.5737 H         1 UNK         0.0600 
    177 H177       -2.6838  -11.4774  -46.5649 H         1 UNK         0.0600 
    178 H178       -2.7809  -11.5685  -44.8168 H         1 UNK         0.0600 
    179 H179        0.6214  -12.8063  -46.4812 H         1 UNK         0.3000 
    180 H180        0.6907  -14.0697  -49.4112 H         1 UNK         0.0600 
    181 H181        0.2906  -11.0908  -49.9913 H         1 UNK         0.0600 
    182 H182       -0.4637  -12.4273  -50.8422 H         1 UNK         0.0600 
    183 H183        1.2718  -12.1942  -50.9550 H         1 UNK         0.0600 
    184 H184        2.5718  -13.5477  -48.4248 H         1 UNK         0.3000 
    185 H185        4.2020  -10.6424  -47.4097 H         1 UNK         0.0600 
    186 H186        3.3789  -12.9598  -45.5748 H         1 UNK         0.0600 
    187 H187        4.7678  -11.8969  -45.3442 H         1 UNK         0.0600 
    188 H188        3.1378  -11.2524  -45.2312 H         1 UNK         0.0600 
    189 H189        4.8499  -13.4655  -47.4591 H         1 UNK         0.3000 
    190 H190       -0.9681  -21.4579  -47.3228 H         1 UNK         0.3000 
    191 H191       -1.4424  -22.8911  -49.7027 H         1 UNK         0.0600 
    192 H192       -3.4536  -21.6653  -47.7455 H         1 UNK         0.0600 
    193 H193       -3.8002  -22.1490  -49.4003 H         1 UNK         0.0600 
    194 H194       -2.6759  -20.8378  -49.0913 H         1 UNK         0.0600 
    195 H195       -2.4809  -23.6476  -46.3347 H         1 UNK         0.3000 
    196 H196       -3.8766  -26.0268  -46.8978 H         1 UNK         0.0600 
    197 H197       -3.5537  -26.5007  -44.4665 H         1 UNK         0.0600 
    198 H198       -4.0329  -24.8315  -44.7356 H         1 UNK         0.0600 
    199 H199       -2.3544  -25.2178  -44.3642 H         1 UNK         0.0600 
    200 H200       -0.3909  -25.5611  -46.1387 H         1 UNK         0.3000 
    201 H201        0.3479  -28.3119  -46.2428 H         1 UNK         0.0600 
    202 H202        1.7462  -26.5796  -45.1595 H         1 UNK         0.0600 
    203 H203        2.0188  -25.7850  -46.7080 H         1 UNK         0.0600 
    204 H204        2.6651  -27.3953  -46.4160 H         1 UNK         0.0600 
    205 H205        0.1831  -25.7946  -48.7698 H         1 UNK         0.3000 
    206 H206        1.2226  -27.4428  -50.9023 H         1 UNK         0.0600 
    207 H207        1.3792  -24.9525  -50.8881 H         1 UNK         0.0600 
    208 H208        0.5144  -25.5155  -52.3099 H         1 UNK         0.0600 
    209 H209       -0.3774  -24.8279  -50.9594 H         1 UNK         0.0600 
    210 H210       -1.7927  -27.4118  -49.3413 H         1 UNK         0.3000 
    211 H211       -3.7919  -28.2788  -49.6199 H         1 UNK         0.0600 
    212 H212       -2.7297  -29.8660  -52.0157 H         1 UNK         0.0600 
    213 H213       -4.1920  -30.1975  -51.1000 H         1 UNK         0.0600 
    214 H214       -2.6235  -30.3782  -50.3316 H         1 UNK         0.0600 
    215 H215       -3.3247  -25.7569  -50.5556 H         1 UNK         0.3000 
    216 H216       -5.0945  -25.4026  -52.9427 H         1 UNK         0.0600 
    217 H217       -3.9491  -23.1879  -53.1269 H         1 UNK         0.0600 
    218 H218       -2.7650  -24.4843  -53.1984 H         1 UNK         0.0600 
    219 H219       -2.9636  -23.5529  -51.7162 H         1 UNK         0.0600 
    220 H220       -6.4755  -23.4463  -52.7648 H         1 UNK         0.3000 
    221 H221       -7.8057  -23.1855  -50.1660 H         1 UNK         0.0600 
    222 H222       -8.2867  -21.8121  -52.8683 H         1 UNK         0.0600 
    223 H223       -9.1483  -23.2232  -52.2564 H         1 UNK         0.0600 
    224 H224       -9.3190  -21.6714  -51.4509 H         1 UNK         0.0600 
    225 H225       -7.2614  -21.6610  -48.6761 H         1 UNK         0.3000 
    226 H226       -5.0790  -19.8738  -48.9934 H         1 UNK         0.0600 
    227 H227       -5.7597  -20.8343  -46.8075 H         1 UNK         0.0600 
    228 H228       -5.7726  -19.0785  -46.7255 H         1 UNK         0.0600 
    229 H229       -7.2890  -19.9575  -46.8683 H         1 UNK         0.0600 
    230 H230       -8.4707  -19.4394  -49.6900 H         1 UNK         0.3000 
    231 H231       -8.5082  -16.5515  -49.7063 H         1 UNK         0.0600 
    232 H232      -10.7319  -16.9048  -50.7839 H         1 UNK         0.0600 
    233 H233      -10.5563  -17.9212  -49.3633 H         1 UNK         0.0600 
    234 H234      -10.3862  -18.6192  -50.9749 H         1 UNK         0.0600 
    235 H235       -7.1858  -18.8672  -51.9260 H         1 UNK         0.3000 
    236 H236       -7.5957  -17.2382  -54.3395 H         1 UNK         0.0600 
    237 H237       -7.7717  -19.7465  -54.3802 H         1 UNK         0.0600 
    238 H238       -6.5375  -19.1392  -55.4709 H         1 UNK         0.0600 
    239 H239       -6.0669  -19.8595  -53.9397 H         1 UNK         0.0600 
    240 H240       -5.4991  -16.8971  -51.7717 H         1 UNK         0.3000 
    241 H241       -3.4949  -15.5050  -53.3361 H         1 UNK         0.0600 
    242 H242       -2.4143  -13.9195  -50.2161 H         1 UNK         0.3800 
    243 H243       -1.6780  -14.6122  -51.6412 H         1 UNK         0.3800 
    244 H244       -2.4986  -17.7004  -53.4394 H         1 UNK         0.0800 
    245 H245       -1.5536  -16.7662  -52.3358 H         1 UNK         0.0800 
    246 H246       -1.9427  -16.9314  -49.6398 H         1 UNK         0.0800 
    247 H247       -2.0350  -18.5226  -48.9512 H         1 UNK         0.0800 
@<TRIPOS>BOND
     1    1    2 1    
     2    1  127 1    
     3    1  128 1    
     4    1  129 1    
     5    2    3 2    
     6    2    4 am   BACKBONE|DICT|INTERRES
     7    4    5 1    
     8    4  130 1    
     9    5    6 1    
    10    5   65 1    
    11    5  131 1    
    12    6    7 1    
    13    6  132 1    
    14    6  133 1    
    15    7    8 1    
    16    8    9 1    
    17    8  134 1    
    18    8  135 1    
    19    9   10 ar   
    20    9   14 ar   
    21   10   11 ar   
    22   10  136 1    
    23   11   12 ar   
    24   11  126 1    
    25   12   13 ar   
    26   12  137 1    
    27   13   14 ar   
    28   13   15 1    
    29   14  138 1    
    30   15   16 1    
    31   15  139 1    
    32   15  140 1    
    33   16   17 1    
    34   17   18 1    
    35   17  141 1    
    36   17  142 1    
    37   18   19 1    
    38   18   67 1    
    39   18  143 1    
    40   19   20 am   BACKBONE|DICT|INTERRES
    41   19  144 1    
    42   20   21 2    
    43   20   22 1    
    44   22   23 1    
    45   22   24 1    
    46   22  145 1    
    47   23  146 1    
    48   23  147 1    
    49   23  148 1    
    50   24   25 am   BACKBONE|DICT|INTERRES
    51   24  149 1    
    52   25   26 2    
    53   25   27 1    
    54   27   28 1    
    55   27   29 1    
    56   27  150 1    
    57   28  151 1    
    58   28  152 1    
    59   28  153 1    
    60   29   30 am   BACKBONE|DICT|INTERRES
    61   29  154 1    
    62   30   31 2    
    63   30   32 1    
    64   32   33 1    
    65   32   34 1    
    66   32  155 1    
    67   33  156 1    
    68   33  157 1    
    69   33  158 1    
    70   34   35 am   BACKBONE|DICT|INTERRES
    71   34  159 1    
    72   35   36 2    
    73   35   37 1    
    74   37   38 1    
    75   37   39 1    
    76   37  160 1    
    77   38  161 1    
    78   38  162 1    
    79   38  163 1    
    80   39   40 am   BACKBONE|DICT|INTERRES
    81   39  164 1    
    82   40   41 2    
    83   40   42 1    
    84   42   43 1    
    85   42   44 1    
    86   42  165 1    
    87   43  166 1    
    88   43  167 1    
    89   43  168 1    
    90   44   45 am   BACKBONE|DICT|INTERRES
    91   44  169 1    
    92   45   46 2    
    93   45   47 1    
    94   47   48 1    
    95   47   49 1    
    96   47  170 1    
    97   48  171 1    
    98   48  172 1    
    99   48  173 1    
   100   49   50 am   BACKBONE|DICT|INTERRES
   101   49  174 1    
   102   50   51 2    
   103   50   52 1    
   104   52   53 1    
   105   52   54 1    
   106   52  175 1    
   107   53  176 1    
   108   53  177 1    
   109   53  178 1    
   110   54   55 am   BACKBONE|DICT|INTERRES
   111   54  179 1    
   112   55   56 2    
   113   55   57 1    
   114   57   58 1    
   115   57   59 1    
   116   57  180 1    
   117   58  181 1    
   118   58  182 1    
   119   58  183 1    
   120   59   60 am   BACKBONE|DICT|INTERRES
   121   59  184 1    
   122   60   61 2    
   123   60   62 1    
   124   62   63 1    
   125   62   64 1    
   126   62  185 1    
   127   63  186 1    
   128   63  187 1    
   129   63  188 1    
   130   64   65 am   BACKBONE|DICT|INTERRES
   131   64  189 1    
   132   65   66 2    
   133   67   68 2    
   134   67   69 am   BACKBONE|DICT|INTERRES
   135   69   70 1    
   136   69  190 1    
   137   70   71 1    
   138   70   72 1    
   139   70  191 1    
   140   71  192 1    
   141   71  193 1    
   142   71  194 1    
   143   72   73 2    
   144   72   74 am   BACKBONE|DICT|INTERRES
   145   74   75 1    
   146   74  195 1    
   147   75   76 1    
   148   75   77 1    
   149   75  196 1    
   150   76  197 1    
   151   76  198 1    
   152   76  199 1    
   153   77   78 2    
   154   77   79 am   BACKBONE|DICT|INTERRES
   155   79   80 1    
   156   79  200 1    
   157   80   81 1    
   158   80   82 1    
   159   80  201 1    
   160   81  202 1    
   161   81  203 1    
   162   81  204 1    
   163   82   83 2    
   164   82   84 am   BACKBONE|DICT|INTERRES
   165   84   85 1    
   166   84  205 1    
   167   85   86 1    
   168   85   87 1    
   169   85  206 1    
   170   86  207 1    
   171   86  208 1    
   172   86  209 1    
   173   87   88 2    
   174   87   89 am   BACKBONE|DICT|INTERRES
   175   89   90 1    
   176   89  210 1    
   177   90   91 1    
   178   90   92 1    
   179   90  211 1    
   180   91  212 1    
   181   91  213 1    
   182   91  214 1    
   183   92   93 2    
   184   92   94 am   BACKBONE|DICT|INTERRES
   185   94   95 1    
   186   94  215 1    
   187   95   96 1    
   188   95   97 1    
   189   95  216 1    
   190   96  217 1    
   191   96  218 1    
   192   96  219 1    
   193   97   98 2    
   194   97   99 am   BACKBONE|DICT|INTERRES
   195   99  100 1    
   196   99  220 1    
   197  100  101 1    
   198  100  102 1    
   199  100  221 1    
   200  101  222 1    
   201  101  223 1    
   202  101  224 1    
   203  102  103 2    
   204  102  104 am   BACKBONE|DICT|INTERRES
   205  104  105 1    
   206  104  225 1    
   207  105  106 1    
   208  105  107 1    
   209  105  226 1    
   210  106  227 1    
   211  106  228 1    
   212  106  229 1    
   213  107  108 2    
   214  107  109 am   BACKBONE|DICT|INTERRES
   215  109  110 1    
   216  109  230 1    
   217  110  111 1    
   218  110  112 1    
   219  110  231 1    
   220  111  232 1    
   221  111  233 1    
   222  111  234 1    
   223  112  113 2    
   224  112  114 am   BACKBONE|DICT|INTERRES
   225  114  115 1    
   226  114  235 1    
   227  115  116 1    
   228  115  117 1    
   229  115  236 1    
   230  116  237 1    
   231  116  238 1    
   232  116  239 1    
   233  117  118 2    
   234  117  119 am   BACKBONE|DICT|INTERRES
   235  119  120 1    
   236  119  240 1    
   237  120  121 1    
   238  120  124 1    
   239  120  241 1    
   240  121  122 am   BACKBONE|DICT|INTERRES
   241  121  123 2    
   242  122  242 1    
   243  122  243 1    
   244  124  125 1    
   245  124  244 1    
   246  124  245 1    
   247  125  126 1    
   248  126  246 1    
   249  126  247 1    
@<TRIPOS>SUBSTRUCTURE
     1 UNK         1 GROUP             0       ****    0 ROOT    
