@<TRIPOS>MOLECULE
3R540
247   249    1
SMALL
USER_CHARGES


@<TRIPOS>ATOM
      1 CA          6.2505  -10.6096  -48.7370 C.3       0 UNK        -0.1800 
      2 C           5.4495  -10.8964  -47.4764 C.2       0 UNK         0.5000 
      3 O           6.0337  -11.1303  -46.4188 O.2       0 UNK        -0.5000 
      4 N           4.1143  -10.8571  -47.5727 N.am      1 UNK        -0.5000 
      5 CA          3.1607  -11.1782  -46.4971 C.3       1 UNK         0.1400 
      6 C6          1.7117  -11.3091  -47.0250 C.3       23 UNK        -0.0398 
      7 S7          1.5651  -12.5302  -48.3741 S.3       23 UNK        -0.2404 
      8 C8          0.8691  -13.9590  -47.4911 C.3       23 UNK        -0.0205 
      9 C9          0.6412  -15.1227  -48.4439 C.ar      23 UNK        -0.0193 
     10 C10        -0.4986  -15.1531  -49.2570 C.ar      23 UNK        -0.1150 
     11 C11        -0.6995  -16.2039  -50.1573 C.ar      23 UNK        -0.0193 
     12 C12         0.2554  -17.2170  -50.2455 C.ar      23 UNK        -0.1150 
     13 C13         1.3767  -17.2202  -49.4165 C.ar      23 UNK        -0.0193 
     14 C14         1.5706  -16.1662  -48.5191 C.ar      23 UNK        -0.1150 
     15 C15         2.3660  -18.3712  -49.5037 C.3       23 UNK        -0.0205 
     16 S16         1.9531  -19.7147  -48.3463 S.3       23 UNK        -0.2404 
     17 C17         0.2702  -20.1971  -48.8789 C.3       23 UNK        -0.0398 
     18 CA         -0.1724  -21.5416  -48.2614 C.3       11 UNK         0.1400 
     19 N          -0.1872  -21.5072  -46.7976 N.am      11 UNK        -0.5000 
     20 C          -0.2889  -22.5892  -46.0162 C.2       10 UNK         0.5000 
     21 O          -0.3549  -23.7396  -46.4486 O.2       10 UNK        -0.5000 
     22 CA         -0.3811  -22.3382  -44.5024 C.3       10 UNK         0.1400 
     23 CB          1.0124  -22.1229  -43.8927 C.3       10 UNK        -0.1800 
     24 N          -1.2374  -21.1925  -44.1964 N.am      10 UNK        -0.5000 
     25 C          -2.5706  -21.1920  -44.3312 C.2       9 UNK         0.5000 
     26 O          -3.2195  -22.1724  -44.6963 O.2       9 UNK        -0.5000 
     27 CA         -3.2938  -19.8625  -44.0470 C.3       9 UNK         0.1400 
     28 CB         -3.5019  -19.6675  -42.5378 C.3       9 UNK        -0.1800 
     29 N          -2.5812  -18.7058  -44.5908 N.am      9 UNK        -0.5000 
     30 C          -2.4207  -18.4662  -45.9008 C.2       8 UNK         0.5000 
     31 O          -2.8796  -19.1841  -46.7845 O.2       8 UNK        -0.5000 
     32 CA         -1.5709  -17.2459  -46.2972 C.3       8 UNK         0.1400 
     33 CB         -2.4622  -15.9975  -46.3790 C.3       8 UNK        -0.1800 
     34 N          -0.4533  -16.9842  -45.3888 N.am      8 UNK        -0.5000 
     35 C           0.4921  -17.8676  -45.0340 C.2       7 UNK         0.5000 
     36 O           0.5343  -19.0270  -45.4421 O.2       7 UNK        -0.5000 
     37 CA          1.5323  -17.3990  -44.0020 C.3       7 UNK         0.1400 
     38 CB          2.8375  -17.0041  -44.7042 C.3       7 UNK        -0.1800 
     39 N           1.0648  -16.2923  -43.1587 N.am      7 UNK        -0.5000 
     40 C           0.0596  -16.3891  -42.2722 C.2       6 UNK         0.5000 
     41 O          -0.5869  -17.4255  -42.1065 O.2       6 UNK        -0.5000 
     42 CA         -0.3349  -15.1237  -41.4773 C.3       6 UNK         0.1400 
     43 CB         -0.6794  -15.4422  -40.0073 C.3       6 UNK        -0.1800 
     44 N           0.6241  -14.0149  -41.5665 N.am      6 UNK        -0.5000 
     45 C           1.8800  -13.9813  -41.1010 C.2       5 UNK         0.5000 
     46 O           2.4288  -14.9085  -40.5017 O.2       5 UNK        -0.5000 
     47 CA          2.6610  -12.6841  -41.3742 C.3       5 UNK         0.1400 
     48 CB          2.9206  -11.9100  -40.0731 C.3       5 UNK        -0.1800 
     49 N           3.9351  -12.9483  -42.0365 N.am      5 UNK        -0.5000 
     50 C           4.0838  -13.5144  -43.2402 C.2       4 UNK         0.5000 
     51 O           3.1393  -13.8874  -43.9399 O.2       4 UNK        -0.5000 
     52 CA          5.5350  -13.6372  -43.7482 C.3       4 UNK         0.1400 
     53 CB          5.6392  -14.3436  -45.1123 C.3       4 UNK        -0.1800 
     54 N           6.1589  -12.3189  -43.8560 N.am      4 UNK        -0.5000 
     55 C           6.7006  -11.6213  -42.8483 C.2       3 UNK         0.5000 
     56 O           6.7669  -12.0365  -41.6905 O.2       3 UNK        -0.5000 
     57 CA          7.2019  -10.2086  -43.1843 C.3       3 UNK         0.1400 
     58 CB          8.5113  -10.2657  -43.9873 C.3       3 UNK        -0.1800 
     59 N           6.1895   -9.4857  -43.9520 N.am      3 UNK        -0.5000 
     60 C           5.2634   -8.6742  -43.4215 C.2       2 UNK         0.5000 
     61 O           5.2199   -8.3703  -42.2290 O.2       2 UNK        -0.5000 
     62 CA          4.1941   -8.1151  -44.3828 C.3       2 UNK         0.1400 
     63 CB          4.6578   -6.7824  -44.9902 C.3       2 UNK        -0.1800 
     64 N           3.8703   -9.0474  -45.4634 N.am      2 UNK        -0.5000 
     65 C           3.2164  -10.2059  -45.2955 C.2       1 UNK         0.5000 
     66 O           2.6841  -10.5287  -44.2342 O.2       1 UNK        -0.5000 
     67 C          -1.5252  -22.0192  -48.8341 C.2       11 UNK         0.5000 
     68 O          -1.5295  -22.8020  -49.7826 O.2       11 UNK        -0.5000 
     69 N          -2.6447  -21.6042  -48.2211 N.am      12 UNK        -0.5000 
     70 CA         -3.9893  -22.0928  -48.5316 C.3       12 UNK         0.1400 
     71 CB         -5.0465  -21.2490  -47.8060 C.3       12 UNK        -0.1800 
     72 C          -4.1680  -23.5818  -48.1937 C.2       12 UNK         0.5000 
     73 O          -4.7620  -24.3089  -48.9890 O.2       12 UNK        -0.5000 
     74 N          -3.6284  -24.0257  -47.0490 N.am      13 UNK        -0.5000 
     75 CA         -3.6115  -25.4331  -46.6424 C.3       13 UNK         0.1400 
     76 CB         -3.0938  -25.5633  -45.2027 C.3       13 UNK        -0.1800 
     77 C          -2.7993  -26.3127  -47.6117 C.2       13 UNK         0.5000 
     78 O          -3.2729  -27.3823  -47.9965 O.2       13 UNK        -0.5000 
     79 N          -1.6314  -25.8154  -48.0458 N.am      14 UNK        -0.5000 
     80 CA         -0.7891  -26.4280  -49.0787 C.3       14 UNK         0.1400 
     81 CB          0.5491  -25.6786  -49.1579 C.3       14 UNK        -0.1800 
     82 C          -1.4688  -26.4859  -50.4633 C.2       14 UNK         0.5000 
     83 O          -1.2293  -27.4274  -51.2188 O.2       14 UNK        -0.5000 
     84 N          -2.3501  -25.5168  -50.7438 N.am      15 UNK        -0.5000 
     85 CA         -3.2324  -25.4524  -51.9120 C.3       15 UNK         0.1400 
     86 CB         -3.5451  -23.9755  -52.2101 C.3       15 UNK        -0.1800 
     87 C          -4.5218  -26.2939  -51.7507 C.2       15 UNK         0.5000 
     88 O          -5.4953  -26.0551  -52.4697 O.2       15 UNK        -0.5000 
     89 N          -4.5102  -27.2557  -50.8142 N.am      16 UNK        -0.5000 
     90 CA         -5.5677  -28.2141  -50.4844 C.3       16 UNK         0.1400 
     91 CB         -5.8104  -29.1883  -51.6553 C.3       16 UNK        -0.1800 
     92 C          -6.8453  -27.5245  -49.9715 C.2       16 UNK         0.5000 
     93 O          -7.9405  -27.7918  -50.4665 O.2       16 UNK        -0.5000 
     94 N          -6.6576  -26.6294  -48.9911 N.am      17 UNK        -0.5000 
     95 CA         -7.6665  -25.7605  -48.3732 C.3       17 UNK         0.1400 
     96 CB         -8.7331  -26.5839  -47.6212 C.3       17 UNK        -0.1800 
     97 C          -8.2585  -24.7630  -49.3894 C.2       17 UNK         0.5000 
     98 O          -9.4749  -24.5744  -49.4488 O.2       17 UNK        -0.5000 
     99 N          -7.3587  -24.1571  -50.1769 N.am      18 UNK        -0.5000 
    100 CA        -7.6099  -23.2077  -51.2634 C.3       18 UNK         0.1400 
    101 CB        -8.1252  -21.8648  -50.7061 C.3       18 UNK        -0.1800 
    102 C         -8.4988  -23.7813  -52.3884 C.2       18 UNK         0.5000 
    103 O         -9.3226  -23.0594  -52.9549 O.2       18 UNK        -0.5000 
    104 N         -8.3074  -25.0697  -52.7058 N.am      19 UNK        -0.5000 
    105 CA        -8.8774  -25.7088  -53.8924 C.3       19 UNK         0.1400 
    106 CB        -8.8682  -27.2335  -53.7197 C.3       19 UNK        -0.1800 
    107 C         -8.0985  -25.2912  -55.1520 C.2       19 UNK         0.5000 
    108 O         -8.7086  -25.0063  -56.1836 O.2       19 UNK        -0.5000 
    109 N         -6.7678  -25.2152  -55.0212 N.am      20 UNK        -0.5000 
    110 CA        -5.8796  -24.5311  -55.9560 C.3       20 UNK         0.1400 
    111 CB        -4.5166  -25.2430  -55.9517 C.3       20 UNK        -0.1800 
    112 C         -5.7434  -23.0489  -55.5540 C.2       20 UNK         0.5000 
    113 O         -6.1336  -22.6648  -54.4479 O.2       20 UNK        -0.5000 
    114 N         -5.1887  -22.2336  -56.4580 N.am      21 UNK        -0.5000 
    115 CA        -4.9292  -20.8107  -56.2296 C.3       21 UNK         0.1400 
    116 CB        -4.5032  -20.1636  -57.5566 C.3       21 UNK        -0.1800 
    117 C         -3.8567  -20.5753  -55.1466 C.2       21 UNK         0.5000 
    118 O         -2.9133  -21.3624  -55.0366 O.2       21 UNK        -0.5000 
    119 N         -4.0097  -19.4785  -54.3933 N.am      22 UNK        -0.5000 
    120 CA        -3.0508  -19.0269  -53.3698 C.3       22 UNK         0.1400 
    121 C         -1.6864  -18.5566  -53.9597 C.2       22 UNK         0.5000 
    122 N         -1.6509  -18.0037  -55.1668 N.am      22 UNK        -0.7600 
    123 O         -0.6460  -18.7160  -53.3298 O.2       22 UNK        -0.5000 
    124 C124       -3.6910  -17.9449  -52.4559 C.3       23 UNK        -0.0398 
    125 S125       -2.8853  -17.7831  -50.8246 S.3       23 UNK        -0.2404 
    126 C126       -1.9231  -16.2490  -51.0606 C.3       23 UNK        -0.0205 
    127 H127        6.8945   -9.7439  -48.5826 H         1 UNK         0.0600 
    128 H128        5.6039  -10.4068  -49.5909 H         1 UNK         0.0600 
    129 H129        6.8801  -11.4650  -48.9815 H         1 UNK         0.0600 
    130 H130        3.6942  -10.6624  -48.4708 H         1 UNK         0.3000 
    131 H131        3.4483  -12.1538  -46.1028 H         1 UNK         0.0600 
    132 H132        1.3568  -10.3480  -47.4009 H         1 UNK         0.0800 
    133 H133        1.0312  -11.5876  -46.2180 H         1 UNK         0.0800 
    134 H134       -0.0732  -13.6713  -47.0242 H         1 UNK         0.0800 
    135 H135        1.5422  -14.2504  -46.6828 H         1 UNK         0.0800 
    136 H136       -1.2207  -14.3511  -49.1950 H         1 UNK         0.1150 
    137 H137        0.1088  -18.0242  -50.9483 H         1 UNK         0.1150 
    138 H138        2.4454  -16.1573  -47.8845 H         1 UNK         0.1150 
    139 H139        2.3992  -18.7669  -50.5201 H         1 UNK         0.0800 
    140 H140        3.3721  -18.0118  -49.2835 H         1 UNK         0.0800 
    141 H141        0.2588  -20.2606  -49.9685 H         1 UNK         0.0800 
    142 H142       -0.4292  -19.4071  -48.6010 H         1 UNK         0.0800 
    143 H143        0.5683  -22.2891  -48.5539 H         1 UNK         0.0600 
    144 H144       -0.0703  -20.5962  -46.3608 H         1 UNK         0.3000 
    145 H145       -0.8181  -23.2264  -44.0412 H         1 UNK         0.0600 
    146 H146        0.9532  -21.9847  -42.8131 H         1 UNK         0.0600 
    147 H147        1.6530  -22.9865  -44.0755 H         1 UNK         0.0600 
    148 H148        1.5119  -21.2509  -44.3157 H         1 UNK         0.0600 
    149 H149       -0.7712  -20.3252  -43.9698 H         1 UNK         0.3000 
    150 H150       -4.2756  -19.9100  -44.5227 H         1 UNK         0.0600 
    151 H151       -4.0445  -20.5097  -42.1065 H         1 UNK         0.0600 
    152 H152       -4.0823  -18.7678  -42.3331 H         1 UNK         0.0600 
    153 H153       -2.5526  -19.5810  -42.0074 H         1 UNK         0.0600 
    154 H154       -2.1369  -18.0886  -43.9244 H         1 UNK         0.3000 
    155 H155       -1.1509  -17.4393  -47.2860 H         1 UNK         0.0600 
    156 H156       -3.2700  -16.1448  -47.0973 H         1 UNK         0.0600 
    157 H157       -1.9003  -15.1240  -46.7035 H         1 UNK         0.0600 
    158 H158       -2.9164  -15.7627  -45.4156 H         1 UNK         0.0600 
    159 H159       -0.4054  -16.0608  -44.9867 H         1 UNK         0.3000 
    160 H160        1.7443  -18.2486  -43.3496 H         1 UNK         0.0600 
    161 H161        2.6985  -16.1416  -45.3563 H         1 UNK         0.0600 
    162 H162        3.2144  -17.8221  -45.3200 H         1 UNK         0.0600 
    163 H163        3.6121  -16.7602  -43.9776 H         1 UNK         0.0600 
    164 H164        1.5585  -15.4128  -43.2505 H         1 UNK         0.3000 
    165 H165       -1.2483  -14.7592  -41.9491 H         1 UNK         0.0600 
    166 H166       -0.9727  -14.5425  -39.4663 H         1 UNK         0.0600 
    167 H167       -1.5131  -16.1424  -39.9428 H         1 UNK         0.0600 
    168 H168        0.1623  -15.8921  -39.4804 H         1 UNK         0.0600 
    169 H169        0.2868  -13.2021  -42.0639 H         1 UNK         0.3000 
    170 H170        2.0720  -12.0466  -42.0365 H         1 UNK         0.0600 
    171 H171        1.9847  -11.6802  -39.5623 H         1 UNK         0.0600 
    172 H172        3.5416  -12.4813  -39.3819 H         1 UNK         0.0600 
    173 H173        3.4236  -10.9632  -40.2724 H         1 UNK         0.0600 
    174 H174        4.7737  -12.6652  -41.5436 H         1 UNK         0.3000 
    175 H175        6.0872  -14.2367  -43.0216 H         1 UNK         0.0600 
    176 H176        5.0882  -13.8147  -45.8897 H         1 UNK         0.0600 
    177 H177        6.6772  -14.4197  -45.4360 H         1 UNK         0.0600 
    178 H178        5.2437  -15.3573  -45.0607 H         1 UNK         0.0600 
    179 H179        6.1308  -11.8917  -44.7795 H         1 UNK         0.3000 
    180 H180        7.4060   -9.6879  -42.2463 H         1 UNK         0.0600 
    181 H181        8.3813  -10.7708  -44.9452 H         1 UNK         0.0600 
    182 H182        9.2836  -10.8023  -43.4350 H         1 UNK         0.0600 
    183 H183        8.8916   -9.2640  -44.1879 H         1 UNK         0.0600 
    184 H184        6.1189   -9.7299  -44.9330 H         1 UNK         0.3000 
    185 H185        3.2872   -7.9301  -43.8030 H         1 UNK         0.0600 
    186 H186        3.8836   -6.3460  -45.6215 H         1 UNK         0.0600 
    187 H187        4.8861   -6.0564  -44.2087 H         1 UNK         0.0600 
    188 H188        5.5563   -6.9062  -45.5961 H         1 UNK         0.0600 
    189 H189        4.2642   -8.8502  -46.3717 H         1 UNK         0.3000 
    190 H190       -2.5835  -20.8911  -47.4989 H         1 UNK         0.3000 
    191 H191       -4.1482  -21.9738  -49.6048 H         1 UNK         0.0600 
    192 H192       -4.8904  -21.2474  -46.7271 H         1 UNK         0.0600 
    193 H193       -6.0503  -21.6330  -47.9900 H         1 UNK         0.0600 
    194 H194       -5.0262  -20.2147  -48.1497 H         1 UNK         0.0600 
    195 H195       -3.2033  -23.3601  -46.4129 H         1 UNK         0.3000 
    196 H196       -4.6426  -25.7918  -46.6570 H         1 UNK         0.0600 
    197 H197       -3.1221  -26.6022  -44.8721 H         1 UNK         0.0600 
    198 H198       -3.7063  -24.9852  -44.5106 H         1 UNK         0.0600 
    199 H199       -2.0652  -25.2182  -45.1062 H         1 UNK         0.0600 
    200 H200       -1.2902  -24.9508  -47.6341 H         1 UNK         0.3000 
    201 H201       -0.5845  -27.4553  -48.7708 H         1 UNK         0.0600 
    202 H202        1.0590  -25.6783  -48.1943 H         1 UNK         0.0600 
    203 H203        0.4129  -24.6417  -49.4642 H         1 UNK         0.0600 
    204 H204        1.2173  -26.1487  -49.8804 H         1 UNK         0.0600 
    205 H205       -2.4425  -24.7556  -50.0817 H         1 UNK         0.3000 
    206 H206       -2.6990  -25.8587  -52.7732 H         1 UNK         0.0600 
    207 H207       -2.6314  -23.3968  -52.3470 H         1 UNK         0.0600 
    208 H208       -4.1294  -23.8666  -53.1213 H         1 UNK         0.0600 
    209 H209       -4.1160  -23.5129  -51.4076 H         1 UNK         0.0600 
    210 H210       -3.6830  -27.3263  -50.2364 H         1 UNK         0.3000 
    211 H211       -5.1927  -28.8053  -49.6477 H         1 UNK         0.0600 
    212 H212       -6.1489  -28.6731  -52.5524 H         1 UNK         0.0600 
    213 H213       -6.5654  -29.9320  -51.3981 H         1 UNK         0.0600 
    214 H214       -4.8981  -29.7281  -51.9087 H         1 UNK         0.0600 
    215 H215       -5.7015  -26.4328  -48.7254 H         1 UNK         0.3000 
    216 H216       -7.1385  -25.1594  -47.6315 H         1 UNK         0.0600 
    217 H217       -9.3989  -25.9315  -47.0552 H         1 UNK         0.0600 
    218 H218       -8.2723  -27.2711  -46.9118 H         1 UNK         0.0600 
    219 H219       -9.3530  -27.1685  -48.3013 H         1 UNK         0.0600 
    220 H220       -6.3807  -24.3710  -49.9999 H         1 UNK         0.3000 
    221 H221       -6.6390  -23.0173  -51.7229 H         1 UNK         0.0600 
    222 H222       -9.1137  -21.9653  -50.2573 H         1 UNK         0.0600 
    223 H223       -7.4504  -21.4669  -49.9493 H         1 UNK         0.0600 
    224 H224       -8.1980  -21.1164  -51.4960 H         1 UNK         0.0600 
    225 H225       -7.5869  -25.5860  -52.2151 H         1 UNK         0.3000 
    226 H226       -9.9147  -25.3872  -54.0074 H         1 UNK         0.0600 
    227 H227       -9.4316  -27.5340  -52.8362 H         1 UNK         0.0600 
    228 H228       -9.3221  -27.7260  -54.5803 H         1 UNK         0.0600 
    229 H229       -7.8544  -27.6180  -53.6183 H         1 UNK         0.0600 
    230 H230       -6.3648  -25.4395  -54.1159 H         1 UNK         0.3000 
    231 H231       -6.2924  -24.5772  -56.9658 H         1 UNK         0.0600 
    232 H232       -4.6177  -26.2803  -56.2712 H         1 UNK         0.0600 
    233 H233       -4.0610  -25.2460  -54.9626 H         1 UNK         0.0600 
    234 H234       -3.8158  -24.7614  -56.6343 H         1 UNK         0.0600 
    235 H235       -4.8591  -22.6164  -57.3319 H         1 UNK         0.3000 
    236 H236       -5.8629  -20.3475  -55.9031 H         1 UNK         0.0600 
    237 H237       -4.3360  -19.0927  -57.4348 H         1 UNK         0.0600 
    238 H238       -3.5780  -20.5986  -57.9372 H         1 UNK         0.0600 
    239 H239       -5.2714  -20.2854  -58.3206 H         1 UNK         0.0600 
    240 H240       -4.8066  -18.8801  -54.5546 H         1 UNK         0.3000 
    241 H241       -2.8355  -19.8977  -52.7465 H         1 UNK         0.0600 
    242 H242       -0.7647  -17.7138  -55.5494 H         1 UNK         0.3800 
    243 H243       -2.4924  -17.8769  -55.7054 H         1 UNK         0.3800 
    244 H244       -3.7324  -16.9772  -52.9588 H         1 UNK         0.0800 
    245 H245       -4.7288  -18.2108  -52.2499 H         1 UNK         0.0800 
    246 H246       -1.5823  -16.1763  -52.0940 H         1 UNK         0.0800 
    247 H247       -2.5731  -15.3907  -50.8846 H         1 UNK         0.0800 
@<TRIPOS>BOND
     1    1    2 1    
     2    1  127 1    
     3    1  128 1    
     4    1  129 1    
     5    2    3 2    
     6    2    4 am   BACKBONE|DICT|INTERRES
     7    4    5 1    
     8    4  130 1    
     9    5    6 1    
    10    5   65 1    
    11    5  131 1    
    12    6    7 1    
    13    6  132 1    
    14    6  133 1    
    15    7    8 1    
    16    8    9 1    
    17    8  134 1    
    18    8  135 1    
    19    9   10 ar   
    20    9   14 ar   
    21   10   11 ar   
    22   10  136 1    
    23   11   12 ar   
    24   11  126 1    
    25   12   13 ar   
    26   12  137 1    
    27   13   14 ar   
    28   13   15 1    
    29   14  138 1    
    30   15   16 1    
    31   15  139 1    
    32   15  140 1    
    33   16   17 1    
    34   17   18 1    
    35   17  141 1    
    36   17  142 1    
    37   18   19 1    
    38   18   67 1    
    39   18  143 1    
    40   19   20 am   BACKBONE|DICT|INTERRES
    41   19  144 1    
    42   20   21 2    
    43   20   22 1    
    44   22   23 1    
    45   22   24 1    
    46   22  145 1    
    47   23  146 1    
    48   23  147 1    
    49   23  148 1    
    50   24   25 am   BACKBONE|DICT|INTERRES
    51   24  149 1    
    52   25   26 2    
    53   25   27 1    
    54   27   28 1    
    55   27   29 1    
    56   27  150 1    
    57   28  151 1    
    58   28  152 1    
    59   28  153 1    
    60   29   30 am   BACKBONE|DICT|INTERRES
    61   29  154 1    
    62   30   31 2    
    63   30   32 1    
    64   32   33 1    
    65   32   34 1    
    66   32  155 1    
    67   33  156 1    
    68   33  157 1    
    69   33  158 1    
    70   34   35 am   BACKBONE|DICT|INTERRES
    71   34  159 1    
    72   35   36 2    
    73   35   37 1    
    74   37   38 1    
    75   37   39 1    
    76   37  160 1    
    77   38  161 1    
    78   38  162 1    
    79   38  163 1    
    80   39   40 am   BACKBONE|DICT|INTERRES
    81   39  164 1    
    82   40   41 2    
    83   40   42 1    
    84   42   43 1    
    85   42   44 1    
    86   42  165 1    
    87   43  166 1    
    88   43  167 1    
    89   43  168 1    
    90   44   45 am   BACKBONE|DICT|INTERRES
    91   44  169 1    
    92   45   46 2    
    93   45   47 1    
    94   47   48 1    
    95   47   49 1    
    96   47  170 1    
    97   48  171 1    
    98   48  172 1    
    99   48  173 1    
   100   49   50 am   BACKBONE|DICT|INTERRES
   101   49  174 1    
   102   50   51 2    
   103   50   52 1    
   104   52   53 1    
   105   52   54 1    
   106   52  175 1    
   107   53  176 1    
   108   53  177 1    
   109   53  178 1    
   110   54   55 am   BACKBONE|DICT|INTERRES
   111   54  179 1    
   112   55   56 2    
   113   55   57 1    
   114   57   58 1    
   115   57   59 1    
   116   57  180 1    
   117   58  181 1    
   118   58  182 1    
   119   58  183 1    
   120   59   60 am   BACKBONE|DICT|INTERRES
   121   59  184 1    
   122   60   61 2    
   123   60   62 1    
   124   62   63 1    
   125   62   64 1    
   126   62  185 1    
   127   63  186 1    
   128   63  187 1    
   129   63  188 1    
   130   64   65 am   BACKBONE|DICT|INTERRES
   131   64  189 1    
   132   65   66 2    
   133   67   68 2    
   134   67   69 am   BACKBONE|DICT|INTERRES
   135   69   70 1    
   136   69  190 1    
   137   70   71 1    
   138   70   72 1    
   139   70  191 1    
   140   71  192 1    
   141   71  193 1    
   142   71  194 1    
   143   72   73 2    
   144   72   74 am   BACKBONE|DICT|INTERRES
   145   74   75 1    
   146   74  195 1    
   147   75   76 1    
   148   75   77 1    
   149   75  196 1    
   150   76  197 1    
   151   76  198 1    
   152   76  199 1    
   153   77   78 2    
   154   77   79 am   BACKBONE|DICT|INTERRES
   155   79   80 1    
   156   79  200 1    
   157   80   81 1    
   158   80   82 1    
   159   80  201 1    
   160   81  202 1    
   161   81  203 1    
   162   81  204 1    
   163   82   83 2    
   164   82   84 am   BACKBONE|DICT|INTERRES
   165   84   85 1    
   166   84  205 1    
   167   85   86 1    
   168   85   87 1    
   169   85  206 1    
   170   86  207 1    
   171   86  208 1    
   172   86  209 1    
   173   87   88 2    
   174   87   89 am   BACKBONE|DICT|INTERRES
   175   89   90 1    
   176   89  210 1    
   177   90   91 1    
   178   90   92 1    
   179   90  211 1    
   180   91  212 1    
   181   91  213 1    
   182   91  214 1    
   183   92   93 2    
   184   92   94 am   BACKBONE|DICT|INTERRES
   185   94   95 1    
   186   94  215 1    
   187   95   96 1    
   188   95   97 1    
   189   95  216 1    
   190   96  217 1    
   191   96  218 1    
   192   96  219 1    
   193   97   98 2    
   194   97   99 am   BACKBONE|DICT|INTERRES
   195   99  100 1    
   196   99  220 1    
   197  100  101 1    
   198  100  102 1    
   199  100  221 1    
   200  101  222 1    
   201  101  223 1    
   202  101  224 1    
   203  102  103 2    
   204  102  104 am   BACKBONE|DICT|INTERRES
   205  104  105 1    
   206  104  225 1    
   207  105  106 1    
   208  105  107 1    
   209  105  226 1    
   210  106  227 1    
   211  106  228 1    
   212  106  229 1    
   213  107  108 2    
   214  107  109 am   BACKBONE|DICT|INTERRES
   215  109  110 1    
   216  109  230 1    
   217  110  111 1    
   218  110  112 1    
   219  110  231 1    
   220  111  232 1    
   221  111  233 1    
   222  111  234 1    
   223  112  113 2    
   224  112  114 am   BACKBONE|DICT|INTERRES
   225  114  115 1    
   226  114  235 1    
   227  115  116 1    
   228  115  117 1    
   229  115  236 1    
   230  116  237 1    
   231  116  238 1    
   232  116  239 1    
   233  117  118 2    
   234  117  119 am   BACKBONE|DICT|INTERRES
   235  119  120 1    
   236  119  240 1    
   237  120  121 1    
   238  120  124 1    
   239  120  241 1    
   240  121  122 am   BACKBONE|DICT|INTERRES
   241  121  123 2    
   242  122  242 1    
   243  122  243 1    
   244  124  125 1    
   245  124  244 1    
   246  124  245 1    
   247  125  126 1    
   248  126  246 1    
   249  126  247 1    
@<TRIPOS>SUBSTRUCTURE
     1 UNK         1 GROUP             0       ****    0 ROOT    
