@<TRIPOS>MOLECULE
3R540
247   249    1
SMALL
USER_CHARGES


@<TRIPOS>ATOM
      1 CA          3.2840  -13.6967  -52.9425 C.3       0 UNK        -0.1800 
      2 C           2.9510  -14.2582  -51.5672 C.2       0 UNK         0.5000 
      3 O           3.7712  -14.9639  -50.9793 O.2       0 UNK        -0.5000 
      4 N           1.7509  -13.9536  -51.0578 N.am      1 UNK        -0.5000 
      5 CA          1.2838  -14.3534  -49.7280 C.3       1 UNK         0.1400 
      6 C6         -0.2604  -14.2516  -49.6300 C.3       23 UNK        -0.0398 
      7 S7         -0.9476  -15.0857  -48.1581 S.3       23 UNK        -0.2404 
      8 C8         -1.7281  -16.5913  -48.8377 C.3       23 UNK        -0.0205 
      9 C9         -0.7654  -17.5327  -49.5565 C.ar      23 UNK        -0.0193 
     10 C10        -1.1746  -18.1699  -50.7314 C.ar      23 UNK        -0.1150 
     11 C11        -0.3129  -19.0322  -51.4181 C.ar      23 UNK        -0.0193 
     12 C12         0.9855  -19.2234  -50.9360 C.ar      23 UNK        -0.1150 
     13 C13         1.4136  -18.5856  -49.7695 C.ar      23 UNK        -0.0193 
     14 C14         0.5211  -17.7748  -49.0644 C.ar      23 UNK        -0.1150 
     15 C15         2.8578  -18.7201  -49.3081 C.3       23 UNK        -0.0205 
     16 S16         3.2094  -20.3327  -48.5474 S.3       23 UNK        -0.2404 
     17 C17         2.2475  -20.2173  -47.0028 C.3       23 UNK        -0.0398 
     18 CA          1.4761  -21.5133  -46.6735 C.3       11 UNK         0.1400 
     19 N           0.9938  -21.5041  -45.2933 N.am      11 UNK        -0.5000 
     20 C           0.5253  -22.5762  -44.6429 C.2       10 UNK         0.5000 
     21 O           0.4557  -23.7009  -45.1378 O.2       10 UNK        -0.5000 
     22 CA          0.0171  -22.3446  -43.2097 C.3       10 UNK         0.1400 
     23 CB          1.1920  -22.2357  -42.2264 C.3       10 UNK        -0.1800 
     24 N          -0.8334  -21.1591  -43.0966 N.am      10 UNK        -0.5000 
     25 C          -2.0108  -21.0145  -43.7223 C.2       9 UNK         0.5000 
     26 O          -2.5092  -21.8716  -44.4519 O.2       9 UNK        -0.5000 
     27 CA         -2.7406  -19.6743  -43.5314 C.3       9 UNK         0.1400 
     28 CB         -3.4288  -19.6197  -42.1594 C.3       9 UNK        -0.1800 
     29 N          -1.8597  -18.5177  -43.6865 N.am      9 UNK        -0.5000 
     30 C          -1.1960  -18.2096  -44.8103 C.2       8 UNK         0.5000 
     31 O          -1.2486  -18.8688  -45.8471 O.2       8 UNK        -0.5000 
     32 CA         -0.2716  -16.9850  -44.7467 C.3       8 UNK         0.1400 
     33 CB         -1.0893  -15.6871  -44.6873 C.3       8 UNK        -0.1800 
     34 N           0.6425  -17.0370  -43.6085 N.am      8 UNK        -0.5000 
     35 C           1.5220  -18.0184  -43.3632 C.2       7 UNK         0.5000 
     36 O           1.7038  -18.9851  -44.1017 O.2       7 UNK        -0.5000 
     37 CA          2.2931  -17.9267  -42.0382 C.3       7 UNK         0.1400 
     38 CB          3.4633  -16.9394  -42.1569 C.3       7 UNK        -0.1800 
     39 N           1.4217  -17.5343  -40.9309 N.am      7 UNK        -0.5000 
     40 C           0.4329  -18.2957  -40.4397 C.2       6 UNK         0.5000 
     41 O           0.1653  -19.4257  -40.8492 O.2       6 UNK        -0.5000 
     42 CA         -0.4277  -17.6645  -39.3316 C.3       6 UNK         0.1400 
     43 CB          0.2887  -17.7369  -37.9747 C.3       6 UNK        -0.1800 
     44 N          -0.7789  -16.2744  -39.6258 N.am      6 UNK        -0.5000 
     45 C          -1.5862  -15.8999  -40.6278 C.2       5 UNK         0.5000 
     46 O          -2.1352  -16.6900  -41.3953 O.2       5 UNK        -0.5000 
     47 CA         -1.7891  -14.3868  -40.8257 C.3       5 UNK         0.1400 
     48 CB         -2.9175  -13.8726  -39.9193 C.3       5 UNK        -0.1800 
     49 N          -0.5813  -13.5881  -40.5973 N.am      5 UNK        -0.5000 
     50 C           0.5554  -13.6991  -41.2969 C.2       4 UNK         0.5000 
     51 O           0.7554  -14.5595  -42.1566 O.2       4 UNK        -0.5000 
     52 CA          1.6686  -12.6935  -40.9678 C.3       4 UNK         0.1400 
     53 CB          2.8443  -13.3889  -40.2643 C.3       4 UNK        -0.1800 
     54 N           2.1445  -12.0570  -42.1937 N.am      4 UNK        -0.5000 
     55 C           1.5235  -11.0411  -42.8087 C.2       3 UNK         0.5000 
     56 O           0.5175  -10.4862  -42.3642 O.2       3 UNK        -0.5000 
     57 CA          2.1289  -10.5564  -44.1402 C.3       3 UNK         0.1400 
     58 CB          3.1689   -9.4537  -43.8879 C.3       3 UNK        -0.1800 
     59 N           2.7510  -11.6363  -44.9099 N.am      3 UNK        -0.5000 
     60 C           2.0662  -12.5535  -45.6048 C.2       2 UNK         0.5000 
     61 O           0.8360  -12.5758  -45.6828 O.2       2 UNK        -0.5000 
     62 CA          2.9087  -13.6417  -46.2982 C.3       2 UNK         0.1400 
     63 CB          3.2097  -14.7834  -45.3140 C.3       2 UNK        -0.1800 
     64 N           2.2501  -14.2050  -47.4770 N.am      2 UNK        -0.5000 
     65 C           2.0125  -13.5519  -48.6223 C.2       1 UNK         0.5000 
     66 O           2.3481  -12.3816  -48.8273 O.2       1 UNK        -0.5000 
     67 C           0.3413  -21.8125  -47.6762 C.2       11 UNK         0.5000 
     68 O           0.5295  -22.6433  -48.5643 O.2       11 UNK        -0.5000 
     69 N          -0.8323  -21.1934  -47.4826 N.am      12 UNK        -0.5000 
     70 CA         -2.0368  -21.4471  -48.2734 C.3       12 UNK         0.1400 
     71 CB         -3.1362  -20.4577  -47.8605 C.3       12 UNK        -0.1800 
     72 C          -2.5293  -22.9020  -48.1538 C.2       12 UNK         0.5000 
     73 O          -2.8728  -23.5089  -49.1681 O.2       12 UNK        -0.5000 
     74 N          -2.5147  -23.4490  -46.9292 N.am      13 UNK        -0.5000 
     75 CA         -2.8423  -24.8465  -46.6454 C.3       13 UNK         0.1400 
     76 CB         -2.9350  -25.0637  -45.1278 C.3       13 UNK        -0.1800 
     77 C          -1.8441  -25.8307  -47.2821 C.2       13 UNK         0.5000 
     78 O          -2.2706  -26.8221  -47.8743 O.2       13 UNK        -0.5000 
     79 N          -0.5414  -25.5238  -47.1933 N.am      14 UNK        -0.5000 
     80 CA          0.5396  -26.2905  -47.8210 C.3       14 UNK         0.1400 
     81 CB          1.8967  -25.7600  -47.3353 C.3       14 UNK        -0.1800 
     82 C           0.4709  -26.2843  -49.3611 C.2       14 UNK         0.5000 
     83 O           0.8050  -27.2895  -49.9888 O.2       14 UNK        -0.5000 
     84 N          -0.0002  -25.1704  -49.9371 N.am      15 UNK        -0.5000 
     85 CA         -0.2580  -24.9966  -51.3674 C.3       15 UNK         0.1400 
     86 CB         -0.2644  -23.4957  -51.6878 C.3       15 UNK        -0.1800 
     87 C          -1.5563  -25.6787  -51.8569 C.2       15 UNK         0.5000 
     88 O          -1.8313  -25.6495  -53.0577 O.2       15 UNK        -0.5000 
     89 N          -2.3234  -26.2815  -50.9367 N.am      16 UNK        -0.5000 
     90 CA         -3.5143  -27.1201  -51.1113 C.3       16 UNK         0.1400 
     91 CB         -3.2080  -28.3593  -51.9739 C.3       16 UNK        -0.1800 
     92 C          -4.7712  -26.3871  -51.6133 C.2       16 UNK         0.5000 
     93 O          -5.8352  -26.5528  -51.0151 O.2       16 UNK        -0.5000 
     94 N          -4.6481  -25.6074  -52.6954 N.am      17 UNK        -0.5000 
     95 CA         -5.7529  -24.8519  -53.2953 C.3       17 UNK         0.1400 
     96 CB         -5.3654  -24.3978  -54.7111 C.3       17 UNK        -0.1800 
     97 C          -6.2015  -23.6597  -52.4287 C.2       17 UNK         0.5000 
     98 O          -7.3914  -23.3411  -52.4155 O.2       17 UNK        -0.5000 
     99 N          -5.2437  -23.0673  -51.6996 N.am      18 UNK        -0.5000 
    100 CA        -5.3901  -21.9723  -50.7370 C.3       18 UNK         0.1400 
    101 CB        -6.2047  -22.4537  -49.5152 C.3       18 UNK        -0.1800 
    102 C         -5.9358  -20.6582  -51.3366 C.2       18 UNK         0.5000 
    103 O         -6.0673  -20.5348  -52.5564 O.2       18 UNK        -0.5000 
    104 N         -6.2086  -19.6823  -50.4554 N.am      19 UNK        -0.5000 
    105 CA        -6.7412  -18.3466  -50.7462 C.3       19 UNK         0.1400 
    106 CB        -8.2496  -18.4503  -51.0685 C.3       19 UNK        -0.1800 
    107 C         -5.9106  -17.6123  -51.8225 C.2       19 UNK         0.5000 
    108 O         -4.6945  -17.4966  -51.6669 O.2       19 UNK        -0.5000 
    109 N         -6.5702  -17.1581  -52.8942 N.am      20 UNK        -0.5000 
    110 CA        -5.9358  -16.6438  -54.1074 C.3       20 UNK         0.1400 
    111 CB        -6.7485  -15.4402  -54.6114 C.3       20 UNK        -0.1800 
    112 C         -5.8359  -17.7221  -55.2062 C.2       20 UNK         0.5000 
    113 O         -5.1627  -17.4903  -56.2112 O.2       20 UNK        -0.5000 
    114 N         -6.4991  -18.8746  -55.0188 N.am      21 UNK        -0.5000 
    115 CA        -6.5799  -19.9671  -55.9924 C.3       21 UNK         0.1400 
    116 CB        -7.6494  -20.9784  -55.5514 C.3       21 UNK        -0.1800 
    117 C         -5.2311  -20.6649  -56.2398 C.2       21 UNK         0.5000 
    118 O         -4.9945  -21.1347  -57.3535 O.2       21 UNK        -0.5000 
    119 N         -4.3593  -20.6831  -55.2232 N.am      22 UNK        -0.5000 
    120 CA        -2.9524  -21.0901  -55.3547 C.3       22 UNK         0.1400 
    121 C         -2.0242  -20.0444  -56.0471 C.2       22 UNK         0.5000 
    122 N         -2.4876  -18.8515  -56.4035 N.am      22 UNK        -0.7600 
    123 O         -0.8532  -20.3287  -56.2827 O.2       22 UNK        -0.5000 
    124 C124       -2.3577  -21.6185  -54.0245 C.3       23 UNK        -0.0398 
    125 S125       -2.4108  -20.4587  -52.6155 S.3       23 UNK        -0.2404 
    126 C126       -0.7454  -19.7197  -52.7083 C.3       23 UNK        -0.0205 
    127 H127        3.4873  -14.5091  -53.6402 H         1 UNK         0.0600 
    128 H128        2.4663  -13.0988  -53.3459 H         1 UNK         0.0600 
    129 H129        4.1705  -13.0651  -52.8850 H         1 UNK         0.0600 
    130 H130        1.1373  -13.3402  -51.5742 H         1 UNK         0.3000 
    131 H131        1.5620  -15.4001  -49.6093 H         1 UNK         0.0600 
    132 H132       -0.7192  -14.6926  -50.5162 H         1 UNK         0.0800 
    133 H133       -0.5769  -13.2073  -49.6169 H         1 UNK         0.0800 
    134 H134       -2.1910  -17.1359  -48.0145 H         1 UNK         0.0800 
    135 H135       -2.5385  -16.2910  -49.5042 H         1 UNK         0.0800 
    136 H136       -2.1695  -17.9953  -51.1158 H         1 UNK         0.1150 
    137 H137        1.6746  -19.8573  -51.4762 H         1 UNK         0.1150 
    138 H138        0.8440  -17.2945  -48.1528 H         1 UNK         0.1150 
    139 H139        3.5178  -18.5874  -50.1667 H         1 UNK         0.0800 
    140 H140        3.1168  -17.9256  -48.6063 H         1 UNK         0.0800 
    141 H141        1.5681  -19.3651  -47.0226 H         1 UNK         0.0800 
    142 H142        2.9643  -20.0059  -46.2085 H         1 UNK         0.0800 
    143 H143        2.1870  -22.3395  -46.7445 H         1 UNK         0.0600 
    144 H144        1.0386  -20.6113  -44.8079 H         1 UNK         0.3000 
    145 H145       -0.5822  -23.2126  -42.9272 H         1 UNK         0.0600 
    146 H146        0.8384  -22.1696  -41.1974 H         1 UNK         0.0600 
    147 H147        1.8402  -23.1104  -42.2922 H         1 UNK         0.0600 
    148 H148        1.8041  -21.3554  -42.4260 H         1 UNK         0.0600 
    149 H149       -0.4988  -20.4147  -42.4928 H         1 UNK         0.3000 
    150 H150       -3.5122  -19.6064  -44.3009 H         1 UNK         0.0600 
    151 H151       -4.0918  -20.4744  -42.0190 H         1 UNK         0.0600 
    152 H152       -4.0340  -18.7186  -42.0590 H         1 UNK         0.0600 
    153 H153       -2.7037  -19.6266  -41.3446 H         1 UNK         0.0600 
    154 H154       -1.7716  -17.9060  -42.8798 H         1 UNK         0.3000 
    155 H155        0.3277  -16.9723  -45.6590 H         1 UNK         0.0600 
    156 H156       -1.6152  -15.5832  -43.7407 H         1 UNK         0.0600 
    157 H157       -1.8428  -15.6578  -45.4740 H         1 UNK         0.0600 
    158 H158       -0.4495  -14.8137  -44.8105 H         1 UNK         0.0600 
    159 H159        0.5972  -16.2533  -42.9616 H         1 UNK         0.3000 
    160 H160        2.7008  -18.9151  -41.8158 H         1 UNK         0.0600 
    161 H161        4.1569  -17.2525  -42.9383 H         1 UNK         0.0600 
    162 H162        4.0270  -16.8780  -41.2260 H         1 UNK         0.0600 
    163 H163        3.1199  -15.9368  -42.4109 H         1 UNK         0.0600 
    164 H164        1.5351  -16.5982  -40.5728 H         1 UNK         0.3000 
    165 H165       -1.3525  -18.2413  -39.2596 H         1 UNK         0.0600 
    166 H166       -0.3486  -17.3640  -37.1727 H         1 UNK         0.0600 
    167 H167        0.5514  -18.7664  -37.7275 H         1 UNK         0.0600 
    168 H168        1.2099  -17.1528  -37.9708 H         1 UNK         0.0600 
    169 H169       -0.3683  -15.5605  -39.0425 H         1 UNK         0.3000 
    170 H170       -2.0936  -14.2289  -41.8618 H         1 UNK         0.0600 
    171 H171       -3.8370  -14.4366  -40.0825 H         1 UNK         0.0600 
    172 H172       -2.6601  -13.9630  -38.8632 H         1 UNK         0.0600 
    173 H173       -3.1410  -12.8252  -40.1226 H         1 UNK         0.0600 
    174 H174       -0.6562  -12.8565  -39.9052 H         1 UNK         0.3000 
    175 H175        1.2766  -11.9278  -40.2948 H         1 UNK         0.0600 
    176 H176        2.5140  -13.8943  -39.3559 H         1 UNK         0.0600 
    177 H177        3.3169  -14.1347  -40.9029 H         1 UNK         0.0600 
    178 H178        3.6087  -12.6679  -39.9744 H         1 UNK         0.0600 
    179 H179        2.9347  -12.4869  -42.6493 H         1 UNK         0.3000 
    180 H180        1.3198  -10.1266  -44.7349 H         1 UNK         0.0600 
    181 H181        4.0157   -9.8219  -43.3073 H         1 UNK         0.0600 
    182 H182        2.7294   -8.6220  -43.3356 H         1 UNK         0.0600 
    183 H183        3.5531   -9.0519  -44.8257 H         1 UNK         0.0600 
    184 H184        3.7600  -11.6781  -44.8955 H         1 UNK         0.3000 
    185 H185        3.8531  -13.1990  -46.6215 H         1 UNK         0.0600 
    186 H186        3.7628  -14.4201  -44.4472 H         1 UNK         0.0600 
    187 H187        2.2924  -15.2419  -44.9450 H         1 UNK         0.0600 
    188 H188        3.8129  -15.5634  -45.7789 H         1 UNK         0.0600 
    189 H189        1.8877  -15.1398  -47.3730 H         1 UNK         0.3000 
    190 H190       -0.9144  -20.4914  -46.7510 H         1 UNK         0.3000 
    191 H191       -1.7905  -21.2637  -49.3217 H         1 UNK         0.0600 
    192 H192       -3.3713  -20.5370  -46.7988 H         1 UNK         0.0600 
    193 H193       -4.0572  -20.6294  -48.4124 H         1 UNK         0.0600 
    194 H194       -2.8300  -19.4318  -48.0602 H         1 UNK         0.0600 
    195 H195       -2.2635  -22.8703  -46.1327 H         1 UNK         0.3000 
    196 H196       -3.8254  -25.0498  -47.0753 H         1 UNK         0.0600 
    197 H197       -1.9937  -24.8337  -44.6283 H         1 UNK         0.0600 
    198 H198       -3.1869  -26.0991  -44.8955 H         1 UNK         0.0600 
    199 H199       -3.7085  -24.4343  -44.6875 H         1 UNK         0.0600 
    200 H200       -0.2642  -24.7138  -46.6457 H         1 UNK         0.3000 
    201 H201        0.4441  -27.3272  -47.4921 H         1 UNK         0.0600 
    202 H202        1.9824  -25.8300  -46.2509 H         1 UNK         0.0600 
    203 H203        2.0451  -24.7173  -47.6161 H         1 UNK         0.0600 
    204 H204        2.7177  -26.3357  -47.7645 H         1 UNK         0.0600 
    205 H205       -0.1763  -24.3615  -49.3487 H         1 UNK         0.3000 
    206 H206        0.5678  -25.4508  -51.9185 H         1 UNK         0.0600 
    207 H207       -1.1208  -22.9891  -51.2420 H         1 UNK         0.0600 
    208 H208       -0.3019  -23.3387  -52.7639 H         1 UNK         0.0600 
    209 H209        0.6398  -23.0060  -51.3256 H         1 UNK         0.0600 
    210 H210       -2.0302  -26.1862  -49.9720 H         1 UNK         0.3000 
    211 H211       -3.7532  -27.4822  -50.1102 H         1 UNK         0.0600 
    212 H212       -2.9624  -28.0928  -53.0021 H         1 UNK         0.0600 
    213 H213       -4.0676  -29.0297  -52.0091 H         1 UNK         0.0600 
    214 H214       -2.3711  -28.9255  -51.5650 H         1 UNK         0.0600 
    215 H215       -3.7269  -25.5285  -53.1180 H         1 UNK         0.3000 
    216 H216       -6.6088  -25.5240  -53.3878 H         1 UNK         0.0600 
    217 H217       -6.1736  -23.8303  -55.1743 H         1 UNK         0.0600 
    218 H218       -5.1588  -25.2527  -55.3549 H         1 UNK         0.0600 
    219 H219       -4.4820  -23.7628  -54.7082 H         1 UNK         0.0600 
    220 H220       -4.3070  -23.4323  -51.7864 H         1 UNK         0.3000 
    221 H221       -4.3770  -21.7444  -50.4100 H         1 UNK         0.0600 
    222 H222       -7.2520  -22.6193  -49.7697 H         1 UNK         0.0600 
    223 H223       -5.8052  -23.3906  -49.1258 H         1 UNK         0.0600 
    224 H224       -6.1778  -21.7354  -48.6963 H         1 UNK         0.0600 
    225 H225       -6.0293  -19.8633  -49.4793 H         1 UNK         0.3000 
    226 H226       -6.6356  -17.7618  -49.8314 H         1 UNK         0.0600 
    227 H227       -8.7859  -18.9360  -50.2531 H         1 UNK         0.0600 
    228 H228       -8.6991  -17.4650  -51.1981 H         1 UNK         0.0600 
    229 H229       -8.4376  -19.0312  -51.9725 H         1 UNK         0.0600 
    230 H230       -7.5727  -17.2745  -52.9274 H         1 UNK         0.3000 
    231 H231       -4.9214  -16.3024  -53.8909 H         1 UNK         0.0600 
    232 H232       -6.2935  -15.0057  -55.5026 H         1 UNK         0.0600 
    233 H233       -6.7964  -14.6544  -53.8573 H         1 UNK         0.0600 
    234 H234       -7.7703  -15.7221  -54.8684 H         1 UNK         0.0600 
    235 H235       -6.9191  -19.0529  -54.1171 H         1 UNK         0.3000 
    236 H236       -6.9003  -19.5356  -56.9429 H         1 UNK         0.0600 
    237 H237       -7.7708  -21.7654  -56.2967 H         1 UNK         0.0600 
    238 H238       -7.3885  -21.4613  -54.6099 H         1 UNK         0.0600 
    239 H239       -8.6198  -20.4984  -55.4249 H         1 UNK         0.0600 
    240 H240       -4.6454  -20.3110  -54.3252 H         1 UNK         0.3000 
    241 H241       -2.9391  -21.9446  -56.0341 H         1 UNK         0.0600 
    242 H242       -1.8647  -18.2024  -56.8567 H         1 UNK         0.3800 
    243 H243       -3.4537  -18.5863  -56.2534 H         1 UNK         0.3800 
    244 H244       -2.9000  -22.5098  -53.7131 H         1 UNK         0.0800 
    245 H245       -1.3350  -21.9569  -54.1876 H         1 UNK         0.0800 
    246 H246       -0.7221  -18.9909  -53.5190 H         1 UNK         0.0800 
    247 H247       -0.0264  -20.4981  -52.9673 H         1 UNK         0.0800 
@<TRIPOS>BOND
     1    1    2 1    
     2    1  127 1    
     3    1  128 1    
     4    1  129 1    
     5    2    3 2    
     6    2    4 am   BACKBONE|DICT|INTERRES
     7    4    5 1    
     8    4  130 1    
     9    5    6 1    
    10    5   65 1    
    11    5  131 1    
    12    6    7 1    
    13    6  132 1    
    14    6  133 1    
    15    7    8 1    
    16    8    9 1    
    17    8  134 1    
    18    8  135 1    
    19    9   10 ar   
    20    9   14 ar   
    21   10   11 ar   
    22   10  136 1    
    23   11   12 ar   
    24   11  126 1    
    25   12   13 ar   
    26   12  137 1    
    27   13   14 ar   
    28   13   15 1    
    29   14  138 1    
    30   15   16 1    
    31   15  139 1    
    32   15  140 1    
    33   16   17 1    
    34   17   18 1    
    35   17  141 1    
    36   17  142 1    
    37   18   19 1    
    38   18   67 1    
    39   18  143 1    
    40   19   20 am   BACKBONE|DICT|INTERRES
    41   19  144 1    
    42   20   21 2    
    43   20   22 1    
    44   22   23 1    
    45   22   24 1    
    46   22  145 1    
    47   23  146 1    
    48   23  147 1    
    49   23  148 1    
    50   24   25 am   BACKBONE|DICT|INTERRES
    51   24  149 1    
    52   25   26 2    
    53   25   27 1    
    54   27   28 1    
    55   27   29 1    
    56   27  150 1    
    57   28  151 1    
    58   28  152 1    
    59   28  153 1    
    60   29   30 am   BACKBONE|DICT|INTERRES
    61   29  154 1    
    62   30   31 2    
    63   30   32 1    
    64   32   33 1    
    65   32   34 1    
    66   32  155 1    
    67   33  156 1    
    68   33  157 1    
    69   33  158 1    
    70   34   35 am   BACKBONE|DICT|INTERRES
    71   34  159 1    
    72   35   36 2    
    73   35   37 1    
    74   37   38 1    
    75   37   39 1    
    76   37  160 1    
    77   38  161 1    
    78   38  162 1    
    79   38  163 1    
    80   39   40 am   BACKBONE|DICT|INTERRES
    81   39  164 1    
    82   40   41 2    
    83   40   42 1    
    84   42   43 1    
    85   42   44 1    
    86   42  165 1    
    87   43  166 1    
    88   43  167 1    
    89   43  168 1    
    90   44   45 am   BACKBONE|DICT|INTERRES
    91   44  169 1    
    92   45   46 2    
    93   45   47 1    
    94   47   48 1    
    95   47   49 1    
    96   47  170 1    
    97   48  171 1    
    98   48  172 1    
    99   48  173 1    
   100   49   50 am   BACKBONE|DICT|INTERRES
   101   49  174 1    
   102   50   51 2    
   103   50   52 1    
   104   52   53 1    
   105   52   54 1    
   106   52  175 1    
   107   53  176 1    
   108   53  177 1    
   109   53  178 1    
   110   54   55 am   BACKBONE|DICT|INTERRES
   111   54  179 1    
   112   55   56 2    
   113   55   57 1    
   114   57   58 1    
   115   57   59 1    
   116   57  180 1    
   117   58  181 1    
   118   58  182 1    
   119   58  183 1    
   120   59   60 am   BACKBONE|DICT|INTERRES
   121   59  184 1    
   122   60   61 2    
   123   60   62 1    
   124   62   63 1    
   125   62   64 1    
   126   62  185 1    
   127   63  186 1    
   128   63  187 1    
   129   63  188 1    
   130   64   65 am   BACKBONE|DICT|INTERRES
   131   64  189 1    
   132   65   66 2    
   133   67   68 2    
   134   67   69 am   BACKBONE|DICT|INTERRES
   135   69   70 1    
   136   69  190 1    
   137   70   71 1    
   138   70   72 1    
   139   70  191 1    
   140   71  192 1    
   141   71  193 1    
   142   71  194 1    
   143   72   73 2    
   144   72   74 am   BACKBONE|DICT|INTERRES
   145   74   75 1    
   146   74  195 1    
   147   75   76 1    
   148   75   77 1    
   149   75  196 1    
   150   76  197 1    
   151   76  198 1    
   152   76  199 1    
   153   77   78 2    
   154   77   79 am   BACKBONE|DICT|INTERRES
   155   79   80 1    
   156   79  200 1    
   157   80   81 1    
   158   80   82 1    
   159   80  201 1    
   160   81  202 1    
   161   81  203 1    
   162   81  204 1    
   163   82   83 2    
   164   82   84 am   BACKBONE|DICT|INTERRES
   165   84   85 1    
   166   84  205 1    
   167   85   86 1    
   168   85   87 1    
   169   85  206 1    
   170   86  207 1    
   171   86  208 1    
   172   86  209 1    
   173   87   88 2    
   174   87   89 am   BACKBONE|DICT|INTERRES
   175   89   90 1    
   176   89  210 1    
   177   90   91 1    
   178   90   92 1    
   179   90  211 1    
   180   91  212 1    
   181   91  213 1    
   182   91  214 1    
   183   92   93 2    
   184   92   94 am   BACKBONE|DICT|INTERRES
   185   94   95 1    
   186   94  215 1    
   187   95   96 1    
   188   95   97 1    
   189   95  216 1    
   190   96  217 1    
   191   96  218 1    
   192   96  219 1    
   193   97   98 2    
   194   97   99 am   BACKBONE|DICT|INTERRES
   195   99  100 1    
   196   99  220 1    
   197  100  101 1    
   198  100  102 1    
   199  100  221 1    
   200  101  222 1    
   201  101  223 1    
   202  101  224 1    
   203  102  103 2    
   204  102  104 am   BACKBONE|DICT|INTERRES
   205  104  105 1    
   206  104  225 1    
   207  105  106 1    
   208  105  107 1    
   209  105  226 1    
   210  106  227 1    
   211  106  228 1    
   212  106  229 1    
   213  107  108 2    
   214  107  109 am   BACKBONE|DICT|INTERRES
   215  109  110 1    
   216  109  230 1    
   217  110  111 1    
   218  110  112 1    
   219  110  231 1    
   220  111  232 1    
   221  111  233 1    
   222  111  234 1    
   223  112  113 2    
   224  112  114 am   BACKBONE|DICT|INTERRES
   225  114  115 1    
   226  114  235 1    
   227  115  116 1    
   228  115  117 1    
   229  115  236 1    
   230  116  237 1    
   231  116  238 1    
   232  116  239 1    
   233  117  118 2    
   234  117  119 am   BACKBONE|DICT|INTERRES
   235  119  120 1    
   236  119  240 1    
   237  120  121 1    
   238  120  124 1    
   239  120  241 1    
   240  121  122 am   BACKBONE|DICT|INTERRES
   241  121  123 2    
   242  122  242 1    
   243  122  243 1    
   244  124  125 1    
   245  124  244 1    
   246  124  245 1    
   247  125  126 1    
   248  126  246 1    
   249  126  247 1    
@<TRIPOS>SUBSTRUCTURE
     1 UNK         1 GROUP             0       ****    0 ROOT    
