@<TRIPOS>MOLECULE
3R540
247   249    1
SMALL
USER_CHARGES


@<TRIPOS>ATOM
      1 CA          5.1341  -13.0614  -51.5014 C.3       0 UNK        -0.1800 
      2 C           4.2818  -12.3893  -50.4341 C.2       0 UNK         0.5000 
      3 O           4.1355  -11.1672  -50.4520 O.2       0 UNK        -0.5000 
      4 N           3.7278  -13.1860  -49.5089 N.am      1 UNK        -0.5000 
      5 CA          2.8586  -12.7656  -48.3981 C.3       1 UNK         0.1400 
      6 C6          1.4910  -12.1791  -48.8498 C.3       23 UNK        -0.0398 
      7 S7          0.5641  -13.3282  -49.9225 S.3       23 UNK        -0.2404 
      8 C8         -0.5799  -14.0874  -48.7302 C.3       23 UNK        -0.0205 
      9 C9         -1.0588  -15.4388  -49.2326 C.ar      23 UNK        -0.0193 
     10 C10        -2.2857  -15.5601  -49.8892 C.ar      23 UNK        -0.1150 
     11 C11        -2.7181  -16.8044  -50.3564 C.ar      23 UNK        -0.0193 
     12 C12        -1.9171  -17.9306  -50.1504 C.ar      23 UNK        -0.1150 
     13 C13        -0.6687  -17.8215  -49.5234 C.ar      23 UNK        -0.0193 
     14 C14        -0.2589  -16.5704  -49.0542 C.ar      23 UNK        -0.1150 
     15 C15         0.2745  -19.0097  -49.3274 C.3       23 UNK        -0.0205 
     16 S16        -0.0724  -20.4734  -50.3568 S.3       23 UNK        -0.2404 
     17 C17        -1.4003  -21.2865  -49.4057 C.3       23 UNK        -0.0398 
     18 CA         -0.8603  -22.5203  -48.6516 C.3       11 UNK         0.1400 
     19 N           0.0174  -22.1529  -47.5402 N.am      11 UNK        -0.5000 
     20 C           0.9262  -22.9671  -46.9901 C.2       10 UNK         0.5000 
     21 O           1.1398  -24.1153  -47.3783 O.2       10 UNK        -0.5000 
     22 CA          1.6956  -22.4102  -45.7789 C.3       10 UNK         0.1400 
     23 CB          2.8984  -21.5740  -46.2405 C.3       10 UNK        -0.1800 
     24 N           0.8389  -21.5970  -44.9134 N.am      10 UNK        -0.5000 
     25 C          -0.1371  -22.1016  -44.1426 C.2       9 UNK         0.5000 
     26 O          -0.3664  -23.3070  -44.0416 O.2       9 UNK        -0.5000 
     27 CA         -1.0335  -21.0977  -43.3885 C.3       9 UNK         0.1400 
     28 CB         -0.4757  -20.8315  -41.9830 C.3       9 UNK        -0.1800 
     29 N          -1.2036  -19.8212  -44.0849 N.am      9 UNK        -0.5000 
     30 C          -1.7427  -19.6703  -45.3040 C.2       8 UNK         0.5000 
     31 O          -2.1978  -20.6024  -45.9643 O.2       8 UNK        -0.5000 
     32 CA         -1.7179  -18.2610  -45.9236 C.3       8 UNK         0.1400 
     33 CB         -3.0968  -17.5969  -45.8182 C.3       8 UNK        -0.1800 
     34 N          -0.6967  -17.3774  -45.3541 N.am      8 UNK        -0.5000 
     35 C           0.6278  -17.5967  -45.3978 C.2       7 UNK         0.5000 
     36 O           1.1347  -18.5869  -45.9254 O.2       7 UNK        -0.5000 
     37 CA          1.5392  -16.5670  -44.7026 C.3       7 UNK         0.1400 
     38 CB          2.1520  -15.6120  -45.7363 C.3       7 UNK        -0.1800 
     39 N           0.8466  -15.7946  -43.6674 N.am      7 UNK        -0.5000 
     40 C           0.4234  -16.3118  -42.5024 C.2       6 UNK         0.5000 
     41 O           0.6103  -17.4845  -42.1768 O.2       6 UNK        -0.5000 
     42 CA         -0.3725  -15.3913  -41.5565 C.3       6 UNK         0.1400 
     43 CB          0.5081  -14.9087  -40.3950 C.3       6 UNK        -0.1800 
     44 N          -0.9692  -14.2384  -42.2354 N.am      6 UNK        -0.5000 
     45 C          -2.0040  -14.3245  -43.0851 C.2       5 UNK         0.5000 
     46 O          -2.5586  -15.3863  -43.3653 O.2       5 UNK        -0.5000 
     47 CA         -2.4883  -13.0264  -43.7608 C.3       5 UNK         0.1400 
     48 CB         -3.7094  -12.4604  -43.0208 C.3       5 UNK        -0.1800 
     49 N          -1.4652  -11.9834  -43.8583 N.am      5 UNK        -0.5000 
     50 C          -0.3274  -12.0840  -44.5571 C.2       4 UNK         0.5000 
     51 O          -0.0095  -13.0901  -45.1944 O.2       4 UNK        -0.5000 
     52 CA          0.6352  -10.8798  -44.5287 C.3       4 UNK         0.1400 
     53 CB          0.1854   -9.7136  -43.6190 C.3       4 UNK        -0.1800 
     54 N           1.9951  -11.3072  -44.1942 N.am      4 UNK        -0.5000 
     55 C           2.3991  -11.9204  -43.0703 C.2       3 UNK         0.5000 
     56 O           1.6499  -12.1457  -42.1190 O.2       3 UNK        -0.5000 
     57 CA          3.8714  -12.3826  -42.9979 C.3       3 UNK         0.1400 
     58 CB          3.9882  -13.8087  -42.4313 C.3       3 UNK        -0.1800 
     59 N           4.5321  -12.3409  -44.3052 N.am      3 UNK        -0.5000 
     60 C           5.2734  -11.3244  -44.7647 C.2       2 UNK         0.5000 
     61 O           5.5458  -10.3204  -44.1063 O.2       2 UNK        -0.5000 
     62 CA          5.7642  -11.4340  -46.2227 C.3       2 UNK         0.1400 
     63 CB          7.1644  -12.0636  -46.2733 C.3       2 UNK        -0.1800 
     64 N           4.8660  -12.1934  -47.1013 N.am      2 UNK        -0.5000 
     65 C           3.6037  -11.8493  -47.4005 C.2       1 UNK         0.5000 
     66 O           3.0415  -10.8655  -46.9175 O.2       1 UNK        -0.5000 
     67 C          -2.0001  -23.4403  -48.1810 C.2       11 UNK         0.5000 
     68 O          -2.3665  -24.3512  -48.9199 O.2       11 UNK        -0.5000 
     69 N          -2.5028  -23.2325  -46.9546 N.am      12 UNK        -0.5000 
     70 CA         -3.5128  -24.0695  -46.2967 C.3       12 UNK         0.1400 
     71 CB         -3.8986  -23.4399  -44.9505 C.3       12 UNK        -0.1800 
     72 C          -3.0652  -25.5313  -46.0956 C.2       12 UNK         0.5000 
     73 O          -3.9041  -26.4324  -46.0948 O.2       12 UNK        -0.5000 
     74 N          -1.7509  -25.7416  -45.9418 N.am      13 UNK        -0.5000 
     75 CA         -1.1281  -27.0621  -45.8770 C.3       13 UNK         0.1400 
     76 CB          0.2499  -26.9309  -45.2107 C.3       13 UNK        -0.1800 
     77 C          -1.0009  -27.7298  -47.2614 C.2       13 UNK         0.5000 
     78 O          -0.9821  -28.9592  -47.3338 O.2       13 UNK        -0.5000 
     79 N          -0.9065  -26.9237  -48.3284 N.am      14 UNK        -0.5000 
     80 CA         -0.7874  -27.3866  -49.7112 C.3       14 UNK         0.1400 
     81 CB         -0.0584  -26.3234  -50.5484 C.3       14 UNK        -0.1800 
     82 C          -2.1566  -27.7302  -50.3236 C.2       14 UNK         0.5000 
     83 O          -2.2756  -28.7512  -51.0024 O.2       14 UNK        -0.5000 
     84 N          -3.1645  -26.8910  -50.0611 N.am      15 UNK        -0.5000 
     85 CA         -4.5519  -27.0828  -50.4678 C.3       15 UNK         0.1400 
     86 CB         -4.8157  -26.3297  -51.7831 C.3       15 UNK        -0.1800 
     87 C          -5.4438  -26.5477  -49.3447 C.2       15 UNK         0.5000 
     88 O          -5.2193  -25.4268  -48.8920 O.2       15 UNK        -0.5000 
     89 N          -6.4511  -27.3266  -48.9291 N.am      16 UNK        -0.5000 
     90 CA         -7.3076  -27.0517  -47.7656 C.3       16 UNK         0.1400 
     91 CB         -8.2800  -28.2260  -47.5755 C.3       16 UNK        -0.1800 
     92 C          -8.0817  -25.7167  -47.8117 C.2       16 UNK         0.5000 
     93 O          -8.4007  -25.1647  -46.7583 O.2       16 UNK        -0.5000 
     94 N          -8.3514  -25.2132  -49.0234 N.am      17 UNK        -0.5000 
     95 CA         -8.9712  -23.9092  -49.2706 C.3       17 UNK         0.1400 
     96 CB         -9.5548  -23.9125  -50.6934 C.3       17 UNK        -0.1800 
     97 C          -8.0015  -22.7196  -49.0951 C.2       17 UNK         0.5000 
     98 O          -8.4568  -21.5759  -49.0924 O.2       17 UNK        -0.5000 
     99 N          -6.6918  -23.0007  -49.0001 N.am      18 UNK        -0.5000 
    100 CA        -5.5619  -22.0647  -48.9468 C.3       18 UNK         0.1400 
    101 CB        -5.6310  -21.1546  -47.7042 C.3       18 UNK        -0.1800 
    102 C         -5.3369  -21.2754  -50.2521 C.2       18 UNK         0.5000 
    103 O         -4.5643  -20.3194  -50.2592 O.2       18 UNK        -0.5000 
    104 N         -5.9710  -21.7149  -51.3457 N.am      19 UNK        -0.5000 
    105 CA        -5.9347  -21.0950  -52.6700 C.3       19 UNK         0.1400 
    106 CB        -7.3312  -21.2313  -53.3034 C.3       19 UNK        -0.1800 
    107 C         -4.8285  -21.6934  -53.5644 C.2       19 UNK         0.5000 
    108 O         -4.9996  -21.7736  -54.7829 O.2       19 UNK        -0.5000 
    109 N         -3.7157  -22.1256  -52.9560 N.am      20 UNK        -0.5000 
    110 CA        -2.5587  -22.7231  -53.6238 C.3       20 UNK         0.1400 
    111 CB        -1.7520  -23.5418  -52.5998 C.3       20 UNK        -0.1800 
    112 C         -1.7104  -21.6493  -54.3364 C.2       20 UNK         0.5000 
    113 O         -0.6296  -21.2927  -53.8662 O.2       20 UNK        -0.5000 
    114 N         -2.2512  -21.1235  -55.4428 N.am      21 UNK        -0.5000 
    115 CA        -1.7227  -20.0939  -56.3484 C.3       21 UNK         0.1400 
    116 CB        -0.3609  -20.5033  -56.9420 C.3       21 UNK        -0.1800 
    117 C         -1.6686  -18.6710  -55.7565 C.2       21 UNK         0.5000 
    118 O         -1.9626  -17.7184  -56.4797 O.2       21 UNK        -0.5000 
    119 N         -1.3149  -18.5464  -54.4713 N.am      22 UNK        -0.5000 
    120 CA        -1.2375  -17.2891  -53.7016 C.3       22 UNK         0.1400 
    121 C         -0.1138  -16.3127  -54.1704 C.2       22 UNK         0.5000 
    122 N          0.9178  -16.7827  -54.8621 N.am      22 UNK        -0.7600 
    123 O         -0.1573  -15.1177  -53.8915 O.2       22 UNK        -0.5000 
    124 C124       -2.6183  -16.5852  -53.5396 C.3       23 UNK        -0.0398 
    125 S125       -3.8708  -17.6650  -52.7604 S.3       23 UNK        -0.2404 
    126 C126       -4.0443  -16.9290  -51.0973 C.3       23 UNK        -0.0205 
    127 H127        4.7234  -12.8594  -52.4907 H         1 UNK         0.0600 
    128 H128        5.1771  -14.1424  -51.3661 H         1 UNK         0.0600 
    129 H129        6.1522  -12.6736  -51.4677 H         1 UNK         0.0600 
    130 H130        3.8877  -14.1815  -49.5727 H         1 UNK         0.3000 
    131 H131        2.6416  -13.6752  -47.8383 H         1 UNK         0.0600 
    132 H132        0.8721  -11.9310  -47.9854 H         1 UNK         0.0800 
    133 H133        1.6350  -11.2446  -49.3940 H         1 UNK         0.0800 
    134 H134       -0.0893  -14.2132  -47.7659 H         1 UNK         0.0800 
    135 H135       -1.4231  -13.4167  -48.5584 H         1 UNK         0.0800 
    136 H136       -2.8980  -14.6829  -50.0440 H         1 UNK         0.1150 
    137 H137       -2.2712  -18.8814  -50.5192 H         1 UNK         0.1150 
    138 H138        0.6972  -16.4718  -48.5593 H         1 UNK         0.1150 
    139 H139        1.2914  -18.6879  -49.5565 H         1 UNK         0.0800 
    140 H140        0.2801  -19.3023  -48.2790 H         1 UNK         0.0800 
    141 H141       -2.1711  -21.5762  -50.1198 H         1 UNK         0.0800 
    142 H142       -1.8753  -20.5808  -48.7221 H         1 UNK         0.0800 
    143 H143       -0.2726  -23.1076  -49.3614 H         1 UNK         0.0600 
    144 H144       -0.1275  -21.2431  -47.1289 H         1 UNK         0.3000 
    145 H145        2.0701  -23.2567  -45.1992 H         1 UNK         0.0600 
    146 H146        3.4674  -21.1976  -45.3902 H         1 UNK         0.0600 
    147 H147        2.5893  -20.7183  -46.8422 H         1 UNK         0.0600 
    148 H148        3.5781  -22.1727  -46.8480 H         1 UNK         0.0600 
    149 H149        0.9543  -20.5923  -44.9711 H         1 UNK         0.3000 
    150 H150       -2.0215  -21.5487  -43.2832 H         1 UNK         0.0600 
    151 H151       -0.3710  -21.7606  -41.4212 H         1 UNK         0.0600 
    152 H152       -1.1369  -20.1793  -41.4121 H         1 UNK         0.0600 
    153 H153        0.5066  -20.3589  -42.0238 H         1 UNK         0.0600 
    154 H154       -0.8326  -19.0034  -43.6208 H         1 UNK         0.3000 
    155 H155       -1.4935  -18.3844  -46.9816 H         1 UNK         0.0600 
    156 H156       -3.8554  -18.1958  -46.3241 H         1 UNK         0.0600 
    157 H157       -3.0980  -16.6113  -46.2846 H         1 UNK         0.0600 
    158 H158       -3.4095  -17.4819  -44.7801 H         1 UNK         0.0600 
    159 H159       -1.0347  -16.5563  -44.8707 H         1 UNK         0.3000 
    160 H160        2.3532  -17.1182  -44.2270 H         1 UNK         0.0600 
    161 H161        1.3809  -15.0551  -46.2643 H         1 UNK         0.0600 
    162 H162        2.7272  -16.1616  -46.4826 H         1 UNK         0.0600 
    163 H163        2.8247  -14.8933  -45.2711 H         1 UNK         0.0600 
    164 H164        0.6198  -14.8332  -43.8905 H         1 UNK         0.3000 
    165 H165       -1.1829  -15.9881  -41.1325 H         1 UNK         0.0600 
    166 H166       -0.0540  -14.2774  -39.7068 H         1 UNK         0.0600 
    167 H167        0.8920  -15.7534  -39.8215 H         1 UNK         0.0600 
    168 H168        1.3666  -14.3401  -40.7485 H         1 UNK         0.0600 
    169 H169       -0.5325  -13.3394  -42.0787 H         1 UNK         0.3000 
    170 H170       -2.7942  -13.2863  -44.7765 H         1 UNK         0.0600 
    171 H171       -3.4582  -12.1568  -42.0038 H         1 UNK         0.0600 
    172 H172       -4.1193  -11.5936  -43.5397 H         1 UNK         0.0600 
    173 H173       -4.5055  -13.2034  -42.9545 H         1 UNK         0.0600 
    174 H174       -1.6404  -11.1313  -43.3458 H         1 UNK         0.3000 
    175 H175        0.6734  -10.5024  -45.5512 H         1 UNK         0.0600 
    176 H176        0.0836  -10.0155  -42.5761 H         1 UNK         0.0600 
    177 H177        0.9062   -8.8966  -43.6542 H         1 UNK         0.0600 
    178 H178       -0.7718   -9.3047  -43.9446 H         1 UNK         0.0600 
    179 H179        2.6668  -11.1830  -44.9429 H         1 UNK         0.3000 
    180 H180        4.3812  -11.7093  -42.3060 H         1 UNK         0.0600 
    181 H181        5.0245  -14.1469  -42.4240 H         1 UNK         0.0600 
    182 H182        3.4051  -14.5260  -43.0077 H         1 UNK         0.0600 
    183 H183        3.6327  -13.8496  -41.4015 H         1 UNK         0.0600 
    184 H184        4.3623  -13.1213  -44.9219 H         1 UNK         0.3000 
    185 H185        5.8325  -10.4190  -46.6197 H         1 UNK         0.0600 
    186 H186        7.5620  -12.0614  -47.2884 H         1 UNK         0.0600 
    187 H187        7.8661  -11.5070  -45.6504 H         1 UNK         0.0600 
    188 H188        7.1556  -13.0944  -45.9170 H         1 UNK         0.0600 
    189 H189        5.2608  -13.0050  -47.5542 H         1 UNK         0.3000 
    190 H190       -2.2080  -22.4018  -46.4476 H         1 UNK         0.3000 
    191 H191       -4.4022  -24.0747  -46.9251 H         1 UNK         0.0600 
    192 H192       -4.1952  -22.3975  -45.0658 H         1 UNK         0.0600 
    193 H193       -3.0743  -23.4789  -44.2394 H         1 UNK         0.0600 
    194 H194       -4.7399  -23.9703  -44.5029 H         1 UNK         0.0600 
    195 H195       -1.1341  -24.9417  -45.9049 H         1 UNK         0.3000 
    196 H196       -1.7455  -27.7096  -45.2507 H         1 UNK         0.0600 
    197 H197        0.1674  -26.4908  -44.2166 H         1 UNK         0.0600 
    198 H198        0.9243  -26.3069  -45.7976 H         1 UNK         0.0600 
    199 H199        0.7226  -27.9073  -45.0968 H         1 UNK         0.0600 
    200 H200       -0.9834  -25.9250  -48.1930 H         1 UNK         0.3000 
    201 H201       -0.1779  -28.2928  -49.7281 H         1 UNK         0.0600 
    202 H202        0.9302  -26.1114  -50.1408 H         1 UNK         0.0600 
    203 H203       -0.6104  -25.3853  -50.5861 H         1 UNK         0.0600 
    204 H204        0.0779  -26.6629  -51.5758 H         1 UNK         0.0600 
    205 H205       -2.9920  -26.0565  -49.5023 H         1 UNK         0.3000 
    206 H206       -4.7594  -28.1454  -50.6099 H         1 UNK         0.0600 
    207 H207       -4.6417  -25.2580  -51.6753 H         1 UNK         0.0600 
    208 H208       -4.1697  -26.6936  -52.5821 H         1 UNK         0.0600 
    209 H209       -5.8472  -26.4644  -52.1103 H         1 UNK         0.0600 
    210 H210       -6.5860  -28.2233  -49.3736 H         1 UNK         0.3000 
    211 H211       -6.6547  -27.0072  -46.8913 H         1 UNK         0.0600 
    212 H212       -8.9345  -28.3491  -48.4393 H         1 UNK         0.0600 
    213 H213       -8.9148  -28.0719  -46.7018 H         1 UNK         0.0600 
    214 H214       -7.7436  -29.1627  -47.4225 H         1 UNK         0.0600 
    215 H215       -8.0587  -25.7401  -49.8329 H         1 UNK         0.3000 
    216 H216       -9.7920  -23.7695  -48.5640 H         1 UNK         0.0600 
    217 H217      -10.0581  -22.9701  -50.9140 H         1 UNK         0.0600 
    218 H218      -10.2913  -24.7069  -50.8154 H         1 UNK         0.0600 
    219 H219       -8.7797  -24.0542  -51.4475 H         1 UNK         0.0600 
    220 H220       -6.4107  -23.9786  -48.9916 H         1 UNK         0.3000 
    221 H221       -4.6797  -22.6924  -48.8420 H         1 UNK         0.0600 
    222 H222       -6.4190  -20.4066  -47.7926 H         1 UNK         0.0600 
    223 H223       -5.8177  -21.7343  -46.8009 H         1 UNK         0.0600 
    224 H224       -4.6900  -20.6222  -47.5585 H         1 UNK         0.0600 
    225 H225       -6.5485  -22.5366  -51.2535 H         1 UNK         0.3000 
    226 H226       -5.7208  -20.0300  -52.5658 H         1 UNK         0.0600 
    227 H227       -8.0991  -20.8030  -52.6586 H         1 UNK         0.0600 
    228 H228       -7.3840  -20.7062  -54.2580 H         1 UNK         0.0600 
    229 H229       -7.5905  -22.2749  -53.4855 H         1 UNK         0.0600 
    230 H230       -3.6377  -21.9758  -51.9616 H         1 UNK         0.3000 
    231 H231       -2.9177  -23.4198  -54.3844 H         1 UNK         0.0600 
    232 H232       -0.9321  -24.0703  -53.0873 H         1 UNK         0.0600 
    233 H233       -2.3738  -24.2908  -52.1092 H         1 UNK         0.0600 
    234 H234       -1.3143  -22.9125  -51.8270 H         1 UNK         0.0600 
    235 H235       -3.1988  -21.4229  -55.6519 H         1 UNK         0.3000 
    236 H236       -2.4335  -20.0524  -57.1753 H         1 UNK         0.0600 
    237 H237        0.4215  -20.5440  -56.1840 H         1 UNK         0.0600 
    238 H238       -0.4170  -21.4812  -57.4201 H         1 UNK         0.0600 
    239 H239       -0.0390  -19.7889  -57.7007 H         1 UNK         0.0600 
    240 H240       -1.0542  -19.3938  -53.9763 H         1 UNK         0.3000 
    241 H241       -0.9151  -17.5908  -52.7058 H         1 UNK         0.0600 
    242 H242        0.9762  -17.7615  -55.0929 H         1 UNK         0.3800 
    243 H243        1.6450  -16.1513  -55.1590 H         1 UNK         0.3800 
    244 H244       -2.9989  -16.2596  -54.5080 H         1 UNK         0.0800 
    245 H245       -2.5208  -15.6776  -52.9423 H         1 UNK         0.0800 
    246 H246       -4.5270  -15.9556  -51.1948 H         1 UNK         0.0800 
    247 H247       -4.7193  -17.5503  -50.5072 H         1 UNK         0.0800 
@<TRIPOS>BOND
     1    1    2 1    
     2    1  127 1    
     3    1  128 1    
     4    1  129 1    
     5    2    3 2    
     6    2    4 am   BACKBONE|DICT|INTERRES
     7    4    5 1    
     8    4  130 1    
     9    5    6 1    
    10    5   65 1    
    11    5  131 1    
    12    6    7 1    
    13    6  132 1    
    14    6  133 1    
    15    7    8 1    
    16    8    9 1    
    17    8  134 1    
    18    8  135 1    
    19    9   10 ar   
    20    9   14 ar   
    21   10   11 ar   
    22   10  136 1    
    23   11   12 ar   
    24   11  126 1    
    25   12   13 ar   
    26   12  137 1    
    27   13   14 ar   
    28   13   15 1    
    29   14  138 1    
    30   15   16 1    
    31   15  139 1    
    32   15  140 1    
    33   16   17 1    
    34   17   18 1    
    35   17  141 1    
    36   17  142 1    
    37   18   19 1    
    38   18   67 1    
    39   18  143 1    
    40   19   20 am   BACKBONE|DICT|INTERRES
    41   19  144 1    
    42   20   21 2    
    43   20   22 1    
    44   22   23 1    
    45   22   24 1    
    46   22  145 1    
    47   23  146 1    
    48   23  147 1    
    49   23  148 1    
    50   24   25 am   BACKBONE|DICT|INTERRES
    51   24  149 1    
    52   25   26 2    
    53   25   27 1    
    54   27   28 1    
    55   27   29 1    
    56   27  150 1    
    57   28  151 1    
    58   28  152 1    
    59   28  153 1    
    60   29   30 am   BACKBONE|DICT|INTERRES
    61   29  154 1    
    62   30   31 2    
    63   30   32 1    
    64   32   33 1    
    65   32   34 1    
    66   32  155 1    
    67   33  156 1    
    68   33  157 1    
    69   33  158 1    
    70   34   35 am   BACKBONE|DICT|INTERRES
    71   34  159 1    
    72   35   36 2    
    73   35   37 1    
    74   37   38 1    
    75   37   39 1    
    76   37  160 1    
    77   38  161 1    
    78   38  162 1    
    79   38  163 1    
    80   39   40 am   BACKBONE|DICT|INTERRES
    81   39  164 1    
    82   40   41 2    
    83   40   42 1    
    84   42   43 1    
    85   42   44 1    
    86   42  165 1    
    87   43  166 1    
    88   43  167 1    
    89   43  168 1    
    90   44   45 am   BACKBONE|DICT|INTERRES
    91   44  169 1    
    92   45   46 2    
    93   45   47 1    
    94   47   48 1    
    95   47   49 1    
    96   47  170 1    
    97   48  171 1    
    98   48  172 1    
    99   48  173 1    
   100   49   50 am   BACKBONE|DICT|INTERRES
   101   49  174 1    
   102   50   51 2    
   103   50   52 1    
   104   52   53 1    
   105   52   54 1    
   106   52  175 1    
   107   53  176 1    
   108   53  177 1    
   109   53  178 1    
   110   54   55 am   BACKBONE|DICT|INTERRES
   111   54  179 1    
   112   55   56 2    
   113   55   57 1    
   114   57   58 1    
   115   57   59 1    
   116   57  180 1    
   117   58  181 1    
   118   58  182 1    
   119   58  183 1    
   120   59   60 am   BACKBONE|DICT|INTERRES
   121   59  184 1    
   122   60   61 2    
   123   60   62 1    
   124   62   63 1    
   125   62   64 1    
   126   62  185 1    
   127   63  186 1    
   128   63  187 1    
   129   63  188 1    
   130   64   65 am   BACKBONE|DICT|INTERRES
   131   64  189 1    
   132   65   66 2    
   133   67   68 2    
   134   67   69 am   BACKBONE|DICT|INTERRES
   135   69   70 1    
   136   69  190 1    
   137   70   71 1    
   138   70   72 1    
   139   70  191 1    
   140   71  192 1    
   141   71  193 1    
   142   71  194 1    
   143   72   73 2    
   144   72   74 am   BACKBONE|DICT|INTERRES
   145   74   75 1    
   146   74  195 1    
   147   75   76 1    
   148   75   77 1    
   149   75  196 1    
   150   76  197 1    
   151   76  198 1    
   152   76  199 1    
   153   77   78 2    
   154   77   79 am   BACKBONE|DICT|INTERRES
   155   79   80 1    
   156   79  200 1    
   157   80   81 1    
   158   80   82 1    
   159   80  201 1    
   160   81  202 1    
   161   81  203 1    
   162   81  204 1    
   163   82   83 2    
   164   82   84 am   BACKBONE|DICT|INTERRES
   165   84   85 1    
   166   84  205 1    
   167   85   86 1    
   168   85   87 1    
   169   85  206 1    
   170   86  207 1    
   171   86  208 1    
   172   86  209 1    
   173   87   88 2    
   174   87   89 am   BACKBONE|DICT|INTERRES
   175   89   90 1    
   176   89  210 1    
   177   90   91 1    
   178   90   92 1    
   179   90  211 1    
   180   91  212 1    
   181   91  213 1    
   182   91  214 1    
   183   92   93 2    
   184   92   94 am   BACKBONE|DICT|INTERRES
   185   94   95 1    
   186   94  215 1    
   187   95   96 1    
   188   95   97 1    
   189   95  216 1    
   190   96  217 1    
   191   96  218 1    
   192   96  219 1    
   193   97   98 2    
   194   97   99 am   BACKBONE|DICT|INTERRES
   195   99  100 1    
   196   99  220 1    
   197  100  101 1    
   198  100  102 1    
   199  100  221 1    
   200  101  222 1    
   201  101  223 1    
   202  101  224 1    
   203  102  103 2    
   204  102  104 am   BACKBONE|DICT|INTERRES
   205  104  105 1    
   206  104  225 1    
   207  105  106 1    
   208  105  107 1    
   209  105  226 1    
   210  106  227 1    
   211  106  228 1    
   212  106  229 1    
   213  107  108 2    
   214  107  109 am   BACKBONE|DICT|INTERRES
   215  109  110 1    
   216  109  230 1    
   217  110  111 1    
   218  110  112 1    
   219  110  231 1    
   220  111  232 1    
   221  111  233 1    
   222  111  234 1    
   223  112  113 2    
   224  112  114 am   BACKBONE|DICT|INTERRES
   225  114  115 1    
   226  114  235 1    
   227  115  116 1    
   228  115  117 1    
   229  115  236 1    
   230  116  237 1    
   231  116  238 1    
   232  116  239 1    
   233  117  118 2    
   234  117  119 am   BACKBONE|DICT|INTERRES
   235  119  120 1    
   236  119  240 1    
   237  120  121 1    
   238  120  124 1    
   239  120  241 1    
   240  121  122 am   BACKBONE|DICT|INTERRES
   241  121  123 2    
   242  122  242 1    
   243  122  243 1    
   244  124  125 1    
   245  124  244 1    
   246  124  245 1    
   247  125  126 1    
   248  126  246 1    
   249  126  247 1    
@<TRIPOS>SUBSTRUCTURE
     1 UNK         1 GROUP             0       ****    0 ROOT    
