@<TRIPOS>MOLECULE
3R540
247   249    1
SMALL
USER_CHARGES


@<TRIPOS>ATOM
      1 CA          0.2373  -15.8749  -47.5305 C.3       0 UNK        -0.1800 
      2 C          -0.7689  -15.0765  -46.7158 C.2       0 UNK         0.5000 
      3 O          -0.5174  -13.9143  -46.3963 O.2       0 UNK        -0.5000 
      4 N          -1.9082  -15.6958  -46.3863 N.am      1 UNK        -0.5000 
      5 CA         -2.9935  -15.1209  -45.5837 C.3       1 UNK         0.1400 
      6 C6         -4.0375  -16.1931  -45.1802 C.3       23 UNK        -0.0398 
      7 S7         -3.6079  -17.1422  -43.6753 S.3       23 UNK        -0.2404 
      8 C8         -2.0764  -18.0508  -44.0936 C.3       23 UNK        -0.0205 
      9 C9         -2.1145  -18.8382  -45.3999 C.ar      23 UNK        -0.0193 
     10 C10        -3.2889  -19.4354  -45.8698 C.ar      23 UNK        -0.1150 
     11 C11        -3.3063  -20.0980  -47.0981 C.ar      23 UNK        -0.0193 
     12 C12        -2.1252  -20.2076  -47.8345 C.ar      23 UNK        -0.1150 
     13 C13        -0.9412  -19.6233  -47.3794 C.ar      23 UNK        -0.0193 
     14 C14        -0.9435  -18.9523  -46.1544 C.ar      23 UNK        -0.1150 
     15 C15         0.3200  -19.6429  -48.2356 C.3       23 UNK        -0.0205 
     16 S16         1.0017  -21.3066  -48.5143 S.3       23 UNK        -0.2404 
     17 C17         1.4234  -21.8255  -46.8189 C.3       23 UNK        -0.0398 
     18 CA          0.9172  -23.2397  -46.4680 C.3       11 UNK         0.1400 
     19 N           1.4330  -23.6720  -45.1709 N.am      11 UNK        -0.5000 
     20 C           1.6211  -24.9481  -44.8132 C.2       10 UNK         0.5000 
     21 O           1.4379  -25.9052  -45.5655 O.2       10 UNK        -0.5000 
     22 CA          2.0633  -25.1935  -43.3574 C.3       10 UNK         0.1400 
     23 CB          3.5946  -25.1517  -43.2454 C.3       10 UNK        -0.1800 
     24 N           1.4845  -24.2347  -42.4117 N.am      10 UNK        -0.5000 
     25 C           0.1767  -24.1490  -42.1337 C.2       9 UNK         0.5000 
     26 O          -0.6758  -24.8788  -42.6394 O.2       9 UNK        -0.5000 
     27 CA         -0.2623  -23.0443  -41.1547 C.3       9 UNK         0.1400 
     28 CB         -0.1746  -23.5527  -39.7079 C.3       9 UNK        -0.1800 
     29 N           0.4613  -21.7719  -41.2596 N.am      9 UNK        -0.5000 
     30 C           0.6527  -21.0382  -42.3661 C.2       8 UNK         0.5000 
     31 O           0.3792  -21.4312  -43.5021 O.2       8 UNK        -0.5000 
     32 CA          1.2280  -19.6207  -42.1766 C.3       8 UNK         0.1400 
     33 CB          1.7082  -19.3126  -40.7428 C.3       8 UNK        -0.1800 
     34 N           2.3326  -19.3965  -43.1063 N.am      8 UNK        -0.5000 
     35 C           2.4475  -18.3437  -43.9231 C.2       7 UNK         0.5000 
     36 O           1.6057  -17.4450  -44.0196 O.2       7 UNK        -0.5000 
     37 CA          3.7280  -18.2787  -44.7710 C.3       7 UNK         0.1400 
     38 CB          3.8146  -19.4523  -45.7645 C.3       7 UNK        -0.1800 
     39 N           3.7458  -17.0084  -45.4870 N.am      7 UNK        -0.5000 
     40 C           4.7932  -16.4601  -46.1108 C.2       6 UNK         0.5000 
     41 O           5.9120  -16.9734  -46.1537 O.2       6 UNK        -0.5000 
     42 CA          4.5541  -15.1097  -46.8124 C.3       6 UNK         0.1400 
     43 CB          4.2272  -15.3294  -48.2981 C.3       6 UNK        -0.1800 
     44 N           3.4834  -14.3123  -46.2118 N.am      6 UNK        -0.5000 
     45 C           3.5540  -13.6898  -45.0265 C.2       5 UNK         0.5000 
     46 O           4.5204  -13.7796  -44.2673 O.2       5 UNK        -0.5000 
     47 CA          2.3402  -12.8134  -44.6433 C.3       5 UNK         0.1400 
     48 CB          2.6853  -11.7183  -43.6131 C.3       5 UNK        -0.1800 
     49 N           1.6561  -12.2395  -45.8092 N.am      5 UNK        -0.5000 
     50 C           2.1605  -11.3948  -46.7231 C.2       4 UNK         0.5000 
     51 O           3.2956  -10.9200  -46.6767 O.2       4 UNK        -0.5000 
     52 CA          1.2406  -11.0344  -47.9018 C.3       4 UNK         0.1400 
     53 CB          1.3511  -12.0847  -49.0173 C.3       4 UNK        -0.1800 
     54 N          -0.1583  -10.9139  -47.4915 N.am      4 UNK        -0.5000 
     55 C          -0.6951   -9.8026  -46.9720 C.2       3 UNK         0.5000 
     56 O          -0.0477   -8.7715  -46.7805 O.2       3 UNK        -0.5000 
     57 CA         -2.1904   -9.8330  -46.5827 C.3       3 UNK         0.1400 
     58 CB         -2.9231   -8.5430  -47.0063 C.3       3 UNK        -0.1800 
     59 N          -2.9367  -11.0161  -47.0304 N.am      3 UNK        -0.5000 
     60 C          -3.2121  -11.4196  -48.2787 C.2       2 UNK         0.5000 
     61 O          -2.7981  -10.8446  -49.2863 O.2       2 UNK        -0.5000 
     62 CA         -4.0914  -12.6880  -48.4094 C.3       2 UNK         0.1400 
     63 CB         -4.2504  -13.1456  -49.8701 C.3       2 UNK        -0.1800 
     64 N          -3.6008  -13.8152  -47.6065 N.am      2 UNK        -0.5000 
     65 C          -3.6803  -13.9190  -46.2707 C.2       1 UNK         0.5000 
     66 O          -4.2434  -13.0786  -45.5672 O.2       1 UNK        -0.5000 
     67 C          -0.6186  -23.3495  -46.4994 C.2       11 UNK         0.5000 
     68 O          -1.1701  -23.7624  -47.5205 O.2       11 UNK        -0.5000 
     69 N          -1.2768  -23.0353  -45.3732 N.am      12 UNK        -0.5000 
     70 CA         -2.7253  -23.1514  -45.2019 C.3       12 UNK         0.1400 
     71 CB         -3.1467  -22.5524  -43.8536 C.3       12 UNK        -0.1800 
     72 C          -3.2346  -24.5950  -45.3569 C.2       12 UNK         0.5000 
     73 O          -4.2634  -24.8061  -45.9983 O.2       12 UNK        -0.5000 
     74 N          -2.4721  -25.5636  -44.8306 N.am      13 UNK        -0.5000 
     75 CA         -2.7149  -27.0007  -44.9786 C.3       13 UNK         0.1400 
     76 CB         -1.7315  -27.7678  -44.0819 C.3       13 UNK        -0.1800 
     77 C          -2.6137  -27.4974  -46.4360 C.2       13 UNK         0.5000 
     78 O          -3.3211  -28.4344  -46.8071 O.2       13 UNK        -0.5000 
     79 N          -1.7543  -26.8527  -47.2362 N.am      14 UNK        -0.5000 
     80 CA         -1.5783  -27.1142  -48.6669 C.3       14 UNK         0.1400 
     81 CB         -0.1153  -26.8180  -49.0364 C.3       14 UNK        -0.1800 
     82 C          -2.5301  -26.2788  -49.5481 C.2       14 UNK         0.5000 
     83 O          -2.5581  -26.4790  -50.7638 O.2       14 UNK        -0.5000 
     84 N          -3.2472  -25.3223  -48.9386 N.am      15 UNK        -0.5000 
     85 CA         -4.1243  -24.3183  -49.5509 C.3       15 UNK         0.1400 
     86 CB         -5.3895  -24.9917  -50.1204 C.3       15 UNK        -0.1800 
     87 C          -3.4122  -23.4266  -50.5939 C.2       15 UNK         0.5000 
     88 O          -4.0592  -22.9532  -51.5282 O.2       15 UNK        -0.5000 
     89 N          -2.0811  -23.2859  -50.4714 N.am      16 UNK        -0.5000 
     90 CA         -1.1482  -22.7201  -51.4605 C.3       16 UNK         0.1400 
     91 CB         -1.2986  -21.1869  -51.5439 C.3       16 UNK        -0.1800 
     92 C          -1.2396  -23.3630  -52.8660 C.2       16 UNK         0.5000 
     93 O          -0.8828  -22.7139  -53.8487 O.2       16 UNK        -0.5000 
     94 N          -1.7687  -24.5941  -52.9597 N.am      17 UNK        -0.5000 
     95 CA         -2.1849  -25.2682  -54.1966 C.3       17 UNK         0.1400 
     96 CB         -0.9594  -25.6663  -55.0454 C.3       17 UNK        -0.1800 
     97 C          -3.2451  -24.4675  -54.9950 C.2       17 UNK         0.5000 
     98 O          -3.2547  -24.5136  -56.2261 O.2       17 UNK        -0.5000 
     99 N          -4.1125  -23.7446  -54.2680 N.am      18 UNK        -0.5000 
    100 CA        -5.1845  -22.8622  -54.7401 C.3       18 UNK         0.1400 
    101 CB        -6.2230  -23.6357  -55.5803 C.3       18 UNK        -0.1800 
    102 C         -4.6833  -21.5730  -55.4276 C.2       18 UNK         0.5000 
    103 O         -5.4170  -20.9841  -56.2245 O.2       18 UNK        -0.5000 
    104 N         -3.4570  -21.1380  -55.1047 N.am      19 UNK        -0.5000 
    105 CA        -2.8776  -19.8780  -55.5722 C.3       19 UNK         0.1400 
    106 CB        -1.3524  -19.9293  -55.3957 C.3       19 UNK        -0.1800 
    107 C         -3.4648  -18.6510  -54.8449 C.2       19 UNK         0.5000 
    108 O         -4.1072  -18.7782  -53.7975 O.2       19 UNK        -0.5000 
    109 N         -3.1805  -17.4646  -55.3987 N.am      20 UNK        -0.5000 
    110 CA        -3.6509  -16.1482  -54.9476 C.3       20 UNK         0.1400 
    111 CB        -3.2247  -15.0984  -55.9867 C.3       20 UNK        -0.1800 
    112 C         -3.2034  -15.7213  -53.5315 C.2       20 UNK         0.5000 
    113 O         -3.6985  -14.7133  -53.0271 O.2       20 UNK        -0.5000 
    114 N         -2.3016  -16.4906  -52.9047 N.am      21 UNK        -0.5000 
    115 CA        -1.8773  -16.3394  -51.5105 C.3       21 UNK         0.1400 
    116 CB        -0.6894  -17.2741  -51.2504 C.3       21 UNK        -0.1800 
    117 C         -3.0078  -16.5881  -50.4877 C.2       21 UNK         0.5000 
    118 O         -2.9161  -16.0888  -49.3647 O.2       21 UNK        -0.5000 
    119 N         -4.0621  -17.3042  -50.9008 N.am      22 UNK        -0.5000 
    120 CA        -5.3451  -17.3858  -50.1878 C.3       22 UNK         0.1400 
    121 C         -6.5754  -17.6587  -51.0999 C.2       22 UNK         0.5000 
    122 N         -6.4257  -18.0449  -52.3625 N.am      22 UNK        -0.7600 
    123 O         -7.7076  -17.4834  -50.6579 O.2       22 UNK        -0.5000 
    124 C124       -5.3107  -18.2980  -48.9346 C.3       23 UNK        -0.0398 
    125 S125       -5.0074  -20.0602  -49.3011 S.3       23 UNK        -0.2404 
    126 C126       -4.6062  -20.6789  -47.6359 C.3       23 UNK        -0.0205 
    127 H127        0.5893  -15.2967  -48.3830 H         1 UNK         0.0600 
    128 H128       -0.2093  -16.7896  -47.9154 H         1 UNK         0.0600 
    129 H129        1.0933  -16.1444  -46.9129 H         1 UNK         0.0600 
    130 H130       -2.0627  -16.6395  -46.7128 H         1 UNK         0.3000 
    131 H131       -2.5426  -14.7224  -44.6723 H         1 UNK         0.0600 
    132 H132       -4.9996  -15.7300  -44.9511 H         1 UNK         0.0800 
    133 H133       -4.2424  -16.8696  -46.0098 H         1 UNK         0.0800 
    134 H134       -1.2514  -17.3365  -44.1078 H         1 UNK         0.0800 
    135 H135       -1.8624  -18.7493  -43.2846 H         1 UNK         0.0800 
    136 H136       -4.1992  -19.3625  -45.2926 H         1 UNK         0.1150 
    137 H137       -2.1477  -20.7356  -48.7726 H         1 UNK         0.1150 
    138 H138       -0.0342  -18.4906  -45.7981 H         1 UNK         0.1150 
    139 H139        0.0895  -19.2031  -49.2042 H         1 UNK         0.0800 
    140 H140        1.0947  -19.0115  -47.7999 H         1 UNK         0.0800 
    141 H141        1.0625  -21.0949  -46.0939 H         1 UNK         0.0800 
    142 H142        2.5108  -21.8139  -46.7483 H         1 UNK         0.0800 
    143 H143        1.3021  -23.9202  -47.2311 H         1 UNK         0.0600 
    144 H144        1.5203  -22.9526  -44.4639 H         1 UNK         0.3000 
    145 H145        1.7261  -26.1931  -43.0744 H         1 UNK         0.0600 
    146 H146        3.9233  -25.4023  -42.2366 H         1 UNK         0.0600 
    147 H147        4.0551  -25.8711  -43.9240 H         1 UNK         0.0600 
    148 H148        3.9905  -24.1662  -43.4935 H         1 UNK         0.0600 
    149 H149        2.1187  -23.5957  -41.9554 H         1 UNK         0.3000 
    150 H150       -1.3095  -22.8250  -41.3635 H         1 UNK         0.0600 
    151 H151        0.8578  -23.7370  -39.4081 H         1 UNK         0.0600 
    152 H152       -0.7237  -24.4877  -39.5870 H         1 UNK         0.0600 
    153 H153       -0.6045  -22.8345  -39.0094 H         1 UNK         0.0600 
    154 H154        0.7453  -21.3634  -40.3810 H         1 UNK         0.3000 
    155 H155        0.4050  -18.9408  -42.4024 H         1 UNK         0.0600 
    156 H156        2.0890  -18.2934  -40.6740 H         1 UNK         0.0600 
    157 H157        2.5090  -19.9834  -40.4286 H         1 UNK         0.0600 
    158 H158        0.8941  -19.3921  -40.0212 H         1 UNK         0.0600 
    159 H159        3.0472  -20.1099  -43.1202 H         1 UNK         0.3000 
    160 H160        4.5812  -18.3110  -44.0905 H         1 UNK         0.0600 
    161 H161        4.7536  -19.4402  -46.3174 H         1 UNK         0.0600 
    162 H162        3.0043  -19.4140  -46.4908 H         1 UNK         0.0600 
    163 H163        3.7638  -20.4130  -45.2520 H         1 UNK         0.0600 
    164 H164        2.8727  -16.4994  -45.4319 H         1 UNK         0.3000 
    165 H165        5.4810  -14.5360  -46.7476 H         1 UNK         0.0600 
    166 H166        4.1220  -14.3804  -48.8243 H         1 UNK         0.0600 
    167 H167        5.0222  -15.8879  -48.7940 H         1 UNK         0.0600 
    168 H168        3.3018  -15.8915  -48.4292 H         1 UNK         0.0600 
    169 H169        2.6557  -14.1695  -46.7700 H         1 UNK         0.3000 
    170 H170        1.6211  -13.4881  -44.1764 H         1 UNK         0.0600 
    171 H171        3.0527  -12.1565  -42.6845 H         1 UNK         0.0600 
    172 H172        3.4568  -11.0421  -43.9822 H         1 UNK         0.0600 
    173 H173        1.8076  -11.1220  -43.3638 H         1 UNK         0.0600 
    174 H174        0.7274  -12.6197  -45.9829 H         1 UNK         0.3000 
    175 H175        1.5804  -10.0801  -48.3102 H         1 UNK         0.0600 
    176 H176        0.9972  -13.0598  -48.6876 H         1 UNK         0.0600 
    177 H177        0.7641  -11.7945  -49.8889 H         1 UNK         0.0600 
    178 H178        2.3850  -12.2020  -49.3449 H         1 UNK         0.0600 
    179 H179       -0.7401  -11.7346  -47.5848 H         1 UNK         0.3000 
    180 H180       -2.2067   -9.8733  -45.4928 H         1 UNK         0.0600 
    181 H181       -2.8957   -8.3984  -48.0867 H         1 UNK         0.0600 
    182 H182       -2.4690   -7.6634  -46.5486 H         1 UNK         0.0600 
    183 H183       -3.9679   -8.5627  -46.6964 H         1 UNK         0.0600 
    184 H184       -3.3263  -11.5886  -46.2858 H         1 UNK         0.3000 
    185 H185       -5.0844  -12.4183  -48.0442 H         1 UNK         0.0600 
    186 H186       -4.6782  -12.3548  -50.4873 H         1 UNK         0.0600 
    187 H187       -3.2921  -13.4233  -50.3106 H         1 UNK         0.0600 
    188 H188       -4.9154  -14.0054  -49.9457 H         1 UNK         0.0600 
    189 H189       -3.1436  -14.5640  -48.1201 H         1 UNK         0.3000 
    190 H190       -0.7508  -22.6511  -44.5955 H         1 UNK         0.3000 
    191 H191       -3.1863  -22.5620  -45.9906 H         1 UNK         0.0600 
    192 H192       -2.7280  -21.5558  -43.7110 H         1 UNK         0.0600 
    193 H193       -4.2318  -22.4620  -43.7952 H         1 UNK         0.0600 
    194 H194       -2.8291  -23.1780  -43.0211 H         1 UNK         0.0600 
    195 H195       -1.6775  -25.2948  -44.2566 H         1 UNK         0.3000 
    196 H196       -3.7291  -27.2058  -44.6300 H         1 UNK         0.0600 
    197 H197       -1.8907  -28.8443  -44.1552 H         1 UNK         0.0600 
    198 H198       -1.8557  -27.4914  -43.0346 H         1 UNK         0.0600 
    199 H199       -0.6957  -27.5672  -44.3594 H         1 UNK         0.0600 
    200 H200       -1.2209  -26.0840  -46.8534 H         1 UNK         0.3000 
    201 H201       -1.7762  -28.1675  -48.8751 H         1 UNK         0.0600 
    202 H202        0.0798  -27.0486  -50.0845 H         1 UNK         0.0600 
    203 H203        0.5712  -27.4185  -48.4391 H         1 UNK         0.0600 
    204 H204        0.1369  -25.7687  -48.8793 H         1 UNK         0.0600 
    205 H205       -3.1251  -25.2232  -47.9391 H         1 UNK         0.3000 
    206 H206       -4.4385  -23.6629  -48.7423 H         1 UNK         0.0600 
    207 H207       -5.8769  -25.6124  -49.3685 H         1 UNK         0.0600 
    208 H208       -6.1175  -24.2474  -50.4451 H         1 UNK         0.0600 
    209 H209       -5.1604  -25.6224  -50.9800 H         1 UNK         0.0600 
    210 H210       -1.6538  -23.6710  -49.6356 H         1 UNK         0.3000 
    211 H211       -0.1441  -22.9374  -51.0943 H         1 UNK         0.0600 
    212 H212       -2.2906  -20.8869  -51.8841 H         1 UNK         0.0600 
    213 H213       -0.5672  -20.7557  -52.2268 H         1 UNK         0.0600 
    214 H214       -1.1129  -20.7185  -50.5850 H         1 UNK         0.0600 
    215 H215       -2.0276  -25.0751  -52.1032 H         1 UNK         0.3000 
    216 H216       -2.6790  -26.1888  -53.8832 H         1 UNK         0.0600 
    217 H217       -1.2540  -26.2979  -55.8841 H         1 UNK         0.0600 
    218 H218       -0.2375  -26.2299  -54.4545 H         1 UNK         0.0600 
    219 H219       -0.4494  -24.7951  -55.4573 H         1 UNK         0.0600 
    220 H220       -3.9851  -23.7213  -53.2591 H         1 UNK         0.3000 
    221 H221       -5.6946  -22.5240  -53.8370 H         1 UNK         0.0600 
    222 H222       -5.8225  -23.9331  -56.5495 H         1 UNK         0.0600 
    223 H223       -6.5582  -24.5349  -55.0635 H         1 UNK         0.0600 
    224 H224       -7.1062  -23.0243  -55.7685 H         1 UNK         0.0600 
    225 H225       -2.9041  -21.6749  -54.4503 H         1 UNK         0.3000 
    226 H226       -3.0943  -19.7754  -56.6377 H         1 UNK         0.0600 
    227 H227       -0.9275  -20.8038  -55.8891 H         1 UNK         0.0600 
    228 H228       -0.8713  -19.0521  -55.8294 H         1 UNK         0.0600 
    229 H229       -1.0713  -19.9685  -54.3441 H         1 UNK         0.0600 
    230 H230       -2.6221  -17.4563  -56.2402 H         1 UNK         0.3000 
    231 H231       -4.7421  -16.1838  -54.9297 H         1 UNK         0.0600 
    232 H232       -2.1390  -15.0328  -56.0679 H         1 UNK         0.0600 
    233 H233       -3.5940  -14.1071  -55.7204 H         1 UNK         0.0600 
    234 H234       -3.6230  -15.3341  -56.9738 H         1 UNK         0.0600 
    235 H235       -1.9523  -17.2986  -53.3971 H         1 UNK         0.3000 
    236 H236       -1.5384  -15.3103  -51.3750 H         1 UNK         0.0600 
    237 H237        0.1242  -17.0877  -51.9516 H         1 UNK         0.0600 
    238 H238       -0.2910  -17.1211  -50.2486 H         1 UNK         0.0600 
    239 H239       -0.9783  -18.3211  -51.3388 H         1 UNK         0.0600 
    240 H240       -4.0428  -17.7041  -51.8287 H         1 UNK         0.3000 
    241 H241       -5.5350  -16.3768  -49.8170 H         1 UNK         0.0600 
    242 H242       -5.5279  -18.2837  -52.7746 H         1 UNK         0.3800 
    243 H243       -7.2573  -18.1926  -52.9111 H         1 UNK         0.3800 
    244 H244       -4.5367  -17.9409  -48.2559 H         1 UNK         0.0800 
    245 H245       -6.2467  -18.2174  -48.3797 H         1 UNK         0.0800 
    246 H246       -5.4397  -20.4582  -46.9674 H         1 UNK         0.0800 
    247 H247       -4.5228  -21.7616  -47.6702 H         1 UNK         0.0800 
@<TRIPOS>BOND
     1    1    2 1    
     2    1  127 1    
     3    1  128 1    
     4    1  129 1    
     5    2    3 2    
     6    2    4 am   BACKBONE|DICT|INTERRES
     7    4    5 1    
     8    4  130 1    
     9    5    6 1    
    10    5   65 1    
    11    5  131 1    
    12    6    7 1    
    13    6  132 1    
    14    6  133 1    
    15    7    8 1    
    16    8    9 1    
    17    8  134 1    
    18    8  135 1    
    19    9   10 ar   
    20    9   14 ar   
    21   10   11 ar   
    22   10  136 1    
    23   11   12 ar   
    24   11  126 1    
    25   12   13 ar   
    26   12  137 1    
    27   13   14 ar   
    28   13   15 1    
    29   14  138 1    
    30   15   16 1    
    31   15  139 1    
    32   15  140 1    
    33   16   17 1    
    34   17   18 1    
    35   17  141 1    
    36   17  142 1    
    37   18   19 1    
    38   18   67 1    
    39   18  143 1    
    40   19   20 am   BACKBONE|DICT|INTERRES
    41   19  144 1    
    42   20   21 2    
    43   20   22 1    
    44   22   23 1    
    45   22   24 1    
    46   22  145 1    
    47   23  146 1    
    48   23  147 1    
    49   23  148 1    
    50   24   25 am   BACKBONE|DICT|INTERRES
    51   24  149 1    
    52   25   26 2    
    53   25   27 1    
    54   27   28 1    
    55   27   29 1    
    56   27  150 1    
    57   28  151 1    
    58   28  152 1    
    59   28  153 1    
    60   29   30 am   BACKBONE|DICT|INTERRES
    61   29  154 1    
    62   30   31 2    
    63   30   32 1    
    64   32   33 1    
    65   32   34 1    
    66   32  155 1    
    67   33  156 1    
    68   33  157 1    
    69   33  158 1    
    70   34   35 am   BACKBONE|DICT|INTERRES
    71   34  159 1    
    72   35   36 2    
    73   35   37 1    
    74   37   38 1    
    75   37   39 1    
    76   37  160 1    
    77   38  161 1    
    78   38  162 1    
    79   38  163 1    
    80   39   40 am   BACKBONE|DICT|INTERRES
    81   39  164 1    
    82   40   41 2    
    83   40   42 1    
    84   42   43 1    
    85   42   44 1    
    86   42  165 1    
    87   43  166 1    
    88   43  167 1    
    89   43  168 1    
    90   44   45 am   BACKBONE|DICT|INTERRES
    91   44  169 1    
    92   45   46 2    
    93   45   47 1    
    94   47   48 1    
    95   47   49 1    
    96   47  170 1    
    97   48  171 1    
    98   48  172 1    
    99   48  173 1    
   100   49   50 am   BACKBONE|DICT|INTERRES
   101   49  174 1    
   102   50   51 2    
   103   50   52 1    
   104   52   53 1    
   105   52   54 1    
   106   52  175 1    
   107   53  176 1    
   108   53  177 1    
   109   53  178 1    
   110   54   55 am   BACKBONE|DICT|INTERRES
   111   54  179 1    
   112   55   56 2    
   113   55   57 1    
   114   57   58 1    
   115   57   59 1    
   116   57  180 1    
   117   58  181 1    
   118   58  182 1    
   119   58  183 1    
   120   59   60 am   BACKBONE|DICT|INTERRES
   121   59  184 1    
   122   60   61 2    
   123   60   62 1    
   124   62   63 1    
   125   62   64 1    
   126   62  185 1    
   127   63  186 1    
   128   63  187 1    
   129   63  188 1    
   130   64   65 am   BACKBONE|DICT|INTERRES
   131   64  189 1    
   132   65   66 2    
   133   67   68 2    
   134   67   69 am   BACKBONE|DICT|INTERRES
   135   69   70 1    
   136   69  190 1    
   137   70   71 1    
   138   70   72 1    
   139   70  191 1    
   140   71  192 1    
   141   71  193 1    
   142   71  194 1    
   143   72   73 2    
   144   72   74 am   BACKBONE|DICT|INTERRES
   145   74   75 1    
   146   74  195 1    
   147   75   76 1    
   148   75   77 1    
   149   75  196 1    
   150   76  197 1    
   151   76  198 1    
   152   76  199 1    
   153   77   78 2    
   154   77   79 am   BACKBONE|DICT|INTERRES
   155   79   80 1    
   156   79  200 1    
   157   80   81 1    
   158   80   82 1    
   159   80  201 1    
   160   81  202 1    
   161   81  203 1    
   162   81  204 1    
   163   82   83 2    
   164   82   84 am   BACKBONE|DICT|INTERRES
   165   84   85 1    
   166   84  205 1    
   167   85   86 1    
   168   85   87 1    
   169   85  206 1    
   170   86  207 1    
   171   86  208 1    
   172   86  209 1    
   173   87   88 2    
   174   87   89 am   BACKBONE|DICT|INTERRES
   175   89   90 1    
   176   89  210 1    
   177   90   91 1    
   178   90   92 1    
   179   90  211 1    
   180   91  212 1    
   181   91  213 1    
   182   91  214 1    
   183   92   93 2    
   184   92   94 am   BACKBONE|DICT|INTERRES
   185   94   95 1    
   186   94  215 1    
   187   95   96 1    
   188   95   97 1    
   189   95  216 1    
   190   96  217 1    
   191   96  218 1    
   192   96  219 1    
   193   97   98 2    
   194   97   99 am   BACKBONE|DICT|INTERRES
   195   99  100 1    
   196   99  220 1    
   197  100  101 1    
   198  100  102 1    
   199  100  221 1    
   200  101  222 1    
   201  101  223 1    
   202  101  224 1    
   203  102  103 2    
   204  102  104 am   BACKBONE|DICT|INTERRES
   205  104  105 1    
   206  104  225 1    
   207  105  106 1    
   208  105  107 1    
   209  105  226 1    
   210  106  227 1    
   211  106  228 1    
   212  106  229 1    
   213  107  108 2    
   214  107  109 am   BACKBONE|DICT|INTERRES
   215  109  110 1    
   216  109  230 1    
   217  110  111 1    
   218  110  112 1    
   219  110  231 1    
   220  111  232 1    
   221  111  233 1    
   222  111  234 1    
   223  112  113 2    
   224  112  114 am   BACKBONE|DICT|INTERRES
   225  114  115 1    
   226  114  235 1    
   227  115  116 1    
   228  115  117 1    
   229  115  236 1    
   230  116  237 1    
   231  116  238 1    
   232  116  239 1    
   233  117  118 2    
   234  117  119 am   BACKBONE|DICT|INTERRES
   235  119  120 1    
   236  119  240 1    
   237  120  121 1    
   238  120  124 1    
   239  120  241 1    
   240  121  122 am   BACKBONE|DICT|INTERRES
   241  121  123 2    
   242  122  242 1    
   243  122  243 1    
   244  124  125 1    
   245  124  244 1    
   246  124  245 1    
   247  125  126 1    
   248  126  246 1    
   249  126  247 1    
@<TRIPOS>SUBSTRUCTURE
     1 UNK         1 GROUP             0       ****    0 ROOT    
