@<TRIPOS>MOLECULE
3R540
247   249    1
SMALL
USER_CHARGES


@<TRIPOS>ATOM
      1 CA         -5.1781  -16.9083  -48.0615 C.3       0 UNK        -0.1800 
      2 C          -5.5459  -15.5970  -48.7422 C.2       0 UNK         0.5000 
      3 O          -6.7145  -15.3705  -49.0541 O.2       0 UNK        -0.5000 
      4 N          -4.5492  -14.7320  -48.9623 N.am      1 UNK        -0.5000 
      5 CA         -4.6846  -13.4481  -49.6584 C.3       1 UNK         0.1400 
      6 C6         -3.3515  -12.9253  -50.2585 C.3       23 UNK        -0.0398 
      7 S7         -2.4139  -14.1976  -51.1743 S.3       23 UNK        -0.2404 
      8 C8         -0.9062  -14.3240  -50.1639 C.3       23 UNK        -0.0205 
      9 C9         -0.3642  -15.7420  -50.1732 C.ar      23 UNK        -0.0193 
     10 C10         0.5181  -16.1541  -51.1733 C.ar      23 UNK        -0.1150 
     11 C11         0.9992  -17.4708  -51.2090 C.ar      23 UNK        -0.0193 
     12 C12         0.6088  -18.3581  -50.1984 C.ar      23 UNK        -0.1150 
     13 C13        -0.2566  -17.9497  -49.1798 C.ar      23 UNK        -0.0193 
     14 C14        -0.7489  -16.6443  -49.1815 C.ar      23 UNK        -0.1150 
     15 C15        -0.6339  -18.8932  -48.0509 C.3       23 UNK        -0.0205 
     16 S16        -2.3830  -19.3774  -48.1089 S.3       23 UNK        -0.2404 
     17 C17        -2.6168  -20.0514  -46.4286 C.3       23 UNK        -0.0398 
     18 CA         -2.3221  -21.5699  -46.3647 C.3       11 UNK         0.1400 
     19 N          -0.9037  -21.8683  -46.1411 N.am      11 UNK        -0.5000 
     20 C          -0.3675  -23.0893  -46.2825 C.2       10 UNK         0.5000 
     21 O          -1.0036  -24.0755  -46.6496 O.2       10 UNK        -0.5000 
     22 CA          1.1085  -23.2500  -45.8916 C.3       10 UNK         0.1400 
     23 CB          2.0342  -22.7331  -47.0039 C.3       10 UNK        -0.1800 
     24 N           1.4020  -22.5722  -44.6294 N.am      10 UNK        -0.5000 
     25 C           0.9672  -22.9933  -43.4326 C.2       9 UNK         0.5000 
     26 O           0.3068  -24.0200  -43.2693 O.2       9 UNK        -0.5000 
     27 CA          1.2872  -22.0969  -42.2212 C.3       9 UNK         0.1400 
     28 CB          2.6838  -22.4112  -41.6655 C.3       9 UNK        -0.1800 
     29 N           1.1934  -20.6701  -42.5369 N.am      9 UNK        -0.5000 
     30 C           0.0423  -20.0431  -42.8194 C.2       8 UNK         0.5000 
     31 O          -1.0533  -20.5992  -42.8056 O.2       8 UNK        -0.5000 
     32 CA          0.1145  -18.5656  -43.2443 C.3       8 UNK         0.1400 
     33 CB         -0.0308  -17.6435  -42.0255 C.3       8 UNK        -0.1800 
     34 N           1.3244  -18.2043  -43.9833 N.am      8 UNK        -0.5000 
     35 C           1.7693  -18.8075  -45.0945 C.2       7 UNK         0.5000 
     36 O           1.1885  -19.7473  -45.6371 O.2       7 UNK        -0.5000 
     37 CA          3.1138  -18.3147  -45.6577 C.3       7 UNK         0.1400 
     38 CB          2.8968  -17.1329  -46.6152 C.3       7 UNK        -0.1800 
     39 N           4.0594  -17.9321  -44.6046 N.am      7 UNK        -0.5000 
     40 C           4.5520  -18.7582  -43.6704 C.2       6 UNK         0.5000 
     41 O           4.2926  -19.9610  -43.6288 O.2       6 UNK        -0.5000 
     42 CA          5.4327  -18.1451  -42.5620 C.3       6 UNK         0.1400 
     43 CB          6.9012  -18.0176  -43.0109 C.3       6 UNK        -0.1800 
     44 N           4.9055  -16.8863  -42.0128 N.am      6 UNK        -0.5000 
     45 C           4.8190  -15.6887  -42.6060 C.2       5 UNK         0.5000 
     46 O           5.2727  -15.4372  -43.7253 O.2       5 UNK        -0.5000 
     47 CA          4.0546  -14.5987  -41.8272 C.3       5 UNK         0.1400 
     48 CB          5.0308  -13.7233  -41.0272 C.3       5 UNK        -0.1800 
     49 N           3.2571  -13.7433  -42.7104 N.am      5 UNK        -0.5000 
     50 C           2.3068  -14.1798  -43.5483 C.2       4 UNK         0.5000 
     51 O           1.9353  -15.3564  -43.6006 O.2       4 UNK        -0.5000 
     52 CA          1.7086  -13.1283  -44.5047 C.3       4 UNK         0.1400 
     53 CB          2.7873  -12.5741  -45.4521 C.3       4 UNK        -0.1800 
     54 N           0.6479  -13.7113  -45.3223 N.am      4 UNK        -0.5000 
     55 C          -0.6351  -13.8199  -44.9638 C.2       3 UNK         0.5000 
     56 O          -1.1189  -13.3289  -43.9409 O.2       3 UNK        -0.5000 
     57 CA         -1.5008  -14.6793  -45.9010 C.3       3 UNK         0.1400 
     58 CB         -1.4295  -16.1530  -45.4805 C.3       3 UNK        -0.1800 
     59 N          -2.9046  -14.2804  -45.9349 N.am      3 UNK        -0.5000 
     60 C          -3.3768  -13.1504  -46.4717 C.2       2 UNK         0.5000 
     61 O          -2.6736  -12.2730  -46.9747 O.2       2 UNK        -0.5000 
     62 CA         -4.9083  -13.0046  -46.4442 C.3       2 UNK         0.1400 
     63 CB         -5.3390  -12.3581  -45.1180 C.3       2 UNK        -0.1800 
     64 N          -5.4695  -12.2089  -47.5413 N.am      2 UNK        -0.5000 
     65 C          -5.4101  -12.3114  -48.8842 C.2       1 UNK         0.5000 
     66 O          -5.9686  -11.4533  -49.5668 O.2       1 UNK        -0.5000 
     67 C          -3.2373  -22.2919  -45.3543 C.2       11 UNK         0.5000 
     68 O          -4.2993  -22.7597  -45.7592 O.2       11 UNK        -0.5000 
     69 N          -2.8194  -22.4229  -44.0876 N.am      12 UNK        -0.5000 
     70 CA         -3.5405  -23.1929  -43.0700 C.3       12 UNK         0.1400 
     71 CB         -2.9037  -22.9719  -41.6897 C.3       12 UNK        -0.1800 
     72 C          -3.6118  -24.6948  -43.4018 C.2       12 UNK         0.5000 
     73 O          -4.6739  -25.2985  -43.2472 O.2       12 UNK        -0.5000 
     74 N          -2.4947  -25.2605  -43.8800 N.am      13 UNK        -0.5000 
     75 CA         -2.3956  -26.6556  -44.3097 C.3       13 UNK         0.1400 
     76 CB         -0.9159  -27.0279  -44.4902 C.3       13 UNK        -0.1800 
     77 C          -3.1918  -26.9423  -45.5971 C.2       13 UNK         0.5000 
     78 O          -3.8680  -27.9682  -45.6799 O.2       13 UNK        -0.5000 
     79 N          -3.1000  -26.0307  -46.5737 N.am      14 UNK        -0.5000 
     80 CA         -3.7304  -26.1481  -47.8898 C.3       14 UNK         0.1400 
     81 CB         -2.9343  -25.2899  -48.8841 C.3       14 UNK        -0.1800 
     82 C          -5.2176  -25.7447  -47.9167 C.2       14 UNK         0.5000 
     83 O          -5.8661  -25.9525  -48.9415 O.2       14 UNK        -0.5000 
     84 N          -5.7223  -25.1453  -46.8283 N.am      15 UNK        -0.5000 
     85 CA         -7.0544  -24.5432  -46.6877 C.3       15 UNK         0.1400 
     86 CB         -8.1659  -25.6099  -46.7755 C.3       15 UNK        -0.1800 
     87 C          -7.2478  -23.3676  -47.6700 C.2       15 UNK         0.5000 
     88 O          -8.1996  -23.3452  -48.4511 O.2       15 UNK        -0.5000 
     89 N          -6.2867  -22.4350  -47.6236 N.am      16 UNK        -0.5000 
     90 CA         -6.1245  -21.2095  -48.4157 C.3       16 UNK         0.1400 
     91 CB         -7.3583  -20.2929  -48.3009 C.3       16 UNK        -0.1800 
     92 C          -5.7112  -21.4306  -49.8845 C.2       16 UNK         0.5000 
     93 O          -5.3799  -20.4561  -50.5597 O.2       16 UNK        -0.5000 
     94 N          -5.6882  -22.6850  -50.3590 N.am      17 UNK        -0.5000 
     95 CA         -5.3722  -23.0435  -51.7454 C.3       17 UNK         0.1400 
     96 CB         -5.7300  -24.5163  -51.9891 C.3       17 UNK        -0.1800 
     97 C          -3.9137  -22.7621  -52.1559 C.2       17 UNK         0.5000 
     98 O          -3.6437  -22.6337  -53.3495 O.2       17 UNK        -0.5000 
     99 N          -3.0049  -22.6304  -51.1770 N.am      18 UNK        -0.5000 
    100 CA        -1.5983  -22.2740  -51.3889 C.3       18 UNK         0.1400 
    101 CB        -0.8219  -22.3959  -50.0688 C.3       18 UNK        -0.1800 
    102 C         -1.4052  -20.8764  -52.0093 C.2       18 UNK         0.5000 
    103 O         -0.4083  -20.6614  -52.6973 O.2       18 UNK        -0.5000 
    104 N         -2.3786  -19.9723  -51.8165 N.am      19 UNK        -0.5000 
    105 CA        -2.4089  -18.6382  -52.4201 C.3       19 UNK         0.1400 
    106 CB        -3.5897  -17.8449  -51.8436 C.3       19 UNK        -0.1800 
    107 C         -2.4576  -18.6589  -53.9612 C.2       19 UNK         0.5000 
    108 O         -1.9741  -17.7188  -54.5934 O.2       19 UNK        -0.5000 
    109 N         -2.9841  -19.7450  -54.5482 N.am      20 UNK        -0.5000 
    110 CA        -3.0418  -19.9630  -55.9953 C.3       20 UNK         0.1400 
    111 CB        -3.9804  -21.1410  -56.2962 C.3       20 UNK        -0.1800 
    112 C         -1.6612  -20.1922  -56.6438 C.2       20 UNK         0.5000 
    113 O         -1.5353  -20.0050  -57.8545 O.2       20 UNK        -0.5000 
    114 N         -0.6494  -20.5728  -55.8470 N.am      21 UNK        -0.5000 
    115 CA         0.7408  -20.6884  -56.2955 C.3       21 UNK         0.1400 
    116 CB         1.5392  -21.5266  -55.2854 C.3       21 UNK        -0.1800 
    117 C          1.4022  -19.3112  -56.4982 C.2       21 UNK         0.5000 
    118 O          2.2864  -19.1818  -57.3459 O.2       21 UNK        -0.5000 
    119 N          0.9536  -18.3147  -55.7262 N.am      22 UNK        -0.5000 
    120 CA         1.3527  -16.9077  -55.8485 C.3       22 UNK         0.1400 
    121 C          0.4488  -16.1465  -56.8546 C.2       22 UNK         0.5000 
    122 N         -0.8671  -16.3145  -56.8018 N.am      22 UNK        -0.7600 
    123 O          0.9454  -15.3999  -57.6935 O.2       22 UNK        -0.5000 
    124 C124        1.3490  -16.2010  -54.4721 C.3       23 UNK        -0.0398 
    125 S125        2.7129  -16.7557  -53.3891 S.3       23 UNK        -0.2404 
    126 C126        1.9029  -18.0019  -52.3251 C.3       23 UNK        -0.0205 
    127 H127       -4.1701  -16.8781  -47.6474 H         1 UNK         0.0600 
    128 H128       -5.2261  -17.7288  -48.7777 H         1 UNK         0.0600 
    129 H129       -5.8714  -17.1221  -47.2481 H         1 UNK         0.0600 
    130 H130       -3.6060  -14.9921  -48.7188 H         1 UNK         0.3000 
    131 H131       -5.3252  -13.6564  -50.5187 H         1 UNK         0.0600 
    132 H132       -2.7194  -12.4821  -49.4911 H         1 UNK         0.0800 
    133 H133       -3.5582  -12.1148  -50.9597 H         1 UNK         0.0800 
    134 H134       -1.1072  -14.0192  -49.1377 H         1 UNK         0.0800 
    135 H135       -0.1579  -13.6282  -50.5463 H         1 UNK         0.0800 
    136 H136        0.8043  -15.4368  -51.9261 H         1 UNK         0.1150 
    137 H137        0.9763  -19.3747  -50.2099 H         1 UNK         0.1150 
    138 H138       -1.4362  -16.3359  -48.4096 H         1 UNK         0.1150 
    139 H139       -0.0116  -19.7889  -48.0686 H         1 UNK         0.0800 
    140 H140       -0.4318  -18.3888  -47.1082 H         1 UNK         0.0800 
    141 H141       -3.6546  -19.8379  -46.1652 H         1 UNK         0.0800 
    142 H142       -2.0137  -19.5010  -45.7056 H         1 UNK         0.0800 
    143 H143       -2.5853  -22.0007  -47.3331 H         1 UNK         0.0600 
    144 H144       -0.3011  -21.1056  -45.8493 H         1 UNK         0.3000 
    145 H145        1.3056  -24.3161  -45.7596 H         1 UNK         0.0600 
    146 H146        3.0829  -22.8575  -46.7337 H         1 UNK         0.0600 
    147 H147        1.8690  -23.2846  -47.9303 H         1 UNK         0.0600 
    148 H148        1.8673  -21.6786  -47.2224 H         1 UNK         0.0600 
    149 H149        1.8696  -21.6776  -44.6930 H         1 UNK         0.3000 
    150 H150        0.5561  -22.3193  -41.4410 H         1 UNK         0.0600 
    151 H151        2.7571  -23.4583  -41.3689 H         1 UNK         0.0600 
    152 H152        2.9043  -21.8077  -40.7850 H         1 UNK         0.0600 
    153 H153        3.4640  -22.2257  -42.4043 H         1 UNK         0.0600 
    154 H154        2.0624  -20.1608  -42.6200 H         1 UNK         0.3000 
    155 H155       -0.7344  -18.3924  -43.9055 H         1 UNK         0.0600 
    156 H156        0.8326  -17.7145  -41.3631 H         1 UNK         0.0600 
    157 H157       -0.9170  -17.8986  -41.4428 H         1 UNK         0.0600 
    158 H158       -0.1352  -16.6020  -42.3304 H         1 UNK         0.0600 
    159 H159        1.8165  -17.3772  -43.6605 H         1 UNK         0.3000 
    160 H160        3.5558  -19.1380  -46.2225 H         1 UNK         0.0600 
    161 H161        2.4688  -16.2710  -46.1033 H         1 UNK         0.0600 
    162 H162        2.2174  -17.4048  -47.4243 H         1 UNK         0.0600 
    163 H163        3.8352  -16.8186  -47.0720 H         1 UNK         0.0600 
    164 H164        4.3275  -16.9542  -44.5527 H         1 UNK         0.3000 
    165 H165        5.4142  -18.8509  -41.7299 H         1 UNK         0.0600 
    166 H166        7.0115  -17.3763  -43.8854 H         1 UNK         0.0600 
    167 H167        7.5234  -17.6102  -42.2141 H         1 UNK         0.0600 
    168 H168        7.3091  -18.9940  -43.2751 H         1 UNK         0.0600 
    169 H169        4.4874  -16.9791  -41.0972 H         1 UNK         0.3000 
    170 H170        3.3667  -15.0822  -41.1304 H         1 UNK         0.0600 
    171 H171        5.7254  -13.1951  -41.6819 H         1 UNK         0.0600 
    172 H172        4.4994  -12.9811  -40.4312 H         1 UNK         0.0600 
    173 H173        5.6238  -14.3270  -40.3388 H         1 UNK         0.0600 
    174 H174        3.5256  -12.7712  -42.7462 H         1 UNK         0.3000 
    175 H175        1.3046  -12.3080  -43.9077 H         1 UNK         0.0600 
    176 H176        3.2654  -13.3692  -46.0262 H         1 UNK         0.0600 
    177 H177        2.3622  -11.8605  -46.1584 H         1 UNK         0.0600 
    178 H178        3.5707  -12.0509  -44.9028 H         1 UNK         0.0600 
    179 H179        0.9586  -14.1907  -46.1537 H         1 UNK         0.3000 
    180 H180       -1.1024  -14.5851  -46.9110 H         1 UNK         0.0600 
    181 H181       -2.0324  -16.7868  -46.1301 H         1 UNK         0.0600 
    182 H182       -1.7839  -16.2909  -44.4583 H         1 UNK         0.0600 
    183 H183       -0.4028  -16.5163  -45.5263 H         1 UNK         0.0600 
    184 H184       -3.5495  -14.9089  -45.4792 H         1 UNK         0.3000 
    185 H185       -5.3616  -13.9945  -46.4794 H         1 UNK         0.0600 
    186 H186       -6.4251  -12.3123  -45.0337 H         1 UNK         0.0600 
    187 H187       -4.9745  -12.9296  -44.2631 H         1 UNK         0.0600 
    188 H188       -4.9512  -11.3430  -45.0211 H         1 UNK         0.0600 
    189 H189       -5.9707  -11.3999  -47.2080 H         1 UNK         0.3000 
    190 H190       -1.9766  -21.9448  -43.7818 H         1 UNK         0.3000 
    191 H191       -4.5647  -22.8158  -43.0304 H         1 UNK         0.0600 
    192 H192       -3.4195  -23.5516  -40.9232 H         1 UNK         0.0600 
    193 H193       -2.9594  -21.9244  -41.3940 H         1 UNK         0.0600 
    194 H194       -1.8550  -23.2693  -41.6768 H         1 UNK         0.0600 
    195 H195       -1.6519  -24.7015  -43.9475 H         1 UNK         0.3000 
    196 H196       -2.8071  -27.2842  -43.5172 H         1 UNK         0.0600 
    197 H197       -0.4342  -26.4126  -45.2509 H         1 UNK         0.0600 
    198 H198       -0.3620  -26.9004  -43.5598 H         1 UNK         0.0600 
    199 H199       -0.8087  -28.0701  -44.7932 H         1 UNK         0.0600 
    200 H200       -2.4687  -25.2427  -46.4475 H         1 UNK         0.3000 
    201 H201       -3.6694  -27.1882  -48.2166 H         1 UNK         0.0600 
    202 H202       -3.3121  -25.4050  -49.8996 H         1 UNK         0.0600 
    203 H203       -2.9878  -24.2322  -48.6256 H         1 UNK         0.0600 
    204 H204       -1.8833  -25.5791  -48.8994 H         1 UNK         0.0600 
    205 H205       -5.0862  -24.9725  -46.0609 H         1 UNK         0.3000 
    206 H206       -7.0911  -24.1153  -45.6846 H         1 UNK         0.0600 
    207 H207       -7.9975  -26.4127  -46.0578 H         1 UNK         0.0600 
    208 H208       -9.1398  -25.1731  -46.5522 H         1 UNK         0.0600 
    209 H209       -8.2307  -26.0558  -47.7682 H         1 UNK         0.0600 
    210 H210       -5.5475  -22.5900  -46.9366 H         1 UNK         0.3000 
    211 H211       -5.2895  -20.6797  -47.9563 H         1 UNK         0.0600 
    212 H212       -7.1740  -19.3288  -48.7763 H         1 UNK         0.0600 
    213 H213       -7.6083  -20.0965  -47.2584 H         1 UNK         0.0600 
    214 H214       -8.2349  -20.7258  -48.7829 H         1 UNK         0.0600 
    215 H215       -5.9935  -23.4350  -49.7540 H         1 UNK         0.3000 
    216 H216       -6.0076  -22.4350  -52.3924 H         1 UNK         0.0600 
    217 H217       -5.1008  -25.1876  -51.4062 H         1 UNK         0.0600 
    218 H218       -5.6002  -24.7795  -53.0397 H         1 UNK         0.0600 
    219 H219       -6.7690  -24.7203  -51.7292 H         1 UNK         0.0600 
    220 H220       -3.3142  -22.7323  -50.2234 H         1 UNK         0.3000 
    221 H221       -1.1780  -22.9953  -52.0928 H         1 UNK         0.0600 
    222 H222       -0.8289  -23.4192  -49.6955 H         1 UNK         0.0600 
    223 H223       -1.2380  -21.7535  -49.2960 H         1 UNK         0.0600 
    224 H224        0.2227  -22.1105  -50.2005 H         1 UNK         0.0600 
    225 H225       -3.1796  -20.2270  -51.2526 H         1 UNK         0.3000 
    226 H226       -1.4920  -18.1229  -52.1381 H         1 UNK         0.0600 
    227 H227       -4.5439  -18.3239  -52.0648 H         1 UNK         0.0600 
    228 H228       -3.5038  -17.7453  -50.7613 H         1 UNK         0.0600 
    229 H229       -3.6232  -16.8373  -52.2593 H         1 UNK         0.0600 
    230 H230       -3.3167  -20.5039  -53.9660 H         1 UNK         0.3000 
    231 H231       -3.4695  -19.0666  -56.4491 H         1 UNK         0.0600 
    232 H232       -3.5719  -22.0839  -55.9319 H         1 UNK         0.0600 
    233 H233       -4.1364  -21.2487  -57.3703 H         1 UNK         0.0600 
    234 H234       -4.9593  -20.9976  -55.8383 H         1 UNK         0.0600 
    235 H235       -0.8190  -20.7023  -54.8567 H         1 UNK         0.3000 
    236 H236        0.7535  -21.2122  -57.2538 H         1 UNK         0.0600 
    237 H237        1.6330  -21.0206  -54.3243 H         1 UNK         0.0600 
    238 H238        1.0688  -22.4946  -55.1123 H         1 UNK         0.0600 
    239 H239        2.5489  -21.7154  -55.6520 H         1 UNK         0.0600 
    240 H240        0.1877  -18.5041  -55.0964 H         1 UNK         0.3000 
    241 H241        2.3708  -16.8594  -56.2405 H         1 UNK         0.0600 
    242 H242       -1.4546  -15.8251  -57.4575 H         1 UNK         0.3800 
    243 H243       -1.2932  -16.8725  -56.0649 H         1 UNK         0.3800 
    244 H244        0.3868  -16.3438  -53.9784 H         1 UNK         0.0800 
    245 H245        1.4676  -15.1229  -54.5956 H         1 UNK         0.0800 
    246 H246        1.3246  -18.6800  -52.9518 H         1 UNK         0.0800 
    247 H247        2.6917  -18.6056  -51.8743 H         1 UNK         0.0800 
@<TRIPOS>BOND
     1    1    2 1    
     2    1  127 1    
     3    1  128 1    
     4    1  129 1    
     5    2    3 2    
     6    2    4 am   BACKBONE|DICT|INTERRES
     7    4    5 1    
     8    4  130 1    
     9    5    6 1    
    10    5   65 1    
    11    5  131 1    
    12    6    7 1    
    13    6  132 1    
    14    6  133 1    
    15    7    8 1    
    16    8    9 1    
    17    8  134 1    
    18    8  135 1    
    19    9   10 ar   
    20    9   14 ar   
    21   10   11 ar   
    22   10  136 1    
    23   11   12 ar   
    24   11  126 1    
    25   12   13 ar   
    26   12  137 1    
    27   13   14 ar   
    28   13   15 1    
    29   14  138 1    
    30   15   16 1    
    31   15  139 1    
    32   15  140 1    
    33   16   17 1    
    34   17   18 1    
    35   17  141 1    
    36   17  142 1    
    37   18   19 1    
    38   18   67 1    
    39   18  143 1    
    40   19   20 am   BACKBONE|DICT|INTERRES
    41   19  144 1    
    42   20   21 2    
    43   20   22 1    
    44   22   23 1    
    45   22   24 1    
    46   22  145 1    
    47   23  146 1    
    48   23  147 1    
    49   23  148 1    
    50   24   25 am   BACKBONE|DICT|INTERRES
    51   24  149 1    
    52   25   26 2    
    53   25   27 1    
    54   27   28 1    
    55   27   29 1    
    56   27  150 1    
    57   28  151 1    
    58   28  152 1    
    59   28  153 1    
    60   29   30 am   BACKBONE|DICT|INTERRES
    61   29  154 1    
    62   30   31 2    
    63   30   32 1    
    64   32   33 1    
    65   32   34 1    
    66   32  155 1    
    67   33  156 1    
    68   33  157 1    
    69   33  158 1    
    70   34   35 am   BACKBONE|DICT|INTERRES
    71   34  159 1    
    72   35   36 2    
    73   35   37 1    
    74   37   38 1    
    75   37   39 1    
    76   37  160 1    
    77   38  161 1    
    78   38  162 1    
    79   38  163 1    
    80   39   40 am   BACKBONE|DICT|INTERRES
    81   39  164 1    
    82   40   41 2    
    83   40   42 1    
    84   42   43 1    
    85   42   44 1    
    86   42  165 1    
    87   43  166 1    
    88   43  167 1    
    89   43  168 1    
    90   44   45 am   BACKBONE|DICT|INTERRES
    91   44  169 1    
    92   45   46 2    
    93   45   47 1    
    94   47   48 1    
    95   47   49 1    
    96   47  170 1    
    97   48  171 1    
    98   48  172 1    
    99   48  173 1    
   100   49   50 am   BACKBONE|DICT|INTERRES
   101   49  174 1    
   102   50   51 2    
   103   50   52 1    
   104   52   53 1    
   105   52   54 1    
   106   52  175 1    
   107   53  176 1    
   108   53  177 1    
   109   53  178 1    
   110   54   55 am   BACKBONE|DICT|INTERRES
   111   54  179 1    
   112   55   56 2    
   113   55   57 1    
   114   57   58 1    
   115   57   59 1    
   116   57  180 1    
   117   58  181 1    
   118   58  182 1    
   119   58  183 1    
   120   59   60 am   BACKBONE|DICT|INTERRES
   121   59  184 1    
   122   60   61 2    
   123   60   62 1    
   124   62   63 1    
   125   62   64 1    
   126   62  185 1    
   127   63  186 1    
   128   63  187 1    
   129   63  188 1    
   130   64   65 am   BACKBONE|DICT|INTERRES
   131   64  189 1    
   132   65   66 2    
   133   67   68 2    
   134   67   69 am   BACKBONE|DICT|INTERRES
   135   69   70 1    
   136   69  190 1    
   137   70   71 1    
   138   70   72 1    
   139   70  191 1    
   140   71  192 1    
   141   71  193 1    
   142   71  194 1    
   143   72   73 2    
   144   72   74 am   BACKBONE|DICT|INTERRES
   145   74   75 1    
   146   74  195 1    
   147   75   76 1    
   148   75   77 1    
   149   75  196 1    
   150   76  197 1    
   151   76  198 1    
   152   76  199 1    
   153   77   78 2    
   154   77   79 am   BACKBONE|DICT|INTERRES
   155   79   80 1    
   156   79  200 1    
   157   80   81 1    
   158   80   82 1    
   159   80  201 1    
   160   81  202 1    
   161   81  203 1    
   162   81  204 1    
   163   82   83 2    
   164   82   84 am   BACKBONE|DICT|INTERRES
   165   84   85 1    
   166   84  205 1    
   167   85   86 1    
   168   85   87 1    
   169   85  206 1    
   170   86  207 1    
   171   86  208 1    
   172   86  209 1    
   173   87   88 2    
   174   87   89 am   BACKBONE|DICT|INTERRES
   175   89   90 1    
   176   89  210 1    
   177   90   91 1    
   178   90   92 1    
   179   90  211 1    
   180   91  212 1    
   181   91  213 1    
   182   91  214 1    
   183   92   93 2    
   184   92   94 am   BACKBONE|DICT|INTERRES
   185   94   95 1    
   186   94  215 1    
   187   95   96 1    
   188   95   97 1    
   189   95  216 1    
   190   96  217 1    
   191   96  218 1    
   192   96  219 1    
   193   97   98 2    
   194   97   99 am   BACKBONE|DICT|INTERRES
   195   99  100 1    
   196   99  220 1    
   197  100  101 1    
   198  100  102 1    
   199  100  221 1    
   200  101  222 1    
   201  101  223 1    
   202  101  224 1    
   203  102  103 2    
   204  102  104 am   BACKBONE|DICT|INTERRES
   205  104  105 1    
   206  104  225 1    
   207  105  106 1    
   208  105  107 1    
   209  105  226 1    
   210  106  227 1    
   211  106  228 1    
   212  106  229 1    
   213  107  108 2    
   214  107  109 am   BACKBONE|DICT|INTERRES
   215  109  110 1    
   216  109  230 1    
   217  110  111 1    
   218  110  112 1    
   219  110  231 1    
   220  111  232 1    
   221  111  233 1    
   222  111  234 1    
   223  112  113 2    
   224  112  114 am   BACKBONE|DICT|INTERRES
   225  114  115 1    
   226  114  235 1    
   227  115  116 1    
   228  115  117 1    
   229  115  236 1    
   230  116  237 1    
   231  116  238 1    
   232  116  239 1    
   233  117  118 2    
   234  117  119 am   BACKBONE|DICT|INTERRES
   235  119  120 1    
   236  119  240 1    
   237  120  121 1    
   238  120  124 1    
   239  120  241 1    
   240  121  122 am   BACKBONE|DICT|INTERRES
   241  121  123 2    
   242  122  242 1    
   243  122  243 1    
   244  124  125 1    
   245  124  244 1    
   246  124  245 1    
   247  125  126 1    
   248  126  246 1    
   249  126  247 1    
@<TRIPOS>SUBSTRUCTURE
     1 UNK         1 GROUP             0       ****    0 ROOT    
