@<TRIPOS>MOLECULE
3R540
247   249    1
SMALL
USER_CHARGES


@<TRIPOS>ATOM
      1 CA          4.2034  -11.3039  -48.5607 C.3       0 UNK        -0.1800 
      2 C           3.0894  -11.9352  -47.7398 C.2       0 UNK         0.5000 
      3 O           3.0482  -11.7493  -46.5235 O.2       0 UNK        -0.5000 
      4 N           2.1772  -12.6624  -48.4003 N.am      1 UNK        -0.5000 
      5 CA          1.0547  -13.3974  -47.7969 C.3       1 UNK         0.1400 
      6 C6          0.2386  -14.1766  -48.8588 C.3       23 UNK        -0.0398 
      7 S7          1.2039  -15.4681  -49.7177 S.3       23 UNK        -0.2404 
      8 C8         -0.0400  -16.7954  -49.7924 C.3       23 UNK        -0.0205 
      9 C9          0.4658  -18.0414  -50.5040 C.ar      23 UNK        -0.0193 
     10 C10        -0.0030  -18.3693  -51.7793 C.ar      23 UNK        -0.1150 
     11 C11         0.3964  -19.5582  -52.3949 C.ar      23 UNK        -0.0193 
     12 C12         1.2457  -20.4322  -51.7134 C.ar      23 UNK        -0.1150 
     13 C13         1.7320  -20.1203  -50.4407 C.ar      23 UNK        -0.0193 
     14 C14         1.3600  -18.9000  -49.8586 C.ar      23 UNK        -0.1150 
     15 C15         2.6386  -21.1513  -49.7631 C.3       23 UNK        -0.0205 
     16 S16         3.2891  -20.7510  -48.1031 S.3       23 UNK        -0.2404 
     17 C17         1.8082  -20.6834  -47.0397 C.3       23 UNK        -0.0398 
     18 CA          1.2220  -22.0586  -46.6334 C.3       11 UNK         0.1400 
     19 N           0.8049  -22.0587  -45.2289 N.am      11 UNK        -0.5000 
     20 C           0.3149  -23.1047  -44.5518 C.2       10 UNK         0.5000 
     21 O           0.2165  -24.2395  -45.0172 O.2       10 UNK        -0.5000 
     22 CA         -0.1980  -22.8141  -43.1300 C.3       10 UNK         0.1400 
     23 CB          0.9507  -22.8539  -42.1113 C.3       10 UNK        -0.1800 
     24 N          -0.8825  -21.5216  -43.0494 N.am      10 UNK        -0.5000 
     25 C          -2.0781  -21.2674  -43.6003 C.2       9 UNK         0.5000 
     26 O          -2.7465  -22.1121  -44.1975 O.2       9 UNK        -0.5000 
     27 CA         -2.5876  -19.8150  -43.5078 C.3       9 UNK         0.1400 
     28 CB         -3.1485  -19.5192  -42.1089 C.3       9 UNK        -0.1800 
     29 N          -1.5552  -18.8292  -43.8320 N.am      9 UNK        -0.5000 
     30 C          -0.9498  -18.7277  -45.0234 C.2       8 UNK         0.5000 
     31 O          -1.2384  -19.4183  -45.9968 O.2       8 UNK        -0.5000 
     32 CA          0.2080  -17.7246  -45.1454 C.3       8 UNK         0.1400 
     33 CB         -0.3250  -16.3500  -45.5640 C.3       8 UNK        -0.1800 
     34 N           1.0039  -17.5950  -43.9249 N.am      8 UNK        -0.5000 
     35 C           1.6476  -18.5911  -43.2989 C.2       7 UNK         0.5000 
     36 O           1.6306  -19.7623  -43.6756 O.2       7 UNK        -0.5000 
     37 CA          2.4000  -18.2219  -42.0118 C.3       7 UNK         0.1400 
     38 CB          3.7843  -17.6419  -42.3367 C.3       7 UNK        -0.1800 
     39 N           1.6384  -17.2651  -41.2106 N.am      7 UNK        -0.5000 
     40 C           0.5877  -17.5937  -40.4464 C.2       6 UNK         0.5000 
     41 O           0.1915  -18.7489  -40.2882 O.2       6 UNK        -0.5000 
     42 CA         -0.1609  -16.4330  -39.7644 C.3       6 UNK         0.1400 
     43 CB          0.5060  -16.0691  -38.4294 C.3       6 UNK        -0.1800 
     44 N          -0.2429  -15.2370  -40.6055 N.am      6 UNK        -0.5000 
     45 C          -0.9635  -15.1537  -41.7326 C.2       5 UNK         0.5000 
     46 O          -1.6553  -16.0745  -42.1697 O.2       5 UNK        -0.5000 
     47 CA         -0.8681  -13.8314  -42.5199 C.3       5 UNK         0.1400 
     48 CB         -1.9116  -12.8238  -42.0162 C.3       5 UNK        -0.1800 
     49 N           0.4553  -13.1995  -42.4997 N.am      5 UNK        -0.5000 
     50 C           1.5976  -13.7626  -42.9159 C.2       4 UNK         0.5000 
     51 O           1.6871  -14.9444  -43.2482 O.2       4 UNK        -0.5000 
     52 CA          2.8376  -12.8498  -42.9763 C.3       4 UNK         0.1400 
     53 CB          4.0453  -13.5370  -43.6386 C.3       4 UNK        -0.1800 
     54 N           2.5501  -11.6171  -43.7069 N.am      4 UNK        -0.5000 
     55 C           2.0543  -10.4949  -43.1726 C.2       3 UNK         0.5000 
     56 O           1.7381  -10.3861  -41.9874 O.2       3 UNK        -0.5000 
     57 CA          1.8428   -9.3170  -44.1341 C.3       3 UNK         0.1400 
     58 CB          3.1868   -8.7198  -44.5821 C.3       3 UNK        -0.1800 
     59 N           1.0825   -9.7405  -45.3074 N.am      3 UNK        -0.5000 
     60 C          -0.2551   -9.7368  -45.3843 C.2       2 UNK         0.5000 
     61 O          -0.9914   -9.3452  -44.4781 O.2       2 UNK        -0.5000 
     62 CA         -0.8823  -10.2445  -46.6972 C.3       2 UNK         0.1400 
     63 CB         -1.1489   -9.0714  -47.6529 C.3       2 UNK        -0.1800 
     64 N          -0.0555  -11.2380  -47.3835 N.am      2 UNK        -0.5000 
     65 C           0.1032  -12.5030  -46.9703 C.2       1 UNK         0.5000 
     66 O          -0.4614  -12.9703  -45.9821 O.2       1 UNK        -0.5000 
     67 C           0.0579  -22.4636  -47.5639 C.2       11 UNK         0.5000 
     68 O           0.2191  -23.3564  -48.3940 O.2       11 UNK        -0.5000 
     69 N          -1.1094  -21.8320  -47.3716 N.am      12 UNK        -0.5000 
     70 CA         -2.3481  -22.1188  -48.0895 C.3       12 UNK         0.1400 
     71 CB         -3.4264  -21.0963  -47.7046 C.3       12 UNK        -0.1800 
     72 C          -2.8516  -23.5489  -47.8490 C.2       12 UNK         0.5000 
     73 O          -3.2666  -24.2009  -48.8046 O.2       12 UNK        -0.5000 
     74 N          -2.7727  -24.0279  -46.5990 N.am      13 UNK        -0.5000 
     75 CA         -3.1054  -25.4037  -46.2231 C.3       13 UNK         0.1400 
     76 CB         -3.0796  -25.5499  -44.6947 C.3       13 UNK        -0.1800 
     77 C          -2.1863  -26.4400  -46.8981 C.2       13 UNK         0.5000 
     78 O          -2.6825  -27.4432  -47.4119 O.2       13 UNK        -0.5000 
     79 N          -0.8768  -26.1526  -46.9457 N.am      14 UNK        -0.5000 
     80 CA          0.1250  -26.9429  -47.6689 C.3       14 UNK         0.1400 
     81 CB          1.5326  -26.4416  -47.3127 C.3       14 UNK        -0.1800 
     82 C          -0.0937  -26.9409  -49.1965 C.2       14 UNK         0.5000 
     83 O           0.1740  -27.9491  -49.8501 O.2       14 UNK        -0.5000 
     84 N          -0.6338  -25.8353  -49.7262 N.am      15 UNK        -0.5000 
     85 CA         -1.0813  -25.6686  -51.1112 C.3       15 UNK         0.1400 
     86 CB         -1.0025  -24.1767  -51.4857 C.3       15 UNK        -0.1800 
     87 C          -2.4912  -26.2498  -51.3764 C.2       15 UNK         0.5000 
     88 O          -3.0892  -25.9261  -52.4024 O.2       15 UNK        -0.5000 
     89 N          -3.0046  -27.0884  -50.4626 N.am      16 UNK        -0.5000 
     90 CA         -4.2826  -27.8068  -50.5218 C.3       16 UNK         0.1400 
     91 CB         -4.3097  -28.7955  -51.7068 C.3       16 UNK        -0.1800 
     92 C          -5.5135  -26.8780  -50.4737 C.2       16 UNK         0.5000 
     93 O          -6.5221  -27.1517  -51.1266 O.2       16 UNK        -0.5000 
     94 N          -5.4040  -25.8020  -49.6823 N.am      17 UNK        -0.5000 
     95 CA         -6.4093  -24.7662  -49.4240 C.3       17 UNK         0.1400 
     96 CB         -7.6814  -25.3611  -48.7837 C.3       17 UNK        -0.1800 
     97 C          -6.7011  -23.8747  -50.6481 C.2       17 UNK         0.5000 
     98 O          -7.7903  -23.3065  -50.7428 O.2       17 UNK        -0.5000 
     99 N          -5.7217  -23.7501  -51.5566 N.am      18 UNK        -0.5000 
    100 CA        -5.7980  -22.9004  -52.7460 C.3       18 UNK         0.1400 
    101 CB        -4.6212  -23.2180  -53.6799 C.3       18 UNK        -0.1800 
    102 C         -5.8358  -21.4006  -52.4009 C.2       18 UNK         0.5000 
    103 O         -6.6441  -20.6701  -52.9742 O.2       18 UNK        -0.5000 
    104 N         -4.9796  -20.9835  -51.4553 N.am      19 UNK        -0.5000 
    105 CA        -4.8308  -19.6235  -50.9255 C.3       19 UNK         0.1400 
    106 CB        -6.0489  -19.2481  -50.0532 C.3       19 UNK        -0.1800 
    107 C         -4.5257  -18.5874  -52.0272 C.2       19 UNK         0.5000 
    108 O         -3.3638  -18.4143  -52.3881 O.2       19 UNK        -0.5000 
    109 N         -5.5630  -17.9197  -52.5456 N.am      20 UNK        -0.5000 
    110 CA        -5.4602  -16.9772  -53.6583 C.3       20 UNK         0.1400 
    111 CB        -6.6683  -16.0291  -53.6202 C.3       20 UNK        -0.1800 
    112 C         -5.3732  -17.6775  -55.0282 C.2       20 UNK         0.5000 
    113 O         -4.7904  -17.1128  -55.9551 O.2       20 UNK        -0.5000 
    114 N         -5.9489  -18.8844  -55.1465 N.am      21 UNK        -0.5000 
    115 CA        -6.0849  -19.6210  -56.4078 C.3       21 UNK         0.1400 
    116 CB        -7.0540  -20.7977  -56.2169 C.3       21 UNK        -0.1800 
    117 C         -4.7492  -20.1105  -56.9960 C.2       21 UNK         0.5000 
    118 O         -4.6590  -20.2886  -58.2115 O.2       21 UNK        -0.5000 
    119 N         -3.7383  -20.2987  -56.1388 N.am      22 UNK        -0.5000 
    120 CA        -2.3560  -20.5996  -56.5392 C.3       22 UNK         0.1400 
    121 C         -1.5207  -19.3498  -56.9518 C.2       22 UNK         0.5000 
    122 N         -2.0446  -18.1307  -56.8777 N.am      22 UNK        -0.7600 
    123 O         -0.3732  -19.4895  -57.3657 O.2       22 UNK        -0.5000 
    124 C124       -1.6273  -21.5016  -55.5069 C.3       23 UNK        -0.0398 
    125 S125       -1.6047  -20.8735  -53.7913 S.3       23 UNK        -0.2404 
    126 C126       -0.0691  -19.8987  -53.8008 C.3       23 UNK        -0.0205 
    127 H127        4.1857  -10.2203  -48.4445 H         1 UNK         0.0600 
    128 H128        5.1718  -11.6686  -48.2184 H         1 UNK         0.0600 
    129 H129        4.1072  -11.5353  -49.6217 H         1 UNK         0.0600 
    130 H130        2.2780  -12.7813  -49.3985 H         1 UNK         0.3000 
    131 H131        1.4917  -14.1172  -47.1028 H         1 UNK         0.0600 
    132 H132       -0.1626  -13.4945  -49.6106 H         1 UNK         0.0800 
    133 H133       -0.6278  -14.6476  -48.3902 H         1 UNK         0.0800 
    134 H134       -0.3403  -17.0685  -48.7802 H         1 UNK         0.0800 
    135 H135       -0.9368  -16.4176  -50.2868 H         1 UNK         0.0800 
    136 H136       -0.6889  -17.7079  -52.2903 H         1 UNK         0.1150 
    137 H137        1.5339  -21.3631  -52.1820 H         1 UNK         0.1150 
    138 H138        1.7421  -18.6039  -48.8946 H         1 UNK         0.1150 
    139 H139        2.1165  -22.1068  -49.7152 H         1 UNK         0.0800 
    140 H140        3.4989  -21.3170  -50.4131 H         1 UNK         0.0800 
    141 H141        1.0426  -20.0341  -47.4602 H         1 UNK         0.0800 
    142 H142        2.1536  -20.1553  -46.1521 H         1 UNK         0.0800 
    143 H143        2.0001  -22.8194  -46.7240 H         1 UNK         0.0600 
    144 H144        0.9022  -21.1794  -44.7288 H         1 UNK         0.3000 
    145 H145       -0.9120  -23.5969  -42.8657 H         1 UNK         0.0600 
    146 H146        0.5830  -22.6982  -41.0970 H         1 UNK         0.0600 
    147 H147        1.4533  -23.8217  -42.1303 H         1 UNK         0.0600 
    148 H148        1.7022  -22.0907  -42.3155 H         1 UNK         0.0600 
    149 H149       -0.3726  -20.7621  -42.6200 H         1 UNK         0.3000 
    150 H150       -3.3971  -19.7010  -44.2318 H         1 UNK         0.0600 
    151 H151       -3.9353  -20.2270  -41.8453 H         1 UNK         0.0600 
    152 H152       -3.5804  -18.5192  -42.0620 H         1 UNK         0.0600 
    153 H153       -2.3755  -19.5841  -41.3421 H         1 UNK         0.0600 
    154 H154       -1.2864  -18.1851  -43.0989 H         1 UNK         0.3000 
    155 H155        0.8771  -18.0770  -45.9313 H         1 UNK         0.0600 
    156 H156       -1.0475  -15.9655  -44.8458 H         1 UNK         0.0600 
    157 H157       -0.8273  -16.4015  -46.5297 H         1 UNK         0.0600 
    158 H158        0.4820  -15.6245  -45.6501 H         1 UNK         0.0600 
    159 H159        1.1250  -16.6491  -43.5689 H         1 UNK         0.3000 
    160 H160        2.5442  -19.1353  -41.4304 H         1 UNK         0.0600 
    161 H161        4.3294  -17.3865  -41.4279 H         1 UNK         0.0600 
    162 H162        3.7132  -16.7439  -42.9503 H         1 UNK         0.0600 
    163 H163        4.3880  -18.3651  -42.8864 H         1 UNK         0.0600 
    164 H164        1.8556  -16.2877  -41.3455 H         1 UNK         0.3000 
    165 H165       -1.1780  -16.7721  -39.5560 H         1 UNK         0.0600 
    166 H166       -0.0608  -15.3017  -37.9018 H         1 UNK         0.0600 
    167 H167        0.5635  -16.9382  -37.7726 H         1 UNK         0.0600 
    168 H168        1.5216  -15.6983  -38.5730 H         1 UNK         0.0600 
    169 H169        0.2988  -14.4346  -40.3197 H         1 UNK         0.3000 
    170 H170       -1.0995  -14.0555  -43.5615 H         1 UNK         0.0600 
    171 H171       -2.9142  -13.2529  -42.0418 H         1 UNK         0.0600 
    172 H172       -1.7109  -12.5155  -40.9894 H         1 UNK         0.0600 
    173 H173       -1.9264  -11.9290  -42.6395 H         1 UNK         0.0600 
    174 H174        0.4875  -12.2236  -42.2340 H         1 UNK         0.3000 
    175 H175        3.1148  -12.6092  -41.9481 H         1 UNK         0.0600 
    176 H176        3.8183  -13.8547  -44.6573 H         1 UNK         0.0600 
    177 H177        4.9046  -12.8677  -43.6817 H         1 UNK         0.0600 
    178 H178        4.3518  -14.4190  -43.0761 H         1 UNK         0.0600 
    179 H179        2.7374  -11.6412  -44.7074 H         1 UNK         0.3000 
    180 H180        1.2940   -8.5379  -43.6004 H         1 UNK         0.0600 
    181 H181        3.7881   -9.4383  -45.1405 H         1 UNK         0.0600 
    182 H182        3.7754   -8.3971  -43.7225 H         1 UNK         0.0600 
    183 H183        3.0353   -7.8474  -45.2178 H         1 UNK         0.0600 
    184 H184        1.6126  -10.1501  -46.0654 H         1 UNK         0.3000 
    185 H185       -1.8410  -10.7050  -46.4486 H         1 UNK         0.0600 
    186 H186       -1.7856   -8.3212  -47.1821 H         1 UNK         0.0600 
    187 H187       -0.2239   -8.5763  -47.9512 H         1 UNK         0.0600 
    188 H188       -1.6580   -9.4066  -48.5567 H         1 UNK         0.0600 
    189 H189        0.4446  -10.9304  -48.2049 H         1 UNK         0.3000 
    190 H190       -1.1518  -21.0657  -46.7019 H         1 UNK         0.3000 
    191 H191       -2.1437  -22.0102  -49.1561 H         1 UNK         0.0600 
    192 H192       -3.6335  -21.1126  -46.6342 H         1 UNK         0.0600 
    193 H193       -4.3631  -21.3029  -48.2229 H         1 UNK         0.0600 
    194 H194       -3.1210  -20.0837  -47.9681 H         1 UNK         0.0600 
    195 H195       -2.4613  -23.4117  -45.8565 H         1 UNK         0.3000 
    196 H196       -4.1254  -25.5989  -46.5609 H         1 UNK         0.0600 
    197 H197       -2.0864  -25.3668  -44.2860 H         1 UNK         0.0600 
    198 H198       -3.3763  -26.5557  -44.3952 H         1 UNK         0.0600 
    199 H199       -3.7697  -24.8519  -44.2205 H         1 UNK         0.0600 
    200 H200       -0.5396  -25.3263  -46.4594 H         1 UNK         0.3000 
    201 H201        0.0394  -27.9765  -47.3276 H         1 UNK         0.0600 
    202 H202        1.6845  -25.4070  -47.6194 H         1 UNK         0.0600 
    203 H203        2.2972  -27.0445  -47.8039 H         1 UNK         0.0600 
    204 H204        1.7113  -26.5002  -46.2389 H         1 UNK         0.0600 
    205 H205       -0.7590  -25.0319  -49.1197 H         1 UNK         0.3000 
    206 H206       -0.3918  -26.2085  -51.7629 H         1 UNK         0.0600 
    207 H207       -0.0127  -23.7674  -51.2823 H         1 UNK         0.0600 
    208 H208       -1.2012  -24.0251  -52.5474 H         1 UNK         0.0600 
    209 H209       -1.7286  -23.5832  -50.9319 H         1 UNK         0.0600 
    210 H210       -2.4678  -27.2478  -49.6194 H         1 UNK         0.3000 
    211 H211       -4.3284  -28.4005  -49.6077 H         1 UNK         0.0600 
    212 H212       -4.3389  -28.2794  -52.6668 H         1 UNK         0.0600 
    213 H213       -5.1880  -29.4401  -51.6574 H         1 UNK         0.0600 
    214 H214       -3.4332  -29.4433  -51.6999 H         1 UNK         0.0600 
    215 H215       -4.4966  -25.6094  -49.2667 H         1 UNK         0.3000 
    216 H216       -5.9647  -24.1020  -48.6822 H         1 UNK         0.0600 
    217 H217       -7.4357  -25.9836  -47.9233 H         1 UNK         0.0600 
    218 H218       -8.3464  -24.5719  -48.4311 H         1 UNK         0.0600 
    219 H219       -8.2468  -25.9697  -49.4896 H         1 UNK         0.0600 
    220 H220       -4.8711  -24.2802  -51.4242 H         1 UNK         0.3000 
    221 H221       -6.7227  -23.1406  -53.2749 H         1 UNK         0.0600 
    222 H222       -3.6613  -23.0785  -53.1817 H         1 UNK         0.0600 
    223 H223       -4.6661  -24.2494  -54.0298 H         1 UNK         0.0600 
    224 H224       -4.6315  -22.5771  -54.5615 H         1 UNK         0.0600 
    225 H225       -4.3423  -21.6682  -51.0771 H         1 UNK         0.3000 
    226 H226       -3.9545  -19.6390  -50.2765 H         1 UNK         0.0600 
    227 H227       -6.1441  -19.9256  -49.2050 H         1 UNK         0.0600 
    228 H228       -5.9456  -18.2401  -49.6495 H         1 UNK         0.0600 
    229 H229       -6.9871  -19.2891  -50.6071 H         1 UNK         0.0600 
    230 H230       -6.4921  -18.1477  -52.2219 H         1 UNK         0.3000 
    231 H231       -4.5558  -16.3774  -53.5339 H         1 UNK         0.0600 
    232 H232       -6.7077  -15.4784  -52.6801 H         1 UNK         0.0600 
    233 H233       -7.6089  -16.5698  -53.7330 H         1 UNK         0.0600 
    234 H234       -6.6134  -15.2940  -54.4243 H         1 UNK         0.0600 
    235 H235       -6.3505  -19.3245  -54.3229 H         1 UNK         0.3000 
    236 H236       -6.5276  -18.9396  -57.1374 H         1 UNK         0.0600 
    237 H237       -6.6529  -21.5454  -55.5335 H         1 UNK         0.0600 
    238 H238       -8.0130  -20.4616  -55.8221 H         1 UNK         0.0600 
    239 H239       -7.2506  -21.2976  -57.1662 H         1 UNK         0.0600 
    240 H240       -3.8823  -20.1008  -55.1591 H         1 UNK         0.3000 
    241 H241       -2.4071  -21.1940  -57.4535 H         1 UNK         0.0600 
    242 H242       -1.4869  -17.3403  -57.1594 H         1 UNK         0.3800 
    243 H243       -2.9939  -17.9789  -56.5587 H         1 UNK         0.3800 
    244 H244       -2.1268  -22.4707  -55.4789 H         1 UNK         0.0800 
    245 H245       -0.6091  -21.7216  -55.8317 H         1 UNK         0.0800 
    246 H246       -0.2276  -18.9805  -54.3675 H         1 UNK         0.0800 
    247 H247        0.7163  -20.4493  -54.3206 H         1 UNK         0.0800 
@<TRIPOS>BOND
     1    1    2 1    
     2    1  127 1    
     3    1  128 1    
     4    1  129 1    
     5    2    3 2    
     6    2    4 am   BACKBONE|DICT|INTERRES
     7    4    5 1    
     8    4  130 1    
     9    5    6 1    
    10    5   65 1    
    11    5  131 1    
    12    6    7 1    
    13    6  132 1    
    14    6  133 1    
    15    7    8 1    
    16    8    9 1    
    17    8  134 1    
    18    8  135 1    
    19    9   10 ar   
    20    9   14 ar   
    21   10   11 ar   
    22   10  136 1    
    23   11   12 ar   
    24   11  126 1    
    25   12   13 ar   
    26   12  137 1    
    27   13   14 ar   
    28   13   15 1    
    29   14  138 1    
    30   15   16 1    
    31   15  139 1    
    32   15  140 1    
    33   16   17 1    
    34   17   18 1    
    35   17  141 1    
    36   17  142 1    
    37   18   19 1    
    38   18   67 1    
    39   18  143 1    
    40   19   20 am   BACKBONE|DICT|INTERRES
    41   19  144 1    
    42   20   21 2    
    43   20   22 1    
    44   22   23 1    
    45   22   24 1    
    46   22  145 1    
    47   23  146 1    
    48   23  147 1    
    49   23  148 1    
    50   24   25 am   BACKBONE|DICT|INTERRES
    51   24  149 1    
    52   25   26 2    
    53   25   27 1    
    54   27   28 1    
    55   27   29 1    
    56   27  150 1    
    57   28  151 1    
    58   28  152 1    
    59   28  153 1    
    60   29   30 am   BACKBONE|DICT|INTERRES
    61   29  154 1    
    62   30   31 2    
    63   30   32 1    
    64   32   33 1    
    65   32   34 1    
    66   32  155 1    
    67   33  156 1    
    68   33  157 1    
    69   33  158 1    
    70   34   35 am   BACKBONE|DICT|INTERRES
    71   34  159 1    
    72   35   36 2    
    73   35   37 1    
    74   37   38 1    
    75   37   39 1    
    76   37  160 1    
    77   38  161 1    
    78   38  162 1    
    79   38  163 1    
    80   39   40 am   BACKBONE|DICT|INTERRES
    81   39  164 1    
    82   40   41 2    
    83   40   42 1    
    84   42   43 1    
    85   42   44 1    
    86   42  165 1    
    87   43  166 1    
    88   43  167 1    
    89   43  168 1    
    90   44   45 am   BACKBONE|DICT|INTERRES
    91   44  169 1    
    92   45   46 2    
    93   45   47 1    
    94   47   48 1    
    95   47   49 1    
    96   47  170 1    
    97   48  171 1    
    98   48  172 1    
    99   48  173 1    
   100   49   50 am   BACKBONE|DICT|INTERRES
   101   49  174 1    
   102   50   51 2    
   103   50   52 1    
   104   52   53 1    
   105   52   54 1    
   106   52  175 1    
   107   53  176 1    
   108   53  177 1    
   109   53  178 1    
   110   54   55 am   BACKBONE|DICT|INTERRES
   111   54  179 1    
   112   55   56 2    
   113   55   57 1    
   114   57   58 1    
   115   57   59 1    
   116   57  180 1    
   117   58  181 1    
   118   58  182 1    
   119   58  183 1    
   120   59   60 am   BACKBONE|DICT|INTERRES
   121   59  184 1    
   122   60   61 2    
   123   60   62 1    
   124   62   63 1    
   125   62   64 1    
   126   62  185 1    
   127   63  186 1    
   128   63  187 1    
   129   63  188 1    
   130   64   65 am   BACKBONE|DICT|INTERRES
   131   64  189 1    
   132   65   66 2    
   133   67   68 2    
   134   67   69 am   BACKBONE|DICT|INTERRES
   135   69   70 1    
   136   69  190 1    
   137   70   71 1    
   138   70   72 1    
   139   70  191 1    
   140   71  192 1    
   141   71  193 1    
   142   71  194 1    
   143   72   73 2    
   144   72   74 am   BACKBONE|DICT|INTERRES
   145   74   75 1    
   146   74  195 1    
   147   75   76 1    
   148   75   77 1    
   149   75  196 1    
   150   76  197 1    
   151   76  198 1    
   152   76  199 1    
   153   77   78 2    
   154   77   79 am   BACKBONE|DICT|INTERRES
   155   79   80 1    
   156   79  200 1    
   157   80   81 1    
   158   80   82 1    
   159   80  201 1    
   160   81  202 1    
   161   81  203 1    
   162   81  204 1    
   163   82   83 2    
   164   82   84 am   BACKBONE|DICT|INTERRES
   165   84   85 1    
   166   84  205 1    
   167   85   86 1    
   168   85   87 1    
   169   85  206 1    
   170   86  207 1    
   171   86  208 1    
   172   86  209 1    
   173   87   88 2    
   174   87   89 am   BACKBONE|DICT|INTERRES
   175   89   90 1    
   176   89  210 1    
   177   90   91 1    
   178   90   92 1    
   179   90  211 1    
   180   91  212 1    
   181   91  213 1    
   182   91  214 1    
   183   92   93 2    
   184   92   94 am   BACKBONE|DICT|INTERRES
   185   94   95 1    
   186   94  215 1    
   187   95   96 1    
   188   95   97 1    
   189   95  216 1    
   190   96  217 1    
   191   96  218 1    
   192   96  219 1    
   193   97   98 2    
   194   97   99 am   BACKBONE|DICT|INTERRES
   195   99  100 1    
   196   99  220 1    
   197  100  101 1    
   198  100  102 1    
   199  100  221 1    
   200  101  222 1    
   201  101  223 1    
   202  101  224 1    
   203  102  103 2    
   204  102  104 am   BACKBONE|DICT|INTERRES
   205  104  105 1    
   206  104  225 1    
   207  105  106 1    
   208  105  107 1    
   209  105  226 1    
   210  106  227 1    
   211  106  228 1    
   212  106  229 1    
   213  107  108 2    
   214  107  109 am   BACKBONE|DICT|INTERRES
   215  109  110 1    
   216  109  230 1    
   217  110  111 1    
   218  110  112 1    
   219  110  231 1    
   220  111  232 1    
   221  111  233 1    
   222  111  234 1    
   223  112  113 2    
   224  112  114 am   BACKBONE|DICT|INTERRES
   225  114  115 1    
   226  114  235 1    
   227  115  116 1    
   228  115  117 1    
   229  115  236 1    
   230  116  237 1    
   231  116  238 1    
   232  116  239 1    
   233  117  118 2    
   234  117  119 am   BACKBONE|DICT|INTERRES
   235  119  120 1    
   236  119  240 1    
   237  120  121 1    
   238  120  124 1    
   239  120  241 1    
   240  121  122 am   BACKBONE|DICT|INTERRES
   241  121  123 2    
   242  122  242 1    
   243  122  243 1    
   244  124  125 1    
   245  124  244 1    
   246  124  245 1    
   247  125  126 1    
   248  126  246 1    
   249  126  247 1    
@<TRIPOS>SUBSTRUCTURE
     1 UNK         1 GROUP             0       ****    0 ROOT    
