@<TRIPOS>MOLECULE
3R540
247   249    1
SMALL
USER_CHARGES


@<TRIPOS>ATOM
      1 CA          2.3909  -11.1425  -51.8660 C.3       0 UNK        -0.1800 
      2 C           1.4424  -12.3312  -51.9988 C.2       0 UNK         0.5000 
      3 O           1.1416  -12.7392  -53.1187 O.2       0 UNK        -0.5000 
      4 N           0.9424  -12.9169  -50.9051 N.am      1 UNK        -0.5000 
      5 CA          1.1242  -12.5205  -49.5058 C.3       1 UNK         0.1400 
      6 C6          2.0202  -13.5122  -48.7164 C.3       23 UNK        -0.0398 
      7 S7          3.7294  -13.6098  -49.3449 S.3       23 UNK        -0.2404 
      8 C8          4.1315  -15.3673  -49.0436 C.3       23 UNK        -0.0205 
      9 C9          3.2975  -16.3848  -49.8246 C.ar      23 UNK        -0.0193 
     10 C10         2.6300  -16.0575  -51.0133 C.ar      23 UNK        -0.1150 
     11 C11         1.8603  -17.0079  -51.6887 C.ar      23 UNK        -0.0193 
     12 C12         1.7973  -18.3098  -51.1914 C.ar      23 UNK        -0.1150 
     13 C13         2.4785  -18.6637  -50.0252 C.ar      23 UNK        -0.0193 
     14 C14         3.2160  -17.6948  -49.3403 C.ar      23 UNK        -0.1150 
     15 C15         2.4274  -20.0990  -49.5304 C.3       23 UNK        -0.0205 
     16 S16         0.8119  -20.4861  -48.7954 S.3       23 UNK        -0.2404 
     17 C17         0.7603  -22.2986  -49.0030 C.3       23 UNK        -0.0398 
     18 CA          0.0879  -23.0723  -47.8450 C.3       11 UNK         0.1400 
     19 N           0.7349  -22.8637  -46.5483 N.am      11 UNK        -0.5000 
     20 C           0.5733  -23.6808  -45.4995 C.2       10 UNK         0.5000 
     21 O          -0.1697  -24.6620  -45.5299 O.2       10 UNK        -0.5000 
     22 CA          1.2994  -23.3510  -44.1829 C.3       10 UNK         0.1400 
     23 CB          2.1212  -24.5480  -43.6650 C.3       10 UNK        -0.1800 
     24 N           2.0948  -22.1204  -44.1996 N.am      10 UNK        -0.5000 
     25 C           3.2558  -21.8655  -44.8203 C.2       9 UNK         0.5000 
     26 O           3.8317  -22.6689  -45.5537 O.2       9 UNK        -0.5000 
     27 CA          3.8776  -20.4684  -44.5985 C.3       9 UNK         0.1400 
     28 CB          3.8773  -19.6671  -45.9098 C.3       9 UNK        -0.1800 
     29 N           3.1962  -19.6818  -43.5662 N.am      9 UNK        -0.5000 
     30 C           3.2709  -19.8972  -42.2452 C.2       8 UNK         0.5000 
     31 O           4.0134  -20.7330  -41.7297 O.2       8 UNK        -0.5000 
     32 CA          2.3071  -19.0826  -41.3590 C.3       8 UNK         0.1400 
     33 CB          2.9207  -17.7262  -40.9817 C.3       8 UNK        -0.1800 
     34 N           0.9978  -18.8779  -41.9887 N.am      8 UNK        -0.5000 
     35 C           0.1248  -19.8599  -42.2596 C.2       7 UNK         0.5000 
     36 O           0.3081  -21.0353  -41.9478 O.2       7 UNK        -0.5000 
     37 CA         -1.1349  -19.4886  -43.0597 C.3       7 UNK         0.1400 
     38 CB         -2.2327  -18.9402  -42.1379 C.3       7 UNK        -0.1800 
     39 N          -0.8436  -18.5284  -44.1241 N.am      7 UNK        -0.5000 
     40 C          -0.1776  -18.8260  -45.2487 C.2       6 UNK         0.5000 
     41 O           0.1536  -19.9733  -45.5500 O.2       6 UNK        -0.5000 
     42 CA          0.1942  -17.6542  -46.1812 C.3       6 UNK         0.1400 
     43 CB         -0.9049  -17.4036  -47.2194 C.3       6 UNK        -0.1800 
     44 N           0.4602  -16.4114  -45.4568 N.am      6 UNK        -0.5000 
     45 C           1.4991  -16.2254  -44.6330 C.2       5 UNK         0.5000 
     46 O           2.3722  -17.0689  -44.4393 O.2       5 UNK        -0.5000 
     47 CA          1.5362  -14.9029  -43.8492 C.3       5 UNK         0.1400 
     48 CB          2.1283  -13.7666  -44.6943 C.3       5 UNK        -0.1800 
     49 N           0.2102  -14.5168  -43.3680 N.am      5 UNK        -0.5000 
     50 C          -0.4436  -15.1388  -42.3780 C.2       4 UNK         0.5000 
     51 O           0.0195  -16.0888  -41.7477 O.2       4 UNK        -0.5000 
     52 CA         -1.8667  -14.6385  -42.0676 C.3       4 UNK         0.1400 
     53 CB         -1.8203  -13.4186  -41.1357 C.3       4 UNK        -0.1800 
     54 N          -2.6220  -14.2984  -43.2751 N.am      4 UNK        -0.5000 
     55 C          -3.0220  -15.1919  -44.1909 C.2       3 UNK         0.5000 
     56 O          -2.8202  -16.4007  -44.0977 O.2       3 UNK        -0.5000 
     57 CA         -3.7187  -14.6387  -45.4479 C.3       3 UNK         0.1400 
     58 CB         -5.2258  -14.4754  -45.2019 C.3       3 UNK        -0.1800 
     59 N          -3.1615  -13.3692  -45.9261 N.am      3 UNK        -0.5000 
     60 C          -1.8855  -13.1861  -46.2897 C.2       2 UNK         0.5000 
     61 O          -1.0155  -14.0548  -46.1895 O.2       2 UNK        -0.5000 
     62 CA         -1.5109  -11.7826  -46.8037 C.3       2 UNK         0.1400 
     63 CB         -1.2249  -10.8471  -45.6185 C.3       2 UNK        -0.1800 
     64 N          -0.3306  -11.8132  -47.6697 N.am      2 UNK        -0.5000 
     65 C          -0.2683  -12.4405  -48.8519 C.2       1 UNK         0.5000 
     66 O          -1.2446  -12.9577  -49.4043 O.2       1 UNK        -0.5000 
     67 C          -1.4334  -22.8416  -47.7652 C.2       11 UNK         0.5000 
     68 O          -2.1936  -23.6859  -48.2381 O.2       11 UNK        -0.5000 
     69 N          -1.8569  -21.7575  -47.0954 N.am      12 UNK        -0.5000 
     70 CA         -3.2746  -21.4637  -46.8617 C.3       12 UNK         0.1400 
     71 CB         -3.4568  -20.0056  -46.4182 C.3       12 UNK        -0.1800 
     72 C          -3.9216  -22.4167  -45.8430 C.2       12 UNK         0.5000 
     73 O          -5.1340  -22.6095  -45.8935 O.2       12 UNK        -0.5000 
     74 N          -3.1130  -23.0109  -44.9548 N.am      13 UNK        -0.5000 
     75 CA         -3.5535  -24.0457  -44.0210 C.3       13 UNK         0.1400 
     76 CB         -2.5215  -24.2030  -42.8930 C.3       13 UNK        -0.1800 
     77 C          -3.8038  -25.3818  -44.7441 C.2       13 UNK         0.5000 
     78 O          -4.8314  -26.0163  -44.5065 O.2       13 UNK        -0.5000 
     79 N          -2.8749  -25.7674  -45.6310 N.am      14 UNK        -0.5000 
     80 CA         -2.9432  -26.9865  -46.4358 C.3       14 UNK         0.1400 
     81 CB         -1.5731  -27.2484  -47.0804 C.3       14 UNK        -0.1800 
     82 C          -4.0485  -26.9394  -47.5058 C.2       14 UNK         0.5000 
     83 O          -4.8092  -27.8996  -47.6340 O.2       14 UNK        -0.5000 
     84 N          -4.1216  -25.8284  -48.2517 N.am      15 UNK        -0.5000 
     85 CA         -5.0965  -25.6235  -49.3269 C.3       15 UNK         0.1400 
     86 CB         -4.5538  -24.5604  -50.2919 C.3       15 UNK        -0.1800 
     87 C          -6.4924  -25.2146  -48.8195 C.2       15 UNK         0.5000 
     88 O          -7.4556  -25.3013  -49.5805 O.2       15 UNK        -0.5000 
     89 N          -6.5675  -24.7465  -47.5655 N.am      16 UNK        -0.5000 
     90 CA         -7.7289  -24.2171  -46.8365 C.3       16 UNK         0.1400 
     91 CB         -8.8963  -25.2239  -46.8113 C.3       16 UNK        -0.1800 
     92 C          -8.1931  -22.8149  -47.2891 C.2       16 UNK         0.5000 
     93 O          -8.9466  -22.1740  -46.5546 O.2       16 UNK        -0.5000 
     94 N          -7.7328  -22.3442  -48.4536 N.am      17 UNK        -0.5000 
     95 CA         -8.0085  -21.0371  -49.0390 C.3       17 UNK         0.1400 
     96 CB         -9.4688  -20.9666  -49.5297 C.3       17 UNK        -0.1800 
     97 C          -7.0383  -20.8046  -50.2077 C.2       17 UNK         0.5000 
     98 O          -6.4454  -21.7619  -50.7089 O.2       17 UNK        -0.5000 
     99 N          -6.9223  -19.5381  -50.6319 N.am      18 UNK        -0.5000 
    100 CA        -6.2152  -19.0539  -51.8287 C.3       18 UNK         0.1400 
    101 CB        -6.8469  -19.6408  -53.1093 C.3       18 UNK        -0.1800 
    102 C         -4.6794  -19.2204  -51.8161 C.2       18 UNK         0.5000 
    103 O         -4.0504  -19.0595  -52.8643 O.2       18 UNK        -0.5000 
    104 N         -4.0913  -19.5010  -50.6432 N.am      19 UNK        -0.5000 
    105 CA        -2.6561  -19.7092  -50.4197 C.3       19 UNK         0.1400 
    106 CB        -1.8967  -18.3718  -50.5814 C.3       19 UNK        -0.1800 
    107 C         -2.1155  -20.8639  -51.2928 C.2       19 UNK         0.5000 
    108 O         -2.6282  -21.9769  -51.1909 O.2       19 UNK        -0.5000 
    109 N         -1.1225  -20.5842  -52.1454 N.am      20 UNK        -0.5000 
    110 CA        -0.5923  -21.5156  -53.1456 C.3       20 UNK         0.1400 
    111 CB         0.9450  -21.4792  -53.1022 C.3       20 UNK        -0.1800 
    112 C         -1.1121  -21.1987  -54.5636 C.2       20 UNK         0.5000 
    113 O         -0.5854  -21.7563  -55.5274 O.2       20 UNK        -0.5000 
    114 N         -2.1116  -20.3070  -54.6761 N.am      21 UNK        -0.5000 
    115 CA        -2.6998  -19.7862  -55.9150 C.3       21 UNK         0.1400 
    116 CB        -3.4724  -20.8912  -56.6658 C.3       21 UNK        -0.1800 
    117 C         -1.6625  -19.0532  -56.7926 C.2       21 UNK         0.5000 
    118 O         -1.5601  -19.3196  -57.9921 O.2       21 UNK        -0.5000 
    119 N         -0.8947  -18.1571  -56.1565 N.am      22 UNK        -0.5000 
    120 CA         0.1397  -17.3155  -56.7801 C.3       22 UNK         0.1400 
    121 C         -0.4118  -16.4063  -57.9163 C.2       22 UNK         0.5000 
    122 N          0.3330  -16.2346  -59.0001 N.am      22 UNK        -0.7600 
    123 O         -1.4858  -15.8193  -57.8021 O.2       22 UNK        -0.5000 
    124 C124        0.8794  -16.4440  -55.7323 C.3       23 UNK        -0.0398 
    125 S125        1.7327  -17.4103  -54.4374 S.3       23 UNK        -0.2404 
    126 C126        1.0763  -16.6200  -52.9347 C.3       23 UNK        -0.0205 
    127 H127        3.2161  -11.3666  -51.1914 H         1 UNK         0.0600 
    128 H128        2.8187  -10.8851  -52.8351 H         1 UNK         0.0600 
    129 H129        1.8580  -10.2681  -51.4927 H         1 UNK         0.0600 
    130 H130        0.2496  -13.6436  -51.0222 H         1 UNK         0.3000 
    131 H131        1.5587  -11.5224  -49.4395 H         1 UNK         0.0600 
    132 H132        1.5706  -14.5069  -48.7111 H         1 UNK         0.0800 
    133 H133        2.0946  -13.2105  -47.6726 H         1 UNK         0.0800 
    134 H134        4.0345  -15.5583  -47.9734 H         1 UNK         0.0800 
    135 H135        5.1817  -15.5257  -49.2914 H         1 UNK         0.0800 
    136 H136        2.6939  -15.0576  -51.4146 H         1 UNK         0.1150 
    137 H137        1.2152  -19.0518  -51.7125 H         1 UNK         0.1150 
    138 H138        3.7382  -17.9641  -48.4330 H         1 UNK         0.1150 
    139 H139        2.6268  -20.7644  -50.3706 H         1 UNK         0.0800 
    140 H140        3.2119  -20.2897  -48.7979 H         1 UNK         0.0800 
    141 H141        1.7803  -22.6677  -49.1181 H         1 UNK         0.0800 
    142 H142        0.2597  -22.5223  -49.9466 H         1 UNK         0.0800 
    143 H143        0.2139  -24.1306  -48.0861 H         1 UNK         0.0600 
    144 H144        1.2877  -22.0248  -46.4387 H         1 UNK         0.3000 
    145 H145        0.5068  -23.1729  -43.4565 H         1 UNK         0.0600 
    146 H146        2.6027  -24.3140  -42.7154 H         1 UNK         0.0600 
    147 H147        1.4825  -25.4162  -43.4981 H         1 UNK         0.0600 
    148 H148        2.8953  -24.8478  -44.3715 H         1 UNK         0.0600 
    149 H149        1.7048  -21.3723  -43.6412 H         1 UNK         0.3000 
    150 H150        4.9138  -20.6170  -44.2883 H         1 UNK         0.0600 
    151 H151        4.4552  -20.1791  -46.6798 H         1 UNK         0.0600 
    152 H152        4.3228  -18.6816  -45.7730 H         1 UNK         0.0600 
    153 H153        2.8667  -19.5281  -46.2939 H         1 UNK         0.0600 
    154 H154        2.6321  -18.9025  -43.8941 H         1 UNK         0.3000 
    155 H155        2.1482  -19.6477  -40.4382 H         1 UNK         0.0600 
    156 H156        3.1073  -17.1079  -41.8593 H         1 UNK         0.0600 
    157 H157        3.8730  -17.8594  -40.4670 H         1 UNK         0.0600 
    158 H158        2.2646  -17.1688  -40.3129 H         1 UNK         0.0600 
    159 H159        0.7475  -17.9218  -42.2179 H         1 UNK         0.3000 
    160 H160       -1.5141  -20.4043  -43.5187 H         1 UNK         0.0600 
    161 H161       -3.1551  -18.7611  -42.6905 H         1 UNK         0.0600 
    162 H162       -1.9361  -18.0025  -41.6683 H         1 UNK         0.0600 
    163 H163       -2.4640  -19.6487  -41.3416 H         1 UNK         0.0600 
    164 H164       -1.1873  -17.5833  -43.9924 H         1 UNK         0.3000 
    165 H165        1.1034  -17.9334  -46.7173 H         1 UNK         0.0600 
    166 H166       -0.6205  -16.6108  -47.9119 H         1 UNK         0.0600 
    167 H167       -1.0829  -18.3011  -47.8098 H         1 UNK         0.0600 
    168 H168       -1.8466  -17.1188  -46.7497 H         1 UNK         0.0600 
    169 H169       -0.1904  -15.6433  -45.6030 H         1 UNK         0.3000 
    170 H170        2.1869  -15.0508  -42.9848 H         1 UNK         0.0600 
    171 H171        3.0874  -14.0548  -45.1270 H         1 UNK         0.0600 
    172 H172        1.4648  -13.4898  -45.5115 H         1 UNK         0.0600 
    173 H173        2.2978  -12.8761  -44.0890 H         1 UNK         0.0600 
    174 H174       -0.2671  -13.7939  -43.8858 H         1 UNK         0.3000 
    175 H175       -2.3959  -15.4420  -41.5508 H         1 UNK         0.0600 
    176 H176       -2.8237  -13.1055  -40.8463 H         1 UNK         0.0600 
    177 H177       -1.2759  -13.6489  -40.2189 H         1 UNK         0.0600 
    178 H178       -1.3255  -12.5683  -41.6067 H         1 UNK         0.0600 
    179 H179       -2.8268  -13.3226  -43.4306 H         1 UNK         0.3000 
    180 H180       -3.5837  -15.3741  -46.2436 H         1 UNK         0.0600 
    181 H181       -5.4310  -13.7208  -44.4415 H         1 UNK         0.0600 
    182 H182       -5.6697  -15.4125  -44.8629 H         1 UNK         0.0600 
    183 H183       -5.7455  -14.1834  -46.1146 H         1 UNK         0.0600 
    184 H184       -3.8119  -12.6025  -46.0209 H         1 UNK         0.3000 
    185 H185       -2.3491  -11.3847  -47.3793 H         1 UNK         0.0600 
    186 H186       -0.3882  -11.2038  -45.0160 H         1 UNK         0.0600 
    187 H187       -0.9865   -9.8396  -45.9600 H         1 UNK         0.0600 
    188 H188       -2.0917  -10.7669  -44.9612 H         1 UNK         0.0600 
    189 H189        0.5117  -11.4184  -47.2787 H         1 UNK         0.3000 
    190 H190       -1.1684  -21.1282  -46.6941 H         1 UNK         0.3000 
    191 H191       -3.8077  -21.5942  -47.8064 H         1 UNK         0.0600 
    192 H192       -3.0739  -19.3110  -47.1624 H         1 UNK         0.0600 
    193 H193       -2.9574  -19.8057  -45.4717 H         1 UNK         0.0600 
    194 H194       -4.5132  -19.7718  -46.2795 H         1 UNK         0.0600 
    195 H195       -2.1245  -22.8186  -44.9997 H         1 UNK         0.3000 
    196 H196       -4.4949  -23.7246  -43.5694 H         1 UNK         0.0600 
    197 H197       -2.8791  -24.9052  -42.1391 H         1 UNK         0.0600 
    198 H198       -2.3354  -23.2535  -42.3905 H         1 UNK         0.0600 
    199 H199       -1.5679  -24.5813  -43.2599 H         1 UNK         0.0600 
    200 H200       -2.0286  -25.2146  -45.7299 H         1 UNK         0.3000 
    201 H201       -3.1645  -27.8201  -45.7659 H         1 UNK         0.0600 
    202 H202       -0.8004  -27.3770  -46.3222 H         1 UNK         0.0600 
    203 H203       -1.2688  -26.4258  -47.7290 H         1 UNK         0.0600 
    204 H204       -1.5908  -28.1562  -47.6846 H         1 UNK         0.0600 
    205 H205       -3.4340  -25.0894  -48.1178 H         1 UNK         0.3000 
    206 H206       -5.2086  -26.5569  -49.8826 H         1 UNK         0.0600 
    207 H207       -3.5770  -24.8412  -50.6862 H         1 UNK         0.0600 
    208 H208       -5.2213  -24.4223  -51.1433 H         1 UNK         0.0600 
    209 H209       -4.4483  -23.5914  -49.8021 H         1 UNK         0.0600 
    210 H210       -5.6981  -24.6816  -47.0539 H         1 UNK         0.3000 
    211 H211       -7.3886  -24.1002  -45.8066 H         1 UNK         0.0600 
    212 H212       -9.3585  -25.3402  -47.7916 H         1 UNK         0.0600 
    213 H213       -9.6771  -24.8931  -46.1255 H         1 UNK         0.0600 
    214 H214       -8.5640  -26.2060  -46.4749 H         1 UNK         0.0600 
    215 H215       -7.1211  -22.9237  -49.0153 H         1 UNK         0.3000 
    216 H216       -7.8331  -20.2691  -48.2831 H         1 UNK         0.0600 
    217 H217       -9.6811  -20.0079  -50.0043 H         1 UNK         0.0600 
    218 H218      -10.1758  -21.0772  -48.7078 H         1 UNK         0.0600 
    219 H219       -9.6816  -21.7482  -50.2603 H         1 UNK         0.0600 
    220 H220       -7.4360  -18.8259  -50.1311 H         1 UNK         0.3000 
    221 H221       -6.3858  -17.9768  -51.8524 H         1 UNK         0.0600 
    222 H222       -6.6542  -20.7100  -53.2019 H         1 UNK         0.0600 
    223 H223       -7.9265  -19.4914  -53.1217 H         1 UNK         0.0600 
    224 H224       -6.4456  -19.1606  -54.0026 H         1 UNK         0.0600 
    225 H225       -4.6931  -19.6511  -49.8479 H         1 UNK         0.3000 
    226 H226       -2.5384  -20.0328  -49.3864 H         1 UNK         0.0600 
    227 H227       -2.3244  -17.6041  -49.9365 H         1 UNK         0.0600 
    228 H228       -0.8508  -18.4744  -50.2962 H         1 UNK         0.0600 
    229 H229       -1.9310  -17.9917  -51.6024 H         1 UNK         0.0600 
    230 H230       -0.7756  -19.6379  -52.1833 H         1 UNK         0.3000 
    231 H231       -0.9044  -22.5361  -52.9155 H         1 UNK         0.0600 
    232 H232        1.3157  -21.6565  -52.0940 H         1 UNK         0.0600 
    233 H233        1.3380  -20.5236  -53.4503 H         1 UNK         0.0600 
    234 H234        1.3715  -22.2545  -53.7396 H         1 UNK         0.0600 
    235 H235       -2.5255  -19.9327  -53.8277 H         1 UNK         0.3000 
    236 H236       -3.4276  -19.0314  -55.6135 H         1 UNK         0.0600 
    237 H237       -4.0060  -20.4790  -57.5229 H         1 UNK         0.0600 
    238 H238       -2.8094  -21.6720  -57.0391 H         1 UNK         0.0600 
    239 H239       -4.2132  -21.3607  -56.0185 H         1 UNK         0.0600 
    240 H240       -1.0444  -18.0126  -55.1702 H         1 UNK         0.3000 
    241 H241        0.8674  -17.9978  -57.2237 H         1 UNK         0.0600 
    242 H242       -0.0058  -15.6353  -59.7371 H         1 UNK         0.3800 
    243 H243        1.2209  -16.6997  -59.1125 H         1 UNK         0.3800 
    244 H244        0.1810  -15.7431  -55.2713 H         1 UNK         0.0800 
    245 H245        1.6381  -15.8296  -56.2206 H         1 UNK         0.0800 
    246 H246        0.0291  -16.8957  -52.8070 H         1 UNK         0.0800 
    247 H247        1.0960  -15.5367  -53.0634 H         1 UNK         0.0800 
@<TRIPOS>BOND
     1    1    2 1    
     2    1  127 1    
     3    1  128 1    
     4    1  129 1    
     5    2    3 2    
     6    2    4 am   BACKBONE|DICT|INTERRES
     7    4    5 1    
     8    4  130 1    
     9    5    6 1    
    10    5   65 1    
    11    5  131 1    
    12    6    7 1    
    13    6  132 1    
    14    6  133 1    
    15    7    8 1    
    16    8    9 1    
    17    8  134 1    
    18    8  135 1    
    19    9   10 ar   
    20    9   14 ar   
    21   10   11 ar   
    22   10  136 1    
    23   11   12 ar   
    24   11  126 1    
    25   12   13 ar   
    26   12  137 1    
    27   13   14 ar   
    28   13   15 1    
    29   14  138 1    
    30   15   16 1    
    31   15  139 1    
    32   15  140 1    
    33   16   17 1    
    34   17   18 1    
    35   17  141 1    
    36   17  142 1    
    37   18   19 1    
    38   18   67 1    
    39   18  143 1    
    40   19   20 am   BACKBONE|DICT|INTERRES
    41   19  144 1    
    42   20   21 2    
    43   20   22 1    
    44   22   23 1    
    45   22   24 1    
    46   22  145 1    
    47   23  146 1    
    48   23  147 1    
    49   23  148 1    
    50   24   25 am   BACKBONE|DICT|INTERRES
    51   24  149 1    
    52   25   26 2    
    53   25   27 1    
    54   27   28 1    
    55   27   29 1    
    56   27  150 1    
    57   28  151 1    
    58   28  152 1    
    59   28  153 1    
    60   29   30 am   BACKBONE|DICT|INTERRES
    61   29  154 1    
    62   30   31 2    
    63   30   32 1    
    64   32   33 1    
    65   32   34 1    
    66   32  155 1    
    67   33  156 1    
    68   33  157 1    
    69   33  158 1    
    70   34   35 am   BACKBONE|DICT|INTERRES
    71   34  159 1    
    72   35   36 2    
    73   35   37 1    
    74   37   38 1    
    75   37   39 1    
    76   37  160 1    
    77   38  161 1    
    78   38  162 1    
    79   38  163 1    
    80   39   40 am   BACKBONE|DICT|INTERRES
    81   39  164 1    
    82   40   41 2    
    83   40   42 1    
    84   42   43 1    
    85   42   44 1    
    86   42  165 1    
    87   43  166 1    
    88   43  167 1    
    89   43  168 1    
    90   44   45 am   BACKBONE|DICT|INTERRES
    91   44  169 1    
    92   45   46 2    
    93   45   47 1    
    94   47   48 1    
    95   47   49 1    
    96   47  170 1    
    97   48  171 1    
    98   48  172 1    
    99   48  173 1    
   100   49   50 am   BACKBONE|DICT|INTERRES
   101   49  174 1    
   102   50   51 2    
   103   50   52 1    
   104   52   53 1    
   105   52   54 1    
   106   52  175 1    
   107   53  176 1    
   108   53  177 1    
   109   53  178 1    
   110   54   55 am   BACKBONE|DICT|INTERRES
   111   54  179 1    
   112   55   56 2    
   113   55   57 1    
   114   57   58 1    
   115   57   59 1    
   116   57  180 1    
   117   58  181 1    
   118   58  182 1    
   119   58  183 1    
   120   59   60 am   BACKBONE|DICT|INTERRES
   121   59  184 1    
   122   60   61 2    
   123   60   62 1    
   124   62   63 1    
   125   62   64 1    
   126   62  185 1    
   127   63  186 1    
   128   63  187 1    
   129   63  188 1    
   130   64   65 am   BACKBONE|DICT|INTERRES
   131   64  189 1    
   132   65   66 2    
   133   67   68 2    
   134   67   69 am   BACKBONE|DICT|INTERRES
   135   69   70 1    
   136   69  190 1    
   137   70   71 1    
   138   70   72 1    
   139   70  191 1    
   140   71  192 1    
   141   71  193 1    
   142   71  194 1    
   143   72   73 2    
   144   72   74 am   BACKBONE|DICT|INTERRES
   145   74   75 1    
   146   74  195 1    
   147   75   76 1    
   148   75   77 1    
   149   75  196 1    
   150   76  197 1    
   151   76  198 1    
   152   76  199 1    
   153   77   78 2    
   154   77   79 am   BACKBONE|DICT|INTERRES
   155   79   80 1    
   156   79  200 1    
   157   80   81 1    
   158   80   82 1    
   159   80  201 1    
   160   81  202 1    
   161   81  203 1    
   162   81  204 1    
   163   82   83 2    
   164   82   84 am   BACKBONE|DICT|INTERRES
   165   84   85 1    
   166   84  205 1    
   167   85   86 1    
   168   85   87 1    
   169   85  206 1    
   170   86  207 1    
   171   86  208 1    
   172   86  209 1    
   173   87   88 2    
   174   87   89 am   BACKBONE|DICT|INTERRES
   175   89   90 1    
   176   89  210 1    
   177   90   91 1    
   178   90   92 1    
   179   90  211 1    
   180   91  212 1    
   181   91  213 1    
   182   91  214 1    
   183   92   93 2    
   184   92   94 am   BACKBONE|DICT|INTERRES
   185   94   95 1    
   186   94  215 1    
   187   95   96 1    
   188   95   97 1    
   189   95  216 1    
   190   96  217 1    
   191   96  218 1    
   192   96  219 1    
   193   97   98 2    
   194   97   99 am   BACKBONE|DICT|INTERRES
   195   99  100 1    
   196   99  220 1    
   197  100  101 1    
   198  100  102 1    
   199  100  221 1    
   200  101  222 1    
   201  101  223 1    
   202  101  224 1    
   203  102  103 2    
   204  102  104 am   BACKBONE|DICT|INTERRES
   205  104  105 1    
   206  104  225 1    
   207  105  106 1    
   208  105  107 1    
   209  105  226 1    
   210  106  227 1    
   211  106  228 1    
   212  106  229 1    
   213  107  108 2    
   214  107  109 am   BACKBONE|DICT|INTERRES
   215  109  110 1    
   216  109  230 1    
   217  110  111 1    
   218  110  112 1    
   219  110  231 1    
   220  111  232 1    
   221  111  233 1    
   222  111  234 1    
   223  112  113 2    
   224  112  114 am   BACKBONE|DICT|INTERRES
   225  114  115 1    
   226  114  235 1    
   227  115  116 1    
   228  115  117 1    
   229  115  236 1    
   230  116  237 1    
   231  116  238 1    
   232  116  239 1    
   233  117  118 2    
   234  117  119 am   BACKBONE|DICT|INTERRES
   235  119  120 1    
   236  119  240 1    
   237  120  121 1    
   238  120  124 1    
   239  120  241 1    
   240  121  122 am   BACKBONE|DICT|INTERRES
   241  121  123 2    
   242  122  242 1    
   243  122  243 1    
   244  124  125 1    
   245  124  244 1    
   246  124  245 1    
   247  125  126 1    
   248  126  246 1    
   249  126  247 1    
@<TRIPOS>SUBSTRUCTURE
     1 UNK         1 GROUP             0       ****    0 ROOT    
