@<TRIPOS>MOLECULE
3R540
247   249    1
SMALL
USER_CHARGES


@<TRIPOS>ATOM
      1 CA         -2.9625  -16.8357  -42.4159 C.3       0 UNK        -0.1800 
      2 C          -2.5460  -17.2434  -43.8212 C.2       0 UNK         0.5000 
      3 O          -2.4236  -18.4331  -44.1060 O.2       0 UNK        -0.5000 
      4 N          -2.3185  -16.2642  -44.6976 N.am      1 UNK        -0.5000 
      5 CA         -1.8959  -16.4543  -46.0828 C.3       1 UNK         0.1400 
      6 C6         -0.3735  -16.7595  -46.1897 C.3       23 UNK        -0.0398 
      7 S7          0.0060  -17.8851  -47.5655 S.3       23 UNK        -0.2404 
      8 C8          1.2459  -16.9685  -48.5399 C.3       23 UNK        -0.0205 
      9 C9          1.5917  -17.7736  -49.7824 C.ar      23 UNK        -0.0193 
     10 C10         0.9683  -17.5134  -51.0064 C.ar      23 UNK        -0.1150 
     11 C11         1.1495  -18.3744  -52.0952 C.ar      23 UNK        -0.0193 
     12 C12         1.9769  -19.4938  -51.9536 C.ar      23 UNK        -0.1150 
     13 C13         2.6261  -19.7450  -50.7422 C.ar      23 UNK        -0.0193 
     14 C14         2.4570  -18.8619  -49.6750 C.ar      23 UNK        -0.1150 
     15 C15         3.4306  -21.0198  -50.5398 C.3       23 UNK        -0.0205 
     16 S16         2.3531  -22.4500  -50.1791 S.3       23 UNK        -0.2404 
     17 C17         1.2818  -21.7965  -48.8512 C.3       23 UNK        -0.0398 
     18 CA          0.3733  -22.8795  -48.2361 C.3       11 UNK         0.1400 
     19 N           1.1179  -23.8687  -47.4552 N.am      11 UNK        -0.5000 
     20 C           0.6611  -25.1015  -47.1967 C.2       10 UNK         0.5000 
     21 O          -0.4058  -25.5345  -47.6305 O.2       10 UNK        -0.5000 
     22 CA          1.5100  -25.9884  -46.2662 C.3       10 UNK         0.1400 
     23 CB          2.5207  -26.8087  -47.0811 C.3       10 UNK        -0.1800 
     24 N           2.2229  -25.2393  -45.2299 N.am      10 UNK        -0.5000 
     25 C           1.6440  -24.4909  -44.2810 C.2       9 UNK         0.5000 
     26 O           0.4247  -24.3595  -44.1744 O.2       9 UNK        -0.5000 
     27 CA          2.5736  -23.7375  -43.3055 C.3       9 UNK         0.1400 
     28 CB          3.9996  -24.3274  -43.2371 C.3       9 UNK        -0.1800 
     29 N           2.6496  -22.2936  -43.5690 N.am      9 UNK        -0.5000 
     30 C           2.9413  -21.6886  -44.7306 C.2       8 UNK         0.5000 
     31 O           3.0363  -22.2792  -45.8081 O.2       8 UNK        -0.5000 
     32 CA          3.1586  -20.1658  -44.6635 C.3       8 UNK         0.1400 
     33 CB          3.2229  -19.5045  -46.0494 C.3       8 UNK        -0.1800 
     34 N           2.1048  -19.5168  -43.8861 N.am      8 UNK        -0.5000 
     35 C           2.3047  -18.6096  -42.9245 C.2       7 UNK         0.5000 
     36 O           3.4163  -18.2970  -42.4905 O.2       7 UNK        -0.5000 
     37 CA          1.0372  -17.9610  -42.3336 C.3       7 UNK         0.1400 
     38 CB          0.5162  -18.7785  -41.1418 C.3       7 UNK        -0.1800 
     39 N           1.2675  -16.5825  -41.9001 N.am      7 UNK        -0.5000 
     40 C           1.5976  -15.5605  -42.7004 C.2       6 UNK         0.5000 
     41 O           1.6454  -15.6371  -43.9289 O.2       6 UNK        -0.5000 
     42 CA          1.8978  -14.2212  -42.0004 C.3       6 UNK         0.1400 
     43 CB          2.9036  -13.3646  -42.7878 C.3       6 UNK        -0.1800 
     44 N           0.6723  -13.4523  -41.7953 N.am      6 UNK        -0.5000 
     45 C          -0.2489  -13.7205  -40.8593 C.2       5 UNK         0.5000 
     46 O          -0.1307  -14.6292  -40.0355 O.2       5 UNK        -0.5000 
     47 CA         -1.5049  -12.8265  -40.8067 C.3       5 UNK         0.1400 
     48 CB         -1.4472  -11.8916  -39.5882 C.3       5 UNK        -0.1800 
     49 N          -1.7287  -12.0161  -42.0061 N.am      5 UNK        -0.5000 
     50 C          -2.0947  -12.4952  -43.2013 C.2       4 UNK         0.5000 
     51 O          -2.2407  -13.6950  -43.4326 O.2       4 UNK        -0.5000 
     52 CA         -2.3528  -11.4777  -44.3311 C.3       4 UNK         0.1400 
     53 CB         -2.2879   -9.9971  -43.8905 C.3       4 UNK        -0.1800 
     54 N          -1.4784  -11.7159  -45.4804 N.am      4 UNK        -0.5000 
     55 C          -0.1387  -11.6758  -45.5117 C.2       3 UNK         0.5000 
     56 O           0.5507  -11.4034  -44.5272 O.2       3 UNK        -0.5000 
     57 CA          0.5403  -12.0025  -46.8640 C.3       3 UNK         0.1400 
     58 CB          1.9760  -12.5276  -46.6829 C.3       3 UNK        -0.1800 
     59 N          -0.2110  -12.9892  -47.6415 N.am      3 UNK        -0.5000 
     60 C          -1.2280  -12.7466  -48.4807 C.2       2 UNK         0.5000 
     61 O          -1.6164  -11.6165  -48.7737 O.2       2 UNK        -0.5000 
     62 CA         -1.9715  -13.9825  -49.0362 C.3       2 UNK         0.1400 
     63 CB         -1.4523  -14.3377  -50.4371 C.3       2 UNK        -0.1800 
     64 N          -1.8509  -15.1581  -48.1654 N.am      2 UNK        -0.5000 
     65 C          -2.3291  -15.2325  -46.9155 C.2       1 UNK         0.5000 
     66 O          -3.0408  -14.3581  -46.4147 O.2       1 UNK        -0.5000 
     67 C          -0.7593  -22.2457  -47.4038 C.2       11 UNK         0.5000 
     68 O          -1.8086  -21.9413  -47.9663 O.2       11 UNK        -0.5000 
     69 N          -0.5744  -22.1069  -46.0813 N.am      12 UNK        -0.5000 
     70 CA         -1.6340  -21.6648  -45.1684 C.3       12 UNK         0.1400 
     71 CB         -1.0559  -21.3150  -43.7898 C.3       12 UNK        -0.1800 
     72 C          -2.7561  -22.7107  -45.0520 C.2       12 UNK         0.5000 
     73 O          -3.9343  -22.3530  -45.0990 O.2       12 UNK        -0.5000 
     74 N          -2.3609  -23.9901  -44.9739 N.am      13 UNK        -0.5000 
     75 CA         -3.2507  -25.1521  -45.0008 C.3       13 UNK         0.1400 
     76 CB         -2.4339  -26.4236  -44.7287 C.3       13 UNK        -0.1800 
     77 C          -4.0460  -25.2819  -46.3158 C.2       13 UNK         0.5000 
     78 O          -5.1789  -25.7638  -46.2904 O.2       13 UNK        -0.5000 
     79 N          -3.4805  -24.7931  -47.4290 N.am      14 UNK        -0.5000 
     80 CA         -4.1147  -24.6811  -48.7459 C.3       14 UNK         0.1400 
     81 CB         -3.0179  -24.6247  -49.8249 C.3       14 UNK        -0.1800 
     82 C          -5.0939  -23.4861  -48.8291 C.2       14 UNK         0.5000 
     83 O          -5.0487  -22.7116  -49.7889 O.2       14 UNK        -0.5000 
     84 N          -5.9671  -23.3704  -47.8179 N.am      15 UNK        -0.5000 
     85 CA         -7.0374  -22.3842  -47.6511 C.3       15 UNK         0.1400 
     86 CB         -8.1564  -22.6469  -48.6813 C.3       15 UNK        -0.1800 
     87 C          -6.5271  -20.9293  -47.6738 C.2       15 UNK         0.5000 
     88 O          -7.0543  -20.1073  -48.4229 O.2       15 UNK        -0.5000 
     89 N          -5.4779  -20.6439  -46.8858 N.am      16 UNK        -0.5000 
     90 CA         -4.7592  -19.3608  -46.8339 C.3       16 UNK         0.1400 
     91 CB         -5.6285  -18.2648  -46.1836 C.3       16 UNK        -0.1800 
     92 C          -4.1969  -18.9533  -48.2139 C.2       16 UNK         0.5000 
     93 O          -4.2804  -17.7906  -48.6108 O.2       16 UNK        -0.5000 
     94 N          -3.6656  -19.9575  -48.9197 N.am      17 UNK        -0.5000 
     95 CA         -3.1255  -19.9532  -50.2754 C.3       17 UNK         0.1400 
     96 CB         -1.9227  -19.0072  -50.4060 C.3       17 UNK        -0.1800 
     97 C          -4.1558  -19.7588  -51.4021 C.2       17 UNK         0.5000 
     98 O          -3.7465  -19.6428  -52.5586 O.2       17 UNK        -0.5000 
     99 N          -5.4615  -19.7989  -51.0982 N.am      18 UNK        -0.5000 
    100 CA        -6.5236  -19.7445  -52.1068 C.3       18 UNK         0.1400 
    101 CB        -7.8875  -19.5447  -51.4318 C.3       18 UNK        -0.1800 
    102 C         -6.5460  -20.9858  -53.0194 C.2       18 UNK         0.5000 
    103 O         -6.8806  -20.8564  -54.1976 O.2       18 UNK        -0.5000 
    104 N         -6.1644  -22.1524  -52.4774 N.am      19 UNK        -0.5000 
    105 CA        -6.0119  -23.3904  -53.2434 C.3       19 UNK         0.1400 
    106 CB        -6.3535  -24.5920  -52.3491 C.3       19 UNK        -0.1800 
    107 C         -4.6009  -23.5313  -53.8484 C.2       19 UNK         0.5000 
    108 O         -4.4449  -24.2530  -54.8339 O.2       19 UNK        -0.5000 
    109 N         -3.6023  -22.8486  -53.2656 N.am      20 UNK        -0.5000 
    110 CA        -2.2254  -22.8148  -53.7684 C.3       20 UNK         0.1400 
    111 CB        -1.2674  -22.3351  -52.6649 C.3       20 UNK        -0.1800 
    112 C         -2.0924  -21.9289  -55.0199 C.2       20 UNK         0.5000 
    113 O         -1.4297  -22.3284  -55.9781 O.2       20 UNK        -0.5000 
    114 N         -2.7289  -20.7484  -54.9823 N.am      21 UNK        -0.5000 
    115 CA        -2.8319  -19.7079  -56.0137 C.3       21 UNK         0.1400 
    116 CB        -3.5276  -20.2414  -57.2801 C.3       21 UNK        -0.1800 
    117 C         -1.5081  -18.9942  -56.3583 C.2       21 UNK         0.5000 
    118 O         -1.4926  -17.7649  -56.4007 O.2       21 UNK        -0.5000 
    119 N         -0.4439  -19.7723  -56.5954 N.am      22 UNK        -0.5000 
    120 CA         0.9500  -19.3884  -56.8993 C.3       22 UNK         0.1400 
    121 C          1.1896  -18.4051  -58.0887 C.2       22 UNK         0.5000 
    122 N          0.2220  -18.1772  -58.9674 N.am      22 UNK        -0.7600 
    123 O          2.2872  -17.8787  -58.2539 O.2       22 UNK        -0.5000 
    124 C124        1.7978  -19.0842  -55.6290 C.3       23 UNK        -0.0398 
    125 S125        1.3985  -17.5343  -54.7451 S.3       23 UNK        -0.2404 
    126 C126        0.3632  -18.1482  -53.3801 C.3       23 UNK        -0.0205 
    127 H127       -3.5083  -15.8921  -42.4226 H         1 UNK         0.0600 
    128 H128       -3.6073  -17.5951  -41.9735 H         1 UNK         0.0600 
    129 H129       -2.0825  -16.7191  -41.7834 H         1 UNK         0.0600 
    130 H130       -2.4402  -15.2908  -44.4171 H         1 UNK         0.3000 
    131 H131       -2.4607  -17.3008  -46.4752 H         1 UNK         0.0600 
    132 H132       -0.0272  -17.2731  -45.2943 H         1 UNK         0.0800 
    133 H133        0.2266  -15.8502  -46.2472 H         1 UNK         0.0800 
    134 H134        2.1402  -16.8071  -47.9358 H         1 UNK         0.0800 
    135 H135        0.8685  -15.9837  -48.8143 H         1 UNK         0.0800 
    136 H136        0.2855  -16.6817  -51.0930 H         1 UNK         0.1150 
    137 H137        2.0851  -20.1969  -52.7652 H         1 UNK         0.1150 
    138 H138        2.9328  -19.0717  -48.7302 H         1 UNK         0.1150 
    139 H139        4.0202  -21.2310  -51.4329 H         1 UNK         0.0800 
    140 H140        4.1436  -20.8955  -49.7231 H         1 UNK         0.0800 
    141 H141        1.9023  -21.3325  -48.0855 H         1 UNK         0.0800 
    142 H142        0.6699  -21.0032  -49.2849 H         1 UNK         0.0800 
    143 H143       -0.1112  -23.3982  -49.0664 H         1 UNK         0.0600 
    144 H144        1.9861  -23.5567  -47.0318 H         1 UNK         0.3000 
    145 H145        0.8319  -26.6819  -45.7650 H         1 UNK         0.0600 
    146 H146        3.0689  -27.5044  -46.4457 H         1 UNK         0.0600 
    147 H147        2.0166  -27.3986  -47.8479 H         1 UNK         0.0600 
    148 H148        3.2462  -26.1678  -47.5839 H         1 UNK         0.0600 
    149 H149        3.2313  -25.2643  -45.2681 H         1 UNK         0.3000 
    150 H150        2.1245  -23.8498  -42.3176 H         1 UNK         0.0600 
    151 H151        3.9758  -25.3970  -43.0233 H         1 UNK         0.0600 
    152 H152        4.5746  -23.8566  -42.4396 H         1 UNK         0.0600 
    153 H153        4.5520  -24.1828  -44.1663 H         1 UNK         0.0600 
    154 H154        2.5479  -21.7039  -42.7551 H         1 UNK         0.3000 
    155 H155        4.1287  -20.0272  -44.1821 H         1 UNK         0.0600 
    156 H156        3.9935  -19.9592  -46.6732 H         1 UNK         0.0600 
    157 H157        3.4547  -18.4424  -45.9686 H         1 UNK         0.0600 
    158 H158        2.2698  -19.5966  -46.5684 H         1 UNK         0.0600 
    159 H159        1.1597  -19.7371  -44.1638 H         1 UNK         0.3000 
    160 H160        0.2641  -17.9437  -43.1018 H         1 UNK         0.0600 
    161 H161        1.2419  -18.8094  -40.3281 H         1 UNK         0.0600 
    162 H162        0.3053  -19.8083  -41.4323 H         1 UNK         0.0600 
    163 H163       -0.4101  -18.3584  -40.7496 H         1 UNK         0.0600 
    164 H164        1.2045  -16.4064  -40.9067 H         1 UNK         0.3000 
    165 H165        2.3463  -14.4377  -41.0284 H         1 UNK         0.0600 
    166 H166        2.5143  -13.0772  -43.7637 H         1 UNK         0.0600 
    167 H167        3.1529  -12.4518  -42.2467 H         1 UNK         0.0600 
    168 H168        3.8333  -13.9101  -42.9539 H         1 UNK         0.0600 
    169 H169        0.4869  -12.7131  -42.4607 H         1 UNK         0.3000 
    170 H170       -2.3634  -13.4904  -40.6850 H         1 UNK         0.0600 
    171 H171       -1.3203  -12.4579  -38.6645 H         1 UNK         0.0600 
    172 H172       -0.6153  -11.1898  -39.6597 H         1 UNK         0.0600 
    173 H173       -2.3670  -11.3149  -39.4885 H         1 UNK         0.0600 
    174 H174       -1.6071  -11.0189  -41.9056 H         1 UNK         0.3000 
    175 H175       -3.3686  -11.6709  -44.6788 H         1 UNK         0.0600 
    176 H176       -1.2995   -9.7134  -43.5277 H         1 UNK         0.0600 
    177 H177       -2.5331   -9.3357  -44.7216 H         1 UNK         0.0600 
    178 H178       -3.0077   -9.7899  -43.0976 H         1 UNK         0.0600 
    179 H179       -1.9535  -12.0065  -46.3234 H         1 UNK         0.3000 
    180 H180        0.5928  -11.0683  -47.4266 H         1 UNK         0.0600 
    181 H181        2.5992  -11.8046  -46.1550 H         1 UNK         0.0600 
    182 H182        1.9936  -13.4581  -46.1139 H         1 UNK         0.0600 
    183 H183        2.4503  -12.7162  -47.6462 H         1 UNK         0.0600 
    184 H184        0.0134  -13.9527  -47.4521 H         1 UNK         0.3000 
    185 H185       -3.0308  -13.7292  -49.1141 H         1 UNK         0.0600 
    186 H186       -1.6293  -13.5180  -51.1345 H         1 UNK         0.0600 
    187 H187       -0.3797  -14.5318  -50.4313 H         1 UNK         0.0600 
    188 H188       -1.9558  -15.2182  -50.8374 H         1 UNK         0.0600 
    189 H189       -1.3274  -15.9422  -48.5284 H         1 UNK         0.3000 
    190 H190        0.2778  -22.4558  -45.6673 H         1 UNK         0.3000 
    191 H191       -2.0716  -20.7548  -45.5808 H         1 UNK         0.0600 
    192 H192       -1.8521  -21.0485  -43.0932 H         1 UNK         0.0600 
    193 H193       -0.3997  -20.4519  -43.8583 H         1 UNK         0.0600 
    194 H194       -0.4979  -22.1371  -43.3454 H         1 UNK         0.0600 
    195 H195       -1.3669  -24.1800  -44.8800 H         1 UNK         0.3000 
    196 H196       -3.9731  -25.0312  -44.1910 H         1 UNK         0.0600 
    197 H197       -3.0818  -27.2996  -44.6778 H         1 UNK         0.0600 
    198 H198       -1.9017  -26.3561  -43.7796 H         1 UNK         0.0600 
    199 H199       -1.6989  -26.6054  -45.5122 H         1 UNK         0.0600 
    200 H200       -2.5438  -24.4204  -47.3574 H         1 UNK         0.3000 
    201 H201       -4.7019  -25.5842  -48.9229 H         1 UNK         0.0600 
    202 H202       -2.3302  -25.4656  -49.7350 H         1 UNK         0.0600 
    203 H203       -2.4356  -23.7078  -49.7566 H         1 UNK         0.0600 
    204 H204       -3.4424  -24.6633  -50.8274 H         1 UNK         0.0600 
    205 H205       -5.9034  -24.0726  -47.0883 H         1 UNK         0.3000 
    206 H206       -7.4575  -22.5444  -46.6573 H         1 UNK         0.0600 
    207 H207       -8.5452  -23.6608  -48.5881 H         1 UNK         0.0600 
    208 H208       -8.9945  -21.9645  -48.5353 H         1 UNK         0.0600 
    209 H209       -7.8031  -22.5200  -49.7049 H         1 UNK         0.0600 
    210 H210       -5.0854  -21.3835  -46.3078 H         1 UNK         0.3000 
    211 H211       -3.8969  -19.5156  -46.1868 H         1 UNK         0.0600 
    212 H212       -6.4977  -18.0190  -46.7942 H         1 UNK         0.0600 
    213 H213       -5.0577  -17.3460  -46.0434 H         1 UNK         0.0600 
    214 H214       -5.9835  -18.5768  -45.2016 H         1 UNK         0.0600 
    215 H215       -3.6134  -20.8647  -48.4714 H         1 UNK         0.3000 
    216 H216       -2.7480  -20.9656  -50.4198 H         1 UNK         0.0600 
    217 H217       -2.1762  -17.9727  -50.1769 H         1 UNK         0.0600 
    218 H218       -1.5193  -19.0260  -51.4166 H         1 UNK         0.0600 
    219 H219       -1.1199  -19.3216  -49.7423 H         1 UNK         0.0600 
    220 H220       -5.7477  -19.9222  -50.1334 H         1 UNK         0.3000 
    221 H221       -6.3346  -18.8744  -52.7391 H         1 UNK         0.0600 
    222 H222       -8.1693  -20.4075  -50.8288 H         1 UNK         0.0600 
    223 H223       -7.8847  -18.6676  -50.7845 H         1 UNK         0.0600 
    224 H224       -8.6713  -19.3984  -52.1760 H         1 UNK         0.0600 
    225 H225       -5.8927  -22.1844  -51.4982 H         1 UNK         0.3000 
    226 H226       -6.7223  -23.3925  -54.0729 H         1 UNK         0.0600 
    227 H227       -7.3568  -24.5008  -51.9327 H         1 UNK         0.0600 
    228 H228       -6.3207  -25.5216  -52.9186 H         1 UNK         0.0600 
    229 H229       -5.6566  -24.6950  -51.5202 H         1 UNK         0.0600 
    230 H230       -3.8209  -22.2666  -52.4721 H         1 UNK         0.3000 
    231 H231       -1.9354  -23.8314  -54.0428 H         1 UNK         0.0600 
    232 H232       -1.4500  -21.2973  -52.3900 H         1 UNK         0.0600 
    233 H233       -1.3536  -22.9454  -51.7668 H         1 UNK         0.0600 
    234 H234       -0.2307  -22.3990  -52.9984 H         1 UNK         0.0600 
    235 H235       -3.1840  -20.4955  -54.1074 H         1 UNK         0.3000 
    236 H236       -3.4874  -18.9491  -55.5829 H         1 UNK         0.0600 
    237 H237       -4.5001  -20.6722  -57.0407 H         1 UNK         0.0600 
    238 H238       -3.6959  -19.4383  -57.9984 H         1 UNK         0.0600 
    239 H239       -2.9361  -21.0078  -57.7814 H         1 UNK         0.0600 
    240 H240       -0.6118  -20.7740  -56.5361 H         1 UNK         0.3000 
    241 H241        1.3674  -20.3164  -57.2916 H         1 UNK         0.0600 
    242 H242        0.3900  -17.5542  -59.7417 H         1 UNK         0.3800 
    243 H243       -0.6885  -18.5888  -58.8413 H         1 UNK         0.3800 
    244 H244        2.8556  -19.0436  -55.8934 H         1 UNK         0.0800 
    245 H245        1.7151  -19.9255  -54.9428 H         1 UNK         0.0800 
    246 H246       -0.4344  -17.4233  -53.2106 H         1 UNK         0.0800 
    247 H247       -0.1384  -19.0729  -53.6682 H         1 UNK         0.0800 
@<TRIPOS>BOND
     1    1    2 1    
     2    1  127 1    
     3    1  128 1    
     4    1  129 1    
     5    2    3 2    
     6    2    4 am   BACKBONE|DICT|INTERRES
     7    4    5 1    
     8    4  130 1    
     9    5    6 1    
    10    5   65 1    
    11    5  131 1    
    12    6    7 1    
    13    6  132 1    
    14    6  133 1    
    15    7    8 1    
    16    8    9 1    
    17    8  134 1    
    18    8  135 1    
    19    9   10 ar   
    20    9   14 ar   
    21   10   11 ar   
    22   10  136 1    
    23   11   12 ar   
    24   11  126 1    
    25   12   13 ar   
    26   12  137 1    
    27   13   14 ar   
    28   13   15 1    
    29   14  138 1    
    30   15   16 1    
    31   15  139 1    
    32   15  140 1    
    33   16   17 1    
    34   17   18 1    
    35   17  141 1    
    36   17  142 1    
    37   18   19 1    
    38   18   67 1    
    39   18  143 1    
    40   19   20 am   BACKBONE|DICT|INTERRES
    41   19  144 1    
    42   20   21 2    
    43   20   22 1    
    44   22   23 1    
    45   22   24 1    
    46   22  145 1    
    47   23  146 1    
    48   23  147 1    
    49   23  148 1    
    50   24   25 am   BACKBONE|DICT|INTERRES
    51   24  149 1    
    52   25   26 2    
    53   25   27 1    
    54   27   28 1    
    55   27   29 1    
    56   27  150 1    
    57   28  151 1    
    58   28  152 1    
    59   28  153 1    
    60   29   30 am   BACKBONE|DICT|INTERRES
    61   29  154 1    
    62   30   31 2    
    63   30   32 1    
    64   32   33 1    
    65   32   34 1    
    66   32  155 1    
    67   33  156 1    
    68   33  157 1    
    69   33  158 1    
    70   34   35 am   BACKBONE|DICT|INTERRES
    71   34  159 1    
    72   35   36 2    
    73   35   37 1    
    74   37   38 1    
    75   37   39 1    
    76   37  160 1    
    77   38  161 1    
    78   38  162 1    
    79   38  163 1    
    80   39   40 am   BACKBONE|DICT|INTERRES
    81   39  164 1    
    82   40   41 2    
    83   40   42 1    
    84   42   43 1    
    85   42   44 1    
    86   42  165 1    
    87   43  166 1    
    88   43  167 1    
    89   43  168 1    
    90   44   45 am   BACKBONE|DICT|INTERRES
    91   44  169 1    
    92   45   46 2    
    93   45   47 1    
    94   47   48 1    
    95   47   49 1    
    96   47  170 1    
    97   48  171 1    
    98   48  172 1    
    99   48  173 1    
   100   49   50 am   BACKBONE|DICT|INTERRES
   101   49  174 1    
   102   50   51 2    
   103   50   52 1    
   104   52   53 1    
   105   52   54 1    
   106   52  175 1    
   107   53  176 1    
   108   53  177 1    
   109   53  178 1    
   110   54   55 am   BACKBONE|DICT|INTERRES
   111   54  179 1    
   112   55   56 2    
   113   55   57 1    
   114   57   58 1    
   115   57   59 1    
   116   57  180 1    
   117   58  181 1    
   118   58  182 1    
   119   58  183 1    
   120   59   60 am   BACKBONE|DICT|INTERRES
   121   59  184 1    
   122   60   61 2    
   123   60   62 1    
   124   62   63 1    
   125   62   64 1    
   126   62  185 1    
   127   63  186 1    
   128   63  187 1    
   129   63  188 1    
   130   64   65 am   BACKBONE|DICT|INTERRES
   131   64  189 1    
   132   65   66 2    
   133   67   68 2    
   134   67   69 am   BACKBONE|DICT|INTERRES
   135   69   70 1    
   136   69  190 1    
   137   70   71 1    
   138   70   72 1    
   139   70  191 1    
   140   71  192 1    
   141   71  193 1    
   142   71  194 1    
   143   72   73 2    
   144   72   74 am   BACKBONE|DICT|INTERRES
   145   74   75 1    
   146   74  195 1    
   147   75   76 1    
   148   75   77 1    
   149   75  196 1    
   150   76  197 1    
   151   76  198 1    
   152   76  199 1    
   153   77   78 2    
   154   77   79 am   BACKBONE|DICT|INTERRES
   155   79   80 1    
   156   79  200 1    
   157   80   81 1    
   158   80   82 1    
   159   80  201 1    
   160   81  202 1    
   161   81  203 1    
   162   81  204 1    
   163   82   83 2    
   164   82   84 am   BACKBONE|DICT|INTERRES
   165   84   85 1    
   166   84  205 1    
   167   85   86 1    
   168   85   87 1    
   169   85  206 1    
   170   86  207 1    
   171   86  208 1    
   172   86  209 1    
   173   87   88 2    
   174   87   89 am   BACKBONE|DICT|INTERRES
   175   89   90 1    
   176   89  210 1    
   177   90   91 1    
   178   90   92 1    
   179   90  211 1    
   180   91  212 1    
   181   91  213 1    
   182   91  214 1    
   183   92   93 2    
   184   92   94 am   BACKBONE|DICT|INTERRES
   185   94   95 1    
   186   94  215 1    
   187   95   96 1    
   188   95   97 1    
   189   95  216 1    
   190   96  217 1    
   191   96  218 1    
   192   96  219 1    
   193   97   98 2    
   194   97   99 am   BACKBONE|DICT|INTERRES
   195   99  100 1    
   196   99  220 1    
   197  100  101 1    
   198  100  102 1    
   199  100  221 1    
   200  101  222 1    
   201  101  223 1    
   202  101  224 1    
   203  102  103 2    
   204  102  104 am   BACKBONE|DICT|INTERRES
   205  104  105 1    
   206  104  225 1    
   207  105  106 1    
   208  105  107 1    
   209  105  226 1    
   210  106  227 1    
   211  106  228 1    
   212  106  229 1    
   213  107  108 2    
   214  107  109 am   BACKBONE|DICT|INTERRES
   215  109  110 1    
   216  109  230 1    
   217  110  111 1    
   218  110  112 1    
   219  110  231 1    
   220  111  232 1    
   221  111  233 1    
   222  111  234 1    
   223  112  113 2    
   224  112  114 am   BACKBONE|DICT|INTERRES
   225  114  115 1    
   226  114  235 1    
   227  115  116 1    
   228  115  117 1    
   229  115  236 1    
   230  116  237 1    
   231  116  238 1    
   232  116  239 1    
   233  117  118 2    
   234  117  119 am   BACKBONE|DICT|INTERRES
   235  119  120 1    
   236  119  240 1    
   237  120  121 1    
   238  120  124 1    
   239  120  241 1    
   240  121  122 am   BACKBONE|DICT|INTERRES
   241  121  123 2    
   242  122  242 1    
   243  122  243 1    
   244  124  125 1    
   245  124  244 1    
   246  124  245 1    
   247  125  126 1    
   248  126  246 1    
   249  126  247 1    
@<TRIPOS>SUBSTRUCTURE
     1 UNK         1 GROUP             0       ****    0 ROOT    
