@<TRIPOS>MOLECULE
3R540
247   249    1
SMALL
USER_CHARGES


@<TRIPOS>ATOM
      1 CA          4.3582  -15.3132  -51.1439 C.3       0 UNK        -0.1800 
      2 C           4.2966  -15.1183  -49.6358 C.2       0 UNK         0.5000 
      3 O           5.3310  -15.1429  -48.9694 O.2       0 UNK        -0.5000 
      4 N           3.0873  -14.9232  -49.0979 N.am      1 UNK        -0.5000 
      5 CA          2.8196  -14.7161  -47.6704 C.3       1 UNK         0.1400 
      6 C6          1.3335  -14.9756  -47.3101 C.3       23 UNK        -0.0398 
      7 S7          0.1327  -14.0946  -48.3768 S.3       23 UNK        -0.2404 
      8 C8         -0.7558  -15.4656  -49.1859 C.3       23 UNK        -0.0205 
      9 C9          0.0952  -16.1859  -50.2225 C.ar      23 UNK        -0.0193 
     10 C10         0.0767  -15.7726  -51.5574 C.ar      23 UNK        -0.1150 
     11 C11         0.8448  -16.4380  -52.5185 C.ar      23 UNK        -0.0193 
     12 C12         1.6513  -17.5113  -52.1309 C.ar      23 UNK        -0.1150 
     13 C13         1.6700  -17.9416  -50.8024 C.ar      23 UNK        -0.0193 
     14 C14         0.8847  -17.2795  -49.8560 C.ar      23 UNK        -0.1150 
     15 C15         2.5408  -19.1187  -50.3934 C.3       23 UNK        -0.0205 
     16 S16         1.5625  -20.6429  -50.2110 S.3       23 UNK        -0.2404 
     17 C17         0.8773  -20.4364  -48.5317 C.3       23 UNK        -0.0398 
     18 CA          0.6357  -21.7921  -47.8284 C.3       11 UNK         0.1400 
     19 N           0.7335  -21.6951  -46.3705 N.am      11 UNK        -0.5000 
     20 C           0.7802  -22.7503  -45.5447 C.2       10 UNK         0.5000 
     21 O           0.7741  -23.9207  -45.9289 O.2       10 UNK        -0.5000 
     22 CA          0.7937  -22.4489  -44.0349 C.3       10 UNK         0.1400 
     23 CB          2.1964  -22.0296  -43.5708 C.3       10 UNK        -0.1800 
     24 N          -0.1787  -21.4225  -43.6571 N.am      10 UNK        -0.5000 
     25 C          -1.5065  -21.5561  -43.7895 C.2       9 UNK         0.5000 
     26 O          -2.0538  -22.5769  -44.2071 O.2       9 UNK        -0.5000 
     27 CA         -2.3660  -20.3268  -43.4433 C.3       9 UNK         0.1400 
     28 CB         -2.5539  -20.2019  -41.9242 C.3       9 UNK        -0.1800 
     29 N          -1.8171  -19.0798  -43.9789 N.am      9 UNK        -0.5000 
     30 C          -1.6331  -18.8326  -45.2834 C.2       8 UNK         0.5000 
     31 O          -1.9294  -19.6231  -46.1761 O.2       8 UNK        -0.5000 
     32 CA         -0.9410  -17.5130  -45.6588 C.3       8 UNK         0.1400 
     33 CB         -1.9133  -16.3277  -45.5764 C.3       8 UNK        -0.1800 
     34 N           0.2395  -17.2506  -44.8385 N.am      8 UNK        -0.5000 
     35 C           1.3292  -18.0315  -44.8112 C.2       7 UNK         0.5000 
     36 O           1.4782  -19.0230  -45.5237 O.2       7 UNK        -0.5000 
     37 CA          2.4130  -17.6707  -43.7841 C.3       7 UNK         0.1400 
     38 CB          3.3289  -16.5620  -44.3200 C.3       7 UNK        -0.1800 
     39 N           1.8310  -17.2601  -42.5077 N.am      7 UNK        -0.5000 
     40 C           1.1962  -18.0921  -41.6698 C.2       6 UNK         0.5000 
     41 O           1.0634  -19.2997  -41.8718 O.2       6 UNK        -0.5000 
     42 CA          0.5692  -17.4539  -40.4176 C.3       6 UNK         0.1400 
     43 CB          1.6262  -17.2531  -39.3215 C.3       6 UNK        -0.1800 
     44 N          -0.0817  -16.1747  -40.7081 N.am      6 UNK        -0.5000 
     45 C          -1.1789  -16.0455  -41.4668 C.2       5 UNK         0.5000 
     46 O          -1.7635  -16.9934  -41.9892 O.2       5 UNK        -0.5000 
     47 CA         -1.6887  -14.6151  -41.7152 C.3       5 UNK         0.1400 
     48 CB         -2.6086  -14.1646  -40.5708 C.3       5 UNK        -0.1800 
     49 N          -0.6232  -13.6262  -41.9006 N.am      5 UNK        -0.5000 
     50 C           0.2821  -13.6539  -42.8869 C.2       4 UNK         0.5000 
     51 O           0.3862  -14.5768  -43.6982 O.2       4 UNK        -0.5000 
     52 CA          1.2313  -12.4484  -42.9845 C.3       4 UNK         0.1400 
     53 CB          2.6830  -12.8645  -42.7049 C.3       4 UNK        -0.1800 
     54 N           1.1311  -11.8435  -44.3127 N.am      4 UNK        -0.5000 
     55 C           0.1173  -11.0493  -44.6922 C.2       3 UNK         0.5000 
     56 O          -0.7727  -10.6918  -43.9181 O.2       3 UNK        -0.5000 
     57 CA          0.0440  -10.5957  -46.1684 C.3       3 UNK         0.1400 
     58 CB         -0.3945   -9.1229  -46.3112 C.3       3 UNK        -0.1800 
     59 N           1.2484  -10.8678  -46.9588 N.am      3 UNK        -0.5000 
     60 C           2.4691  -10.3225  -46.8373 C.2       2 UNK         0.5000 
     61 O           2.7503   -9.4321  -46.0341 O.2       2 UNK        -0.5000 
     62 CA          3.5588  -10.9111  -47.7661 C.3       2 UNK         0.1400 
     63 CB          4.9894  -10.6723  -47.2398 C.3       2 UNK        -0.1800 
     64 N           3.3436  -12.3367  -48.0588 N.am      2 UNK        -0.5000 
     65 C           3.2524  -13.3288  -47.1579 C.2       1 UNK         0.5000 
     66 O           3.4260  -13.1702  -45.9503 O.2       1 UNK        -0.5000 
     67 C          -0.6930  -22.4360  -48.2687 C.2       11 UNK         0.5000 
     68 O          -0.6701  -23.3488  -49.0910 O.2       11 UNK        -0.5000 
     69 N          -1.8138  -22.0056  -47.6693 N.am      12 UNK        -0.5000 
     70 CA         -3.1460  -22.5600  -47.9101 C.3       12 UNK         0.1400 
     71 CB         -4.2020  -21.7496  -47.1445 C.3       12 UNK        -0.1800 
     72 C          -3.2478  -24.0496  -47.5457 C.2       12 UNK         0.5000 
     73 O          -3.8564  -24.8084  -48.2981 O.2       12 UNK        -0.5000 
     74 N          -2.6274  -24.4522  -46.4279 N.am      13 UNK        -0.5000 
     75 CA         -2.5272  -25.8485  -46.0039 C.3       13 UNK         0.1400 
     76 CB         -1.9376  -25.9226  -44.5874 C.3       13 UNK        -0.1800 
     77 C          -1.7111  -26.7040  -46.9905 C.2       13 UNK         0.5000 
     78 O          -2.1560  -27.7919  -47.3579 O.2       13 UNK        -0.5000 
     79 N          -0.5579  -26.1824  -47.4331 N.am      14 UNK        -0.5000 
     80 CA          0.3188  -26.8199  -48.4188 C.3       14 UNK         0.1400 
     81 CB          1.6489  -26.0541  -48.4887 C.3       14 UNK        -0.1800 
     82 C          -0.3219  -26.9331  -49.8164 C.2       14 UNK         0.5000 
     83 O          -0.1704  -27.9628  -50.4746 O.2       14 UNK        -0.5000 
     84 N          -1.0443  -25.8851  -50.2317 N.am      15 UNK        -0.5000 
     85 CA         -1.7567  -25.7940  -51.5078 C.3       15 UNK         0.1400 
     86 CB         -1.9352  -24.3102  -51.8651 C.3       15 UNK        -0.1800 
     87 C          -3.1142  -26.5292  -51.5195 C.2       15 UNK         0.5000 
     88 O          -3.7594  -26.5664  -52.5676 O.2       15 UNK        -0.5000 
     89 N          -3.5212  -27.0956  -50.3736 N.am      16 UNK        -0.5000 
     90 CA         -4.7537  -27.8524  -50.1364 C.3       16 UNK         0.1400 
     91 CB         -4.7718  -29.1549  -50.9642 C.3       16 UNK        -0.1800 
     92 C          -6.0234  -26.9938  -50.3136 C.2       16 UNK         0.5000 
     93 O          -6.9366  -27.3712  -51.0505 O.2       16 UNK        -0.5000 
     94 N          -6.0475  -25.8550  -49.6078 N.am      17 UNK        -0.5000 
     95 CA         -7.1306  -24.8714  -49.5208 C.3       17 UNK         0.1400 
     96 CB         -8.3964  -25.4904  -48.8905 C.3       17 UNK        -0.1800 
     97 C          -7.3977  -24.1536  -50.8580 C.2       17 UNK         0.5000 
     98 O          -8.5521  -23.9871  -51.2583 O.2       17 UNK        -0.5000 
     99 N          -6.3141  -23.7324  -51.5232 N.am      18 UNK        -0.5000 
    100 CA        -6.3497  -22.9178  -52.7377 C.3       18 UNK         0.1400 
    101 CB        -4.9362  -22.8408  -53.3294 C.3       18 UNK        -0.1800 
    102 C         -6.8975  -21.5027  -52.4695 C.2       18 UNK         0.5000 
    103 O         -6.6877  -20.9551  -51.3823 O.2       18 UNK        -0.5000 
    104 N         -7.5754  -20.9339  -53.4751 N.am      19 UNK        -0.5000 
    105 CA        -8.1605  -19.5931  -53.4446 C.3       19 UNK         0.1400 
    106 CB        -8.9500  -19.3532  -54.7410 C.3       19 UNK        -0.1800 
    107 C         -7.0869  -18.5084  -53.2440 C.2       19 UNK         0.5000 
    108 O         -6.1390  -18.4395  -54.0285 O.2       19 UNK        -0.5000 
    109 N         -7.2519  -17.7097  -52.1800 N.am      20 UNK        -0.5000 
    110 CA        -6.3249  -16.6764  -51.7005 C.3       20 UNK         0.1400 
    111 CB        -6.2134  -15.5192  -52.7161 C.3       20 UNK        -0.1800 
    112 C         -4.9482  -17.2359  -51.2745 C.2       20 UNK         0.5000 
    113 O         -3.9457  -16.5261  -51.3666 O.2       20 UNK        -0.5000 
    114 N         -4.9228  -18.5033  -50.8302 N.am      21 UNK        -0.5000 
    115 CA        -3.7864  -19.3010  -50.3456 C.3       21 UNK         0.1400 
    116 CB        -3.1090  -18.6289  -49.1382 C.3       21 UNK        -0.1800 
    117 C         -2.7380  -19.6774  -51.4115 C.2       21 UNK         0.5000 
    118 O         -2.1606  -20.7593  -51.3189 O.2       21 UNK        -0.5000 
    119 N         -2.5074  -18.7879  -52.3814 N.am      22 UNK        -0.5000 
    120 CA        -1.5505  -18.9184  -53.4840 C.3       22 UNK         0.1400 
    121 C         -1.8081  -20.1640  -54.3790 C.2       22 UNK         0.5000 
    122 N         -0.8079  -21.0095  -54.5895 N.am      22 UNK        -0.7600 
    123 O         -2.8968  -20.3454  -54.9181 O.2       22 UNK        -0.5000 
    124 C124       -1.5153  -17.6106  -54.3216 C.3       23 UNK        -0.0398 
    125 S125        0.1240  -17.3087  -55.0660 S.3       23 UNK        -0.2404 
    126 C126        0.7963  -16.0068  -53.9779 C.3       23 UNK        -0.0205 
    127 H127        4.6105  -16.3473  -51.3781 H         1 UNK         0.0600 
    128 H128        5.1208  -14.6665  -51.5777 H         1 UNK         0.0600 
    129 H129        3.4059  -15.0781  -51.6197 H         1 UNK         0.0600 
    130 H130        2.2690  -14.9318  -49.6922 H         1 UNK         0.3000 
    131 H131        3.4194  -15.4427  -47.1197 H         1 UNK         0.0600 
    132 H132        1.1411  -16.0442  -47.3457 H         1 UNK         0.0800 
    133 H133        1.1293  -14.6994  -46.2741 H         1 UNK         0.0800 
    134 H134       -1.6521  -15.0670  -49.6641 H         1 UNK         0.0800 
    135 H135       -1.1109  -16.1659  -48.4319 H         1 UNK         0.0800 
    136 H136       -0.5466  -14.9387  -51.8485 H         1 UNK         0.1150 
    137 H137        2.2485  -18.0237  -52.8719 H         1 UNK         0.1150 
    138 H138        0.8928  -17.6210  -48.8329 H         1 UNK         0.1150 
    139 H139        3.3108  -19.2921  -51.1466 H         1 UNK         0.0800 
    140 H140        3.0737  -18.8901  -49.4694 H         1 UNK         0.0800 
    141 H141       -0.0306  -19.8335  -48.5733 H         1 UNK         0.0800 
    142 H142        1.5986  -19.8563  -47.9573 H         1 UNK         0.0800 
    143 H143        1.4357  -22.4718  -48.1311 H         1 UNK         0.0600 
    144 H144        0.7801  -20.7591  -45.9771 H         1 UNK         0.3000 
    145 H145        0.5254  -23.3692  -43.5120 H         1 UNK         0.0600 
    146 H146        2.2282  -21.8917  -42.4899 H         1 UNK         0.0600 
    147 H147        2.9353  -22.7908  -43.8241 H         1 UNK         0.0600 
    148 H148        2.5137  -21.0958  -44.0352 H         1 UNK         0.0600 
    149 H149        0.1923  -20.5609  -43.2708 H         1 UNK         0.3000 
    150 H150       -3.3491  -20.4747  -43.8949 H         1 UNK         0.0600 
    151 H151       -2.9669  -21.1198  -41.5040 H         1 UNK         0.0600 
    152 H152       -3.2425  -19.3933  -41.6785 H         1 UNK         0.0600 
    153 H153       -1.6100  -20.0020  -41.4162 H         1 UNK         0.0600 
    154 H154       -1.5865  -18.3572  -43.3018 H         1 UNK         0.3000 
    155 H155       -0.6070  -17.6103  -46.6925 H         1 UNK         0.0600 
    156 H156       -2.7688  -16.4804  -46.2356 H         1 UNK         0.0600 
    157 H157       -1.4313  -15.3976  -45.8778 H         1 UNK         0.0600 
    158 H158       -2.2976  -16.1905  -44.5661 H         1 UNK         0.0600 
    159 H159        0.2145  -16.4222  -44.2501 H         1 UNK         0.3000 
    160 H160        3.0225  -18.5602  -43.6106 H         1 UNK         0.0600 
    161 H161        2.7691  -15.6608  -44.5687 H         1 UNK         0.0600 
    162 H162        3.8435  -16.8905  -45.2234 H         1 UNK         0.0600 
    163 H163        4.0937  -16.2921  -43.5917 H         1 UNK         0.0600 
    164 H164        1.8478  -16.2741  -42.2942 H         1 UNK         0.3000 
    165 H165       -0.1888  -18.1426  -40.0381 H         1 UNK         0.0600 
    166 H166        1.1752  -16.8750  -38.4039 H         1 UNK         0.0600 
    167 H167        2.1173  -18.1958  -39.0764 H         1 UNK         0.0600 
    168 H168        2.4007  -16.5497  -39.6298 H         1 UNK         0.0600 
    169 H169        0.3383  -15.3436  -40.3189 H         1 UNK         0.3000 
    170 H170       -2.2786  -14.6350  -42.6337 H         1 UNK         0.0600 
    171 H171       -3.4244  -14.8737  -40.4232 H         1 UNK         0.0600 
    172 H172       -2.0685  -14.0840  -39.6266 H         1 UNK         0.0600 
    173 H173       -3.0586  -13.1949  -40.7847 H         1 UNK         0.0600 
    174 H174       -0.6424  -12.8289  -41.2811 H         1 UNK         0.3000 
    175 H175        0.9505  -11.7044  -42.2359 H         1 UNK         0.0600 
    176 H176        3.0255  -13.6369  -43.3920 H         1 UNK         0.0600 
    177 H177        3.3604  -12.0152  -42.7953 H         1 UNK         0.0600 
    178 H178        2.7868  -13.2589  -41.6935 H         1 UNK         0.0600 
    179 H179        1.8248  -12.1332  -44.9920 H         1 UNK         0.3000 
    180 H180       -0.7387  -11.2083  -46.6181 H         1 UNK         0.0600 
    181 H181        0.2926   -8.4431  -45.8072 H         1 UNK         0.0600 
    182 H182       -1.3826   -8.9645  -45.8777 H         1 UNK         0.0600 
    183 H183       -0.4523   -8.8277  -47.3589 H         1 UNK         0.0600 
    184 H184        1.1433  -11.6007  -47.6469 H         1 UNK         0.3000 
    185 H185        3.4642  -10.3836  -48.7162 H         1 UNK         0.0600 
    186 H186        5.2032   -9.6060  -47.1581 H         1 UNK         0.0600 
    187 H187        5.1376  -11.1111  -46.2527 H         1 UNK         0.0600 
    188 H188        5.7328  -11.1007  -47.9120 H         1 UNK         0.0600 
    189 H189        3.1752  -12.5689  -49.0276 H         1 UNK         0.3000 
    190 H190       -1.7602  -21.2312  -47.0101 H         1 UNK         0.3000 
    191 H191       -3.3512  -22.4659  -48.9785 H         1 UNK         0.0600 
    192 H192       -4.0315  -21.7837  -46.0680 H         1 UNK         0.0600 
    193 H193       -5.2041  -22.1371  -47.3323 H         1 UNK         0.0600 
    194 H194       -4.1979  -20.7038  -47.4472 H         1 UNK         0.0600 
    195 H195       -2.1934  -23.7580  -45.8272 H         1 UNK         0.3000 
    196 H196       -3.5387  -26.2585  -45.9686 H         1 UNK         0.0600 
    197 H197       -1.8676  -26.9564  -44.2470 H         1 UNK         0.0600 
    198 H198       -2.5629  -25.3864  -43.8733 H         1 UNK         0.0600 
    199 H199       -0.9370  -25.4928  -44.5417 H         1 UNK         0.0600 
    200 H200       -0.2527  -25.2869  -47.0647 H         1 UNK         0.3000 
    201 H201        0.5306  -27.8327  -48.0698 H         1 UNK         0.0600 
    202 H202        2.1434  -26.0342  -47.5173 H         1 UNK         0.0600 
    203 H203        1.5037  -25.0222  -48.8095 H         1 UNK         0.0600 
    204 H204        2.3345  -26.5247  -49.1943 H         1 UNK         0.0600 
    205 H205       -1.0531  -25.0438  -49.6569 H         1 UNK         0.3000 
    206 H206       -1.1366  -26.2518  -52.2809 H         1 UNK         0.0600 
    207 H207       -0.9827  -23.7798  -51.8498 H         1 UNK         0.0600 
    208 H208       -2.3449  -24.1959  -52.8682 H         1 UNK         0.0600 
    209 H209       -2.6064  -23.8059  -51.1688 H         1 UNK         0.0600 
    210 H210       -2.9295  -26.9691  -49.5632 H         1 UNK         0.3000 
    211 H211       -4.7289  -28.1404  -49.0843 H         1 UNK         0.0600 
    212 H212       -4.8385  -28.9588  -52.0346 H         1 UNK         0.0600 
    213 H213       -5.6269  -29.7753  -50.6935 H         1 UNK         0.0600 
    214 H214       -3.8734  -29.7461  -50.7867 H         1 UNK         0.0600 
    215 H215       -5.2092  -25.6088  -49.0803 H         1 UNK         0.3000 
    216 H216       -6.7761  -24.0996  -48.8359 H         1 UNK         0.0600 
    217 H217       -9.1500  -24.7255  -48.6997 H         1 UNK         0.0600 
    218 H218       -8.1692  -25.9654  -47.9362 H         1 UNK         0.0600 
    219 H219       -8.8506  -26.2396  -49.5393 H         1 UNK         0.0600 
    220 H220       -5.4055  -23.9125  -51.1244 H         1 UNK         0.3000 
    221 H221       -7.0014  -23.4153  -53.4591 H         1 UNK         0.0600 
    222 H222       -4.2316  -22.3809  -52.6351 H         1 UNK         0.0600 
    223 H223       -4.5660  -23.8333  -53.5855 H         1 UNK         0.0600 
    224 H224       -4.9255  -22.2464  -54.2439 H         1 UNK         0.0600 
    225 H225       -7.6698  -21.4377  -54.3447 H         1 UNK         0.3000 
    226 H226       -8.8630  -19.5587  -52.6091 H         1 UNK         0.0600 
    227 H227       -9.7510  -20.0835  -54.8572 H         1 UNK         0.0600 
    228 H228       -9.4103  -18.3643  -54.7393 H         1 UNK         0.0600 
    229 H229       -8.3083  -19.4147  -55.6209 H         1 UNK         0.0600 
    230 H230       -8.0624  -17.8609  -51.5952 H         1 UNK         0.3000 
    231 H231       -6.7714  -16.2692  -50.7924 H         1 UNK         0.0600 
    232 H232       -7.1975  -15.1443  -52.9971 H         1 UNK         0.0600 
    233 H233       -5.6977  -15.8254  -53.6266 H         1 UNK         0.0600 
    234 H234       -5.6573  -14.6812  -52.2943 H         1 UNK         0.0600 
    235 H235       -5.7911  -19.0244  -50.8795 H         1 UNK         0.3000 
    236 H236       -4.2202  -20.2400  -49.9988 H         1 UNK         0.0600 
    237 H237       -2.3330  -19.2746  -48.7303 H         1 UNK         0.0600 
    238 H238       -2.6325  -17.6895  -49.4128 H         1 UNK         0.0600 
    239 H239       -3.8213  -18.4261  -48.3388 H         1 UNK         0.0600 
    240 H240       -3.0165  -17.9127  -52.3251 H         1 UNK         0.3000 
    241 H241       -0.5811  -19.0465  -52.9994 H         1 UNK         0.0600 
    242 H242       -0.9608  -21.8112  -55.1800 H         1 UNK         0.3800 
    243 H243        0.0920  -20.8758  -54.1562 H         1 UNK         0.3800 
    244 H244       -1.7666  -16.7497  -53.7003 H         1 UNK         0.0800 
    245 H245       -2.2704  -17.6208  -55.1099 H         1 UNK         0.0800 
    246 H246        0.1994  -15.1012  -54.0965 H         1 UNK         0.0800 
    247 H247        1.8050  -15.7548  -54.3078 H         1 UNK         0.0800 
@<TRIPOS>BOND
     1    1    2 1    
     2    1  127 1    
     3    1  128 1    
     4    1  129 1    
     5    2    3 2    
     6    2    4 am   BACKBONE|DICT|INTERRES
     7    4    5 1    
     8    4  130 1    
     9    5    6 1    
    10    5   65 1    
    11    5  131 1    
    12    6    7 1    
    13    6  132 1    
    14    6  133 1    
    15    7    8 1    
    16    8    9 1    
    17    8  134 1    
    18    8  135 1    
    19    9   10 ar   
    20    9   14 ar   
    21   10   11 ar   
    22   10  136 1    
    23   11   12 ar   
    24   11  126 1    
    25   12   13 ar   
    26   12  137 1    
    27   13   14 ar   
    28   13   15 1    
    29   14  138 1    
    30   15   16 1    
    31   15  139 1    
    32   15  140 1    
    33   16   17 1    
    34   17   18 1    
    35   17  141 1    
    36   17  142 1    
    37   18   19 1    
    38   18   67 1    
    39   18  143 1    
    40   19   20 am   BACKBONE|DICT|INTERRES
    41   19  144 1    
    42   20   21 2    
    43   20   22 1    
    44   22   23 1    
    45   22   24 1    
    46   22  145 1    
    47   23  146 1    
    48   23  147 1    
    49   23  148 1    
    50   24   25 am   BACKBONE|DICT|INTERRES
    51   24  149 1    
    52   25   26 2    
    53   25   27 1    
    54   27   28 1    
    55   27   29 1    
    56   27  150 1    
    57   28  151 1    
    58   28  152 1    
    59   28  153 1    
    60   29   30 am   BACKBONE|DICT|INTERRES
    61   29  154 1    
    62   30   31 2    
    63   30   32 1    
    64   32   33 1    
    65   32   34 1    
    66   32  155 1    
    67   33  156 1    
    68   33  157 1    
    69   33  158 1    
    70   34   35 am   BACKBONE|DICT|INTERRES
    71   34  159 1    
    72   35   36 2    
    73   35   37 1    
    74   37   38 1    
    75   37   39 1    
    76   37  160 1    
    77   38  161 1    
    78   38  162 1    
    79   38  163 1    
    80   39   40 am   BACKBONE|DICT|INTERRES
    81   39  164 1    
    82   40   41 2    
    83   40   42 1    
    84   42   43 1    
    85   42   44 1    
    86   42  165 1    
    87   43  166 1    
    88   43  167 1    
    89   43  168 1    
    90   44   45 am   BACKBONE|DICT|INTERRES
    91   44  169 1    
    92   45   46 2    
    93   45   47 1    
    94   47   48 1    
    95   47   49 1    
    96   47  170 1    
    97   48  171 1    
    98   48  172 1    
    99   48  173 1    
   100   49   50 am   BACKBONE|DICT|INTERRES
   101   49  174 1    
   102   50   51 2    
   103   50   52 1    
   104   52   53 1    
   105   52   54 1    
   106   52  175 1    
   107   53  176 1    
   108   53  177 1    
   109   53  178 1    
   110   54   55 am   BACKBONE|DICT|INTERRES
   111   54  179 1    
   112   55   56 2    
   113   55   57 1    
   114   57   58 1    
   115   57   59 1    
   116   57  180 1    
   117   58  181 1    
   118   58  182 1    
   119   58  183 1    
   120   59   60 am   BACKBONE|DICT|INTERRES
   121   59  184 1    
   122   60   61 2    
   123   60   62 1    
   124   62   63 1    
   125   62   64 1    
   126   62  185 1    
   127   63  186 1    
   128   63  187 1    
   129   63  188 1    
   130   64   65 am   BACKBONE|DICT|INTERRES
   131   64  189 1    
   132   65   66 2    
   133   67   68 2    
   134   67   69 am   BACKBONE|DICT|INTERRES
   135   69   70 1    
   136   69  190 1    
   137   70   71 1    
   138   70   72 1    
   139   70  191 1    
   140   71  192 1    
   141   71  193 1    
   142   71  194 1    
   143   72   73 2    
   144   72   74 am   BACKBONE|DICT|INTERRES
   145   74   75 1    
   146   74  195 1    
   147   75   76 1    
   148   75   77 1    
   149   75  196 1    
   150   76  197 1    
   151   76  198 1    
   152   76  199 1    
   153   77   78 2    
   154   77   79 am   BACKBONE|DICT|INTERRES
   155   79   80 1    
   156   79  200 1    
   157   80   81 1    
   158   80   82 1    
   159   80  201 1    
   160   81  202 1    
   161   81  203 1    
   162   81  204 1    
   163   82   83 2    
   164   82   84 am   BACKBONE|DICT|INTERRES
   165   84   85 1    
   166   84  205 1    
   167   85   86 1    
   168   85   87 1    
   169   85  206 1    
   170   86  207 1    
   171   86  208 1    
   172   86  209 1    
   173   87   88 2    
   174   87   89 am   BACKBONE|DICT|INTERRES
   175   89   90 1    
   176   89  210 1    
   177   90   91 1    
   178   90   92 1    
   179   90  211 1    
   180   91  212 1    
   181   91  213 1    
   182   91  214 1    
   183   92   93 2    
   184   92   94 am   BACKBONE|DICT|INTERRES
   185   94   95 1    
   186   94  215 1    
   187   95   96 1    
   188   95   97 1    
   189   95  216 1    
   190   96  217 1    
   191   96  218 1    
   192   96  219 1    
   193   97   98 2    
   194   97   99 am   BACKBONE|DICT|INTERRES
   195   99  100 1    
   196   99  220 1    
   197  100  101 1    
   198  100  102 1    
   199  100  221 1    
   200  101  222 1    
   201  101  223 1    
   202  101  224 1    
   203  102  103 2    
   204  102  104 am   BACKBONE|DICT|INTERRES
   205  104  105 1    
   206  104  225 1    
   207  105  106 1    
   208  105  107 1    
   209  105  226 1    
   210  106  227 1    
   211  106  228 1    
   212  106  229 1    
   213  107  108 2    
   214  107  109 am   BACKBONE|DICT|INTERRES
   215  109  110 1    
   216  109  230 1    
   217  110  111 1    
   218  110  112 1    
   219  110  231 1    
   220  111  232 1    
   221  111  233 1    
   222  111  234 1    
   223  112  113 2    
   224  112  114 am   BACKBONE|DICT|INTERRES
   225  114  115 1    
   226  114  235 1    
   227  115  116 1    
   228  115  117 1    
   229  115  236 1    
   230  116  237 1    
   231  116  238 1    
   232  116  239 1    
   233  117  118 2    
   234  117  119 am   BACKBONE|DICT|INTERRES
   235  119  120 1    
   236  119  240 1    
   237  120  121 1    
   238  120  124 1    
   239  120  241 1    
   240  121  122 am   BACKBONE|DICT|INTERRES
   241  121  123 2    
   242  122  242 1    
   243  122  243 1    
   244  124  125 1    
   245  124  244 1    
   246  124  245 1    
   247  125  126 1    
   248  126  246 1    
   249  126  247 1    
@<TRIPOS>SUBSTRUCTURE
     1 UNK         1 GROUP             0       ****    0 ROOT    
