@<TRIPOS>MOLECULE
3R540
247   249    1
SMALL
USER_CHARGES


@<TRIPOS>ATOM
      1 CA          2.9572   -9.7605  -50.9877 C.3       0 UNK        -0.1800 
      2 C           3.5267  -11.1098  -50.5745 C.2       0 UNK         0.5000 
      3 O           4.3172  -11.1791  -49.6335 O.2       0 UNK        -0.5000 
      4 N           3.1267  -12.1811  -51.2723 N.am      1 UNK        -0.5000 
      5 CA          3.5356  -13.5667  -51.0049 C.3       1 UNK         0.1400 
      6 C6          3.2648  -14.5043  -52.2094 C.3       23 UNK        -0.0398 
      7 S7          1.5795  -14.3888  -52.9158 S.3       23 UNK        -0.2404 
      8 C8          1.0295  -16.1242  -52.9011 C.3       23 UNK        -0.0205 
      9 C9          0.4331  -16.5075  -51.5576 C.ar      23 UNK        -0.0193 
     10 C10        -0.9432  -16.3781  -51.3405 C.ar      23 UNK        -0.1150 
     11 C11        -1.4972  -16.7218  -50.1048 C.ar      23 UNK        -0.0193 
     12 C12        -0.6597  -17.1468  -49.0753 C.ar      23 UNK        -0.1150 
     13 C13         0.7043  -17.3450  -49.2971 C.ar      23 UNK        -0.0193 
     14 C14         1.2474  -17.0179  -50.5415 C.ar      23 UNK        -0.1150 
     15 C15         1.5739  -17.9511  -48.2053 C.3       23 UNK        -0.0205 
     16 S16         1.5330  -19.7781  -48.2379 S.3       23 UNK        -0.2404 
     17 C17        -0.2420  -20.1075  -47.9693 C.3       23 UNK        -0.0398 
     18 CA         -0.5409  -21.4959  -47.3636 C.3       11 UNK         0.1400 
     19 N          -0.2139  -21.5388  -45.9350 N.am      11 UNK        -0.5000 
     20 C          -0.3137  -22.6109  -45.1382 C.2       10 UNK         0.5000 
     21 O          -0.6357  -23.7309  -45.5307 O.2       10 UNK        -0.5000 
     22 CA         -0.0597  -22.3813  -43.6370 C.3       10 UNK         0.1400 
     23 CB          1.4444  -22.3032  -43.3348 C.3       10 UNK        -0.1800 
     24 N          -0.7334  -21.1838  -43.1298 N.am      10 UNK        -0.5000 
     25 C          -2.0654  -21.0322  -43.0805 C.2       9 UNK         0.5000 
     26 O          -2.8646  -21.9020  -43.4245 O.2       9 UNK        -0.5000 
     27 CA         -2.6005  -19.6712  -42.5991 C.3       9 UNK         0.1400 
     28 CB         -2.5767  -19.5867  -41.0657 C.3       9 UNK        -0.1800 
     29 N          -1.8709  -18.5378  -43.1664 N.am      9 UNK        -0.5000 
     30 C          -1.8135  -18.2481  -44.4739 C.2       8 UNK         0.5000 
     31 O          -2.4023  -18.8850  -45.3458 O.2       8 UNK        -0.5000 
     32 CA         -0.8902  -17.0905  -44.8874 C.3       8 UNK         0.1400 
     33 CB         -1.5572  -15.7313  -44.6344 C.3       8 UNK        -0.1800 
     34 N           0.4105  -17.1402  -44.2223 N.am      8 UNK        -0.5000 
     35 C           1.2743  -18.1629  -44.2970 C.2       7 UNK         0.5000 
     36 O           1.0791  -19.1779  -44.9618 O.2       7 UNK        -0.5000 
     37 CA          2.5424  -18.0579  -43.4370 C.3       7 UNK         0.1400 
     38 CB          3.5738  -17.1176  -44.0811 C.3       7 UNK        -0.1800 
     39 N           2.2301  -17.6102  -42.0805 N.am      7 UNK        -0.5000 
     40 C           1.5355  -18.3331  -41.1894 C.2       6 UNK         0.5000 
     41 O           1.1335  -19.4781  -41.3981 O.2       6 UNK        -0.5000 
     42 CA          1.1977  -17.6384  -39.8580 C.3       6 UNK         0.1400 
     43 CB          2.3783  -17.7341  -38.8802 C.3       6 UNK        -0.1800 
     44 N           0.8297  -16.2331  -40.0408 N.am      6 UNK        -0.5000 
     45 C          -0.2830  -15.8188  -40.6635 C.2       5 UNK         0.5000 
     46 O          -1.1350  -16.5804  -41.1197 O.2       5 UNK        -0.5000 
     47 CA         -0.4442  -14.2984  -40.8495 C.3       5 UNK         0.1400 
     48 CB         -1.0667  -13.6629  -39.5975 C.3       5 UNK        -0.1800 
     49 N           0.8155  -13.6186  -41.1683 N.am      5 UNK        -0.5000 
     50 C           1.5381  -13.8475  -42.2719 C.2       4 UNK         0.5000 
     51 O           1.2308  -14.6761  -43.1321 O.2       4 UNK        -0.5000 
     52 CA          2.8414  -13.0571  -42.4216 C.3       4 UNK         0.1400 
     53 CB          3.9643  -13.6910  -41.5809 C.3       4 UNK        -0.1800 
     54 N           3.2199  -13.0597  -43.8296 N.am      4 UNK        -0.5000 
     55 C           3.9665  -12.1344  -44.4381 C.2       3 UNK         0.5000 
     56 O           4.4557  -11.1650  -43.8559 O.2       3 UNK        -0.5000 
     57 CA          4.2267  -12.3148  -45.9466 C.3       3 UNK         0.1400 
     58 CB          5.6380  -12.8751  -46.1815 C.3       3 UNK        -0.1800 
     59 N           3.2670  -13.1720  -46.6480 N.am      3 UNK        -0.5000 
     60 C           1.9836  -12.8734  -46.8861 C.2       2 UNK         0.5000 
     61 O           1.4099  -11.8927  -46.4101 O.2       2 UNK        -0.5000 
     62 CA          1.2597  -13.7911  -47.8948 C.3       2 UNK         0.1400 
     63 CB         -0.2560  -13.5328  -47.9568 C.3       2 UNK        -0.1800 
     64 N           1.8237  -13.5874  -49.2295 N.am      2 UNK        -0.5000 
     65 C           2.9715  -14.1169  -49.6757 C.2       1 UNK         0.5000 
     66 O           3.6152  -14.9593  -49.0472 O.2       1 UNK        -0.5000 
     67 C          -2.0133  -21.8771  -47.6293 C.2       11 UNK         0.5000 
     68 O          -2.2769  -22.7300  -48.4805 O.2       11 UNK        -0.5000 
     69 N          -2.9365  -21.2475  -46.8866 N.am      12 UNK        -0.5000 
     70 CA         -4.3811  -21.4535  -46.9919 C.3       12 UNK         0.1400 
     71 CB         -5.1145  -20.3766  -46.1805 C.3       12 UNK        -0.1800 
     72 C          -4.8392  -22.8591  -46.5650 C.2       12 UNK         0.5000 
     73 O          -5.8619  -23.3316  -47.0612 O.2       12 UNK        -0.5000 
     74 N          -4.0658  -23.5354  -45.7043 N.am      13 UNK        -0.5000 
     75 CA         -4.2483  -24.9347  -45.3078 C.3       13 UNK         0.1400 
     76 CB         -3.5290  -25.1780  -43.9692 C.3       13 UNK        -0.1800 
     77 C          -3.8022  -25.9154  -46.4175 C.2       13 UNK         0.5000 
     78 O          -2.9988  -26.8157  -46.1722 O.2       13 UNK        -0.5000 
     79 N          -4.3269  -25.6979  -47.6307 N.am      14 UNK        -0.5000 
     80 CA         -4.1625  -26.4444  -48.8817 C.3       14 UNK         0.1400 
     81 CB         -4.6798  -27.8873  -48.7293 C.3       14 UNK        -0.1800 
     82 C          -2.7552  -26.4253  -49.5154 C.2       14 UNK         0.5000 
     83 O          -2.6344  -26.8226  -50.6757 O.2       14 UNK        -0.5000 
     84 N          -1.7269  -25.9684  -48.7887 N.am      15 UNK        -0.5000 
     85 CA         -0.3233  -26.0098  -49.2056 C.3       15 UNK         0.1400 
     86 CB          0.5756  -25.5806  -48.0391 C.3       15 UNK        -0.1800 
     87 C          -0.0152  -25.1754  -50.4611 C.2       15 UNK         0.5000 
     88 O           0.7906  -25.6077  -51.2866 O.2       15 UNK        -0.5000 
     89 N          -0.6843  -24.0250  -50.6193 N.am      16 UNK        -0.5000 
     90 CA         -0.5705  -23.1521  -51.7909 C.3       16 UNK         0.1400 
     91 CB         -0.9027  -21.7065  -51.3828 C.3       16 UNK        -0.1800 
     92 C          -1.4242  -23.6550  -52.9745 C.2       16 UNK         0.5000 
     93 O          -2.2459  -22.9056  -53.4985 O.2       16 UNK        -0.5000 
     94 N          -1.2170  -24.9218  -53.3641 N.am      17 UNK        -0.5000 
     95 CA         -1.8643  -25.6351  -54.4718 C.3       17 UNK         0.1400 
     96 CB         -1.3887  -25.0648  -55.8246 C.3       17 UNK        -0.1800 
     97 C          -3.4014  -25.6670  -54.3392 C.2       17 UNK         0.5000 
     98 O          -4.1118  -25.2046  -55.2334 O.2       17 UNK        -0.5000 
     99 N          -3.8751  -26.1967  -53.2013 N.am      18 UNK        -0.5000 
    100 CA        -5.2751  -26.2331  -52.7629 C.3       18 UNK         0.1400 
    101 CB        -6.1674  -27.0285  -53.7397 C.3       18 UNK        -0.1800 
    102 C         -5.8079  -24.8209  -52.4450 C.2       18 UNK         0.5000 
    103 O         -6.9206  -24.4675  -52.8387 O.2       18 UNK        -0.5000 
    104 N         -4.9758  -24.0361  -51.7438 N.am      19 UNK        -0.5000 
    105 CA        -5.1680  -22.6560  -51.2750 C.3       19 UNK         0.1400 
    106 CB        -6.4345  -22.5226  -50.4087 C.3       19 UNK        -0.1800 
    107 C         -5.1425  -21.5979  -52.3950 C.2       19 UNK         0.5000 
    108 O         -4.5118  -20.5577  -52.2108 O.2       19 UNK        -0.5000 
    109 N         -5.8078  -21.8862  -53.5234 N.am      20 UNK        -0.5000 
    110 CA        -5.8360  -21.1376  -54.7837 C.3       20 UNK         0.1400 
    111 CB        -4.5553  -21.4391  -55.5914 C.3       20 UNK        -0.1800 
    112 C         -6.0970  -19.6289  -54.5895 C.2       20 UNK         0.5000 
    113 O         -7.2402  -19.2361  -54.3474 O.2       20 UNK        -0.5000 
    114 N         -5.0289  -18.8222  -54.6676 N.am      21 UNK        -0.5000 
    115 CA        -5.0117  -17.3692  -54.4895 C.3       21 UNK         0.1400 
    116 CB        -3.5743  -16.8663  -54.6988 C.3       21 UNK        -0.1800 
    117 C         -5.5520  -16.8803  -53.1313 C.2       21 UNK         0.5000 
    118 O         -6.0260  -15.7460  -53.0526 O.2       21 UNK        -0.5000 
    119 N         -5.4876  -17.7297  -52.0974 N.am      22 UNK        -0.5000 
    120 CA        -6.0597  -17.4552  -50.7697 C.3       22 UNK         0.1400 
    121 C         -7.6116  -17.5842  -50.7074 C.2       22 UNK         0.5000 
    122 N         -8.2866  -18.1034  -51.7279 N.am      22 UNK        -0.7600 
    123 O         -8.2175  -17.1996  -49.7112 O.2       22 UNK        -0.5000 
    124 C124       -5.4017  -18.3006  -49.6463 C.3       23 UNK        -0.0398 
    125 S125       -3.5829  -18.4411  -49.7033 S.3       23 UNK        -0.2404 
    126 C126       -3.0010  -16.7212  -49.8859 C.3       23 UNK        -0.0205 
    127 H127        2.4123   -9.3134  -50.1562 H         1 UNK         0.0600 
    128 H128        2.2745   -9.8500  -51.8331 H         1 UNK         0.0600 
    129 H129        3.7634   -9.0841  -51.2717 H         1 UNK         0.0600 
    130 H130        2.4766  -12.0661  -52.0378 H         1 UNK         0.3000 
    131 H131        4.6195  -13.5487  -50.8699 H         1 UNK         0.0600 
    132 H132        3.9576  -14.2482  -53.0120 H         1 UNK         0.0800 
    133 H133        3.5028  -15.5371  -51.9526 H         1 UNK         0.0800 
    134 H134        1.8561  -16.7876  -53.1600 H         1 UNK         0.0800 
    135 H135        0.2824  -16.2580  -53.6850 H         1 UNK         0.0800 
    136 H136       -1.5831  -16.0305  -52.1391 H         1 UNK         0.1150 
    137 H137       -1.1016  -17.3957  -48.1246 H         1 UNK         0.1150 
    138 H138        2.3038  -17.1624  -50.7156 H         1 UNK         0.1150 
    139 H139        2.6061  -17.6179  -48.3235 H         1 UNK         0.0800 
    140 H140        1.2528  -17.5921  -47.2287 H         1 UNK         0.0800 
    141 H141       -0.7465  -19.9698  -48.9269 H         1 UNK         0.0800 
    142 H142       -0.6426  -19.3450  -47.3039 H         1 UNK         0.0800 
    143 H143        0.0804  -22.2342  -47.8724 H         1 UNK         0.0600 
    144 H144        0.1154  -20.6654  -45.5283 H         1 UNK         0.3000 
    145 H145       -0.4649  -23.2411  -43.0993 H         1 UNK         0.0600 
    146 H146        1.6263  -22.2132  -42.2637 H         1 UNK         0.0600 
    147 H147        1.9577  -23.2022  -43.6782 H         1 UNK         0.0600 
    148 H148        1.9136  -21.4504  -43.8251 H         1 UNK         0.0600 
    149 H149       -0.1396  -20.4295  -42.8035 H         1 UNK         0.3000 
    150 H150       -3.6393  -19.5914  -42.9258 H         1 UNK         0.0600 
    151 H151       -3.1245  -20.4177  -40.6196 H         1 UNK         0.0600 
    152 H152       -3.0416  -18.6651  -40.7153 H         1 UNK         0.0600 
    153 H153       -1.5588  -19.6160  -40.6761 H         1 UNK         0.0600 
    154 H154       -1.3906  -17.9309  -42.5082 H         1 UNK         0.3000 
    155 H155       -0.7072  -17.1780  -45.9566 H         1 UNK         0.0600 
    156 H156       -2.4857  -15.6426  -45.1996 H         1 UNK         0.0600 
    157 H157       -0.9087  -14.9103  -44.9389 H         1 UNK         0.0600 
    158 H158       -1.7990  -15.5902  -43.5814 H         1 UNK         0.0600 
    159 H159        0.6691  -16.3211  -43.6765 H         1 UNK         0.3000 
    160 H160        2.9865  -19.0536  -43.3723 H         1 UNK         0.0600 
    161 H161        3.1964  -16.1006  -44.1809 H         1 UNK         0.0600 
    162 H162        3.8420  -17.4640  -45.0801 H         1 UNK         0.0600 
    163 H163        4.4915  -17.0777  -43.4942 H         1 UNK         0.0600 
    164 H164        2.4810  -16.6630  -41.8438 H         1 UNK         0.3000 
    165 H165        0.3453  -18.1598  -39.4171 H         1 UNK         0.0600 
    166 H166        2.1207  -17.3110  -37.9091 H         1 UNK         0.0600 
    167 H167        2.6640  -18.7738  -38.7151 H         1 UNK         0.0600 
    168 H168        3.2573  -17.2073  -39.2539 H         1 UNK         0.0600 
    169 H169        1.4756  -15.5399  -39.6936 H         1 UNK         0.3000 
    170 H170       -1.1284  -14.1400  -41.6856 H         1 UNK         0.0600 
    171 H171       -2.0158  -14.1399  -39.3489 H         1 UNK         0.0600 
    172 H172       -0.4140  -13.7577  -38.7289 H         1 UNK         0.0600 
    173 H173       -1.2687  -12.6028  -39.7523 H         1 UNK         0.0600 
    174 H174        1.1362  -12.9290  -40.5038 H         1 UNK         0.3000 
    175 H175        2.6620  -12.0318  -42.0912 H         1 UNK         0.0600 
    176 H176        4.1714  -14.7151  -41.8939 H         1 UNK         0.0600 
    177 H177        4.8907  -13.1232  -41.6682 H         1 UNK         0.0600 
    178 H178        3.7004  -13.7156  -40.5231 H         1 UNK         0.0600 
    179 H179        2.7917  -13.7941  -44.3781 H         1 UNK         0.3000 
    180 H180        4.1765  -11.3236  -46.4022 H         1 UNK         0.0600 
    181 H181        5.7427  -13.8820  -45.7752 H         1 UNK         0.0600 
    182 H182        6.3939  -12.2482  -45.7066 H         1 UNK         0.0600 
    183 H183        5.8732  -12.9148  -47.2456 H         1 UNK         0.0600 
    184 H184        3.6551  -13.9705  -47.1364 H         1 UNK         0.3000 
    185 H185        1.4130  -14.8268  -47.5844 H         1 UNK         0.0600 
    186 H186       -0.7184  -13.6774  -46.9806 H         1 UNK         0.0600 
    187 H187       -0.4809  -12.5156  -48.2795 H         1 UNK         0.0600 
    188 H188       -0.7429  -14.2166  -48.6517 H         1 UNK         0.0600 
    189 H189        1.3800  -12.8822  -49.7989 H         1 UNK         0.3000 
    190 H190       -2.6385  -20.5288  -46.2307 H         1 UNK         0.3000 
    191 H191       -4.6532  -21.3286  -48.0419 H         1 UNK         0.0600 
    192 H192       -4.8689  -19.3776  -46.5415 H         1 UNK         0.0600 
    193 H193       -6.1960  -20.4935  -46.2600 H         1 UNK         0.0600 
    194 H194       -4.8529  -20.4255  -45.1229 H         1 UNK         0.0600 
    195 H195       -3.2548  -23.0658  -45.3205 H         1 UNK         0.3000 
    196 H196       -5.3130  -25.1096  -45.1412 H         1 UNK         0.0600 
    197 H197       -3.6885  -26.1979  -43.6174 H         1 UNK         0.0600 
    198 H198       -3.9016  -24.5074  -43.1948 H         1 UNK         0.0600 
    199 H199       -2.4535  -25.0238  -44.0550 H         1 UNK         0.0600 
    200 H200       -4.9563  -24.9021  -47.6911 H         1 UNK         0.3000 
    201 H201       -4.8156  -25.9399  -49.5931 H         1 UNK         0.0600 
    202 H202       -5.7041  -27.9021  -48.3569 H         1 UNK         0.0600 
    203 H203       -4.0639  -28.4683  -48.0422 H         1 UNK         0.0600 
    204 H204       -4.6768  -28.4087  -49.6873 H         1 UNK         0.0600 
    205 H205       -1.9115  -25.6668  -47.8417 H         1 UNK         0.3000 
    206 H206       -0.0898  -27.0501  -49.4416 H         1 UNK         0.0600 
    207 H207        0.3811  -26.1749  -47.1460 H         1 UNK         0.0600 
    208 H208        1.6292  -25.7051  -48.2918 H         1 UNK         0.0600 
    209 H209        0.4235  -24.5332  -47.7849 H         1 UNK         0.0600 
    210 H210       -1.3392  -23.7364  -49.8975 H         1 UNK         0.3000 
    211 H211        0.4663  -23.1541  -52.1338 H         1 UNK         0.0600 
    212 H212       -1.9103  -21.6172  -50.9754 H         1 UNK         0.0600 
    213 H213       -0.8330  -21.0278  -52.2338 H         1 UNK         0.0600 
    214 H214       -0.1960  -21.3512  -50.6353 H         1 UNK         0.0600 
    215 H215       -0.5274  -25.4507  -52.8403 H         1 UNK         0.3000 
    216 H216       -1.5271  -26.6710  -54.4146 H         1 UNK         0.0600 
    217 H217       -1.7932  -25.6435  -56.6557 H         1 UNK         0.0600 
    218 H218       -0.3022  -25.0970  -55.9056 H         1 UNK         0.0600 
    219 H219       -1.7044  -24.0299  -55.9627 H         1 UNK         0.0600 
    220 H220       -3.2072  -26.5281  -52.5093 H         1 UNK         0.3000 
    221 H221       -5.2804  -26.7787  -51.8191 H         1 UNK         0.0600 
    222 H222       -6.2994  -26.5126  -54.6908 H         1 UNK         0.0600 
    223 H223       -5.7467  -28.0126  -53.9460 H         1 UNK         0.0600 
    224 H224       -7.1607  -27.1827  -53.3168 H         1 UNK         0.0600 
    225 H225       -4.0542  -24.4085  -51.5695 H         1 UNK         0.3000 
    226 H226       -4.3118  -22.4497  -50.6301 H         1 UNK         0.0600 
    227 H227       -6.4721  -23.2969  -49.6436 H         1 UNK         0.0600 
    228 H228       -6.4592  -21.5598  -49.8998 H         1 UNK         0.0600 
    229 H229       -7.3462  -22.5970  -51.0020 H         1 UNK         0.0600 
    230 H230       -6.3226  -22.7618  -53.5234 H         1 UNK         0.3000 
    231 H231       -6.6822  -21.5238  -55.3534 H         1 UNK         0.0600 
    232 H232       -3.6513  -21.1592  -55.0496 H         1 UNK         0.0600 
    233 H233       -4.5538  -20.9096  -56.5449 H         1 UNK         0.0600 
    234 H234       -4.4802  -22.5033  -55.8151 H         1 UNK         0.0600 
    235 H235       -4.1307  -19.2590  -54.8138 H         1 UNK         0.3000 
    236 H236       -5.6459  -16.9373  -55.2659 H         1 UNK         0.0600 
    237 H237       -3.2095  -17.1137  -55.6958 H         1 UNK         0.0600 
    238 H238       -3.5183  -15.7819  -54.5937 H         1 UNK         0.0600 
    239 H239       -2.8882  -17.3023  -53.9712 H         1 UNK         0.0600 
    240 H240       -5.0730  -18.6488  -52.2276 H         1 UNK         0.3000 
    241 H241       -5.8521  -16.4092  -50.5384 H         1 UNK         0.0600 
    242 H242       -9.2901  -18.1736  -51.6702 H         1 UNK         0.3800 
    243 H243       -7.8119  -18.4237  -52.5651 H         1 UNK         0.3800 
    244 H244       -5.6765  -17.9026  -48.6681 H         1 UNK         0.0800 
    245 H245       -5.7892  -19.3192  -49.6739 H         1 UNK         0.0800 
    246 H246       -3.5004  -16.2381  -50.7256 H         1 UNK         0.0800 
    247 H247       -3.2488  -16.1488  -48.9911 H         1 UNK         0.0800 
@<TRIPOS>BOND
     1    1    2 1    
     2    1  127 1    
     3    1  128 1    
     4    1  129 1    
     5    2    3 2    
     6    2    4 am   BACKBONE|DICT|INTERRES
     7    4    5 1    
     8    4  130 1    
     9    5    6 1    
    10    5   65 1    
    11    5  131 1    
    12    6    7 1    
    13    6  132 1    
    14    6  133 1    
    15    7    8 1    
    16    8    9 1    
    17    8  134 1    
    18    8  135 1    
    19    9   10 ar   
    20    9   14 ar   
    21   10   11 ar   
    22   10  136 1    
    23   11   12 ar   
    24   11  126 1    
    25   12   13 ar   
    26   12  137 1    
    27   13   14 ar   
    28   13   15 1    
    29   14  138 1    
    30   15   16 1    
    31   15  139 1    
    32   15  140 1    
    33   16   17 1    
    34   17   18 1    
    35   17  141 1    
    36   17  142 1    
    37   18   19 1    
    38   18   67 1    
    39   18  143 1    
    40   19   20 am   BACKBONE|DICT|INTERRES
    41   19  144 1    
    42   20   21 2    
    43   20   22 1    
    44   22   23 1    
    45   22   24 1    
    46   22  145 1    
    47   23  146 1    
    48   23  147 1    
    49   23  148 1    
    50   24   25 am   BACKBONE|DICT|INTERRES
    51   24  149 1    
    52   25   26 2    
    53   25   27 1    
    54   27   28 1    
    55   27   29 1    
    56   27  150 1    
    57   28  151 1    
    58   28  152 1    
    59   28  153 1    
    60   29   30 am   BACKBONE|DICT|INTERRES
    61   29  154 1    
    62   30   31 2    
    63   30   32 1    
    64   32   33 1    
    65   32   34 1    
    66   32  155 1    
    67   33  156 1    
    68   33  157 1    
    69   33  158 1    
    70   34   35 am   BACKBONE|DICT|INTERRES
    71   34  159 1    
    72   35   36 2    
    73   35   37 1    
    74   37   38 1    
    75   37   39 1    
    76   37  160 1    
    77   38  161 1    
    78   38  162 1    
    79   38  163 1    
    80   39   40 am   BACKBONE|DICT|INTERRES
    81   39  164 1    
    82   40   41 2    
    83   40   42 1    
    84   42   43 1    
    85   42   44 1    
    86   42  165 1    
    87   43  166 1    
    88   43  167 1    
    89   43  168 1    
    90   44   45 am   BACKBONE|DICT|INTERRES
    91   44  169 1    
    92   45   46 2    
    93   45   47 1    
    94   47   48 1    
    95   47   49 1    
    96   47  170 1    
    97   48  171 1    
    98   48  172 1    
    99   48  173 1    
   100   49   50 am   BACKBONE|DICT|INTERRES
   101   49  174 1    
   102   50   51 2    
   103   50   52 1    
   104   52   53 1    
   105   52   54 1    
   106   52  175 1    
   107   53  176 1    
   108   53  177 1    
   109   53  178 1    
   110   54   55 am   BACKBONE|DICT|INTERRES
   111   54  179 1    
   112   55   56 2    
   113   55   57 1    
   114   57   58 1    
   115   57   59 1    
   116   57  180 1    
   117   58  181 1    
   118   58  182 1    
   119   58  183 1    
   120   59   60 am   BACKBONE|DICT|INTERRES
   121   59  184 1    
   122   60   61 2    
   123   60   62 1    
   124   62   63 1    
   125   62   64 1    
   126   62  185 1    
   127   63  186 1    
   128   63  187 1    
   129   63  188 1    
   130   64   65 am   BACKBONE|DICT|INTERRES
   131   64  189 1    
   132   65   66 2    
   133   67   68 2    
   134   67   69 am   BACKBONE|DICT|INTERRES
   135   69   70 1    
   136   69  190 1    
   137   70   71 1    
   138   70   72 1    
   139   70  191 1    
   140   71  192 1    
   141   71  193 1    
   142   71  194 1    
   143   72   73 2    
   144   72   74 am   BACKBONE|DICT|INTERRES
   145   74   75 1    
   146   74  195 1    
   147   75   76 1    
   148   75   77 1    
   149   75  196 1    
   150   76  197 1    
   151   76  198 1    
   152   76  199 1    
   153   77   78 2    
   154   77   79 am   BACKBONE|DICT|INTERRES
   155   79   80 1    
   156   79  200 1    
   157   80   81 1    
   158   80   82 1    
   159   80  201 1    
   160   81  202 1    
   161   81  203 1    
   162   81  204 1    
   163   82   83 2    
   164   82   84 am   BACKBONE|DICT|INTERRES
   165   84   85 1    
   166   84  205 1    
   167   85   86 1    
   168   85   87 1    
   169   85  206 1    
   170   86  207 1    
   171   86  208 1    
   172   86  209 1    
   173   87   88 2    
   174   87   89 am   BACKBONE|DICT|INTERRES
   175   89   90 1    
   176   89  210 1    
   177   90   91 1    
   178   90   92 1    
   179   90  211 1    
   180   91  212 1    
   181   91  213 1    
   182   91  214 1    
   183   92   93 2    
   184   92   94 am   BACKBONE|DICT|INTERRES
   185   94   95 1    
   186   94  215 1    
   187   95   96 1    
   188   95   97 1    
   189   95  216 1    
   190   96  217 1    
   191   96  218 1    
   192   96  219 1    
   193   97   98 2    
   194   97   99 am   BACKBONE|DICT|INTERRES
   195   99  100 1    
   196   99  220 1    
   197  100  101 1    
   198  100  102 1    
   199  100  221 1    
   200  101  222 1    
   201  101  223 1    
   202  101  224 1    
   203  102  103 2    
   204  102  104 am   BACKBONE|DICT|INTERRES
   205  104  105 1    
   206  104  225 1    
   207  105  106 1    
   208  105  107 1    
   209  105  226 1    
   210  106  227 1    
   211  106  228 1    
   212  106  229 1    
   213  107  108 2    
   214  107  109 am   BACKBONE|DICT|INTERRES
   215  109  110 1    
   216  109  230 1    
   217  110  111 1    
   218  110  112 1    
   219  110  231 1    
   220  111  232 1    
   221  111  233 1    
   222  111  234 1    
   223  112  113 2    
   224  112  114 am   BACKBONE|DICT|INTERRES
   225  114  115 1    
   226  114  235 1    
   227  115  116 1    
   228  115  117 1    
   229  115  236 1    
   230  116  237 1    
   231  116  238 1    
   232  116  239 1    
   233  117  118 2    
   234  117  119 am   BACKBONE|DICT|INTERRES
   235  119  120 1    
   236  119  240 1    
   237  120  121 1    
   238  120  124 1    
   239  120  241 1    
   240  121  122 am   BACKBONE|DICT|INTERRES
   241  121  123 2    
   242  122  242 1    
   243  122  243 1    
   244  124  125 1    
   245  124  244 1    
   246  124  245 1    
   247  125  126 1    
   248  126  246 1    
   249  126  247 1    
@<TRIPOS>SUBSTRUCTURE
     1 UNK         1 GROUP             0       ****    0 ROOT    
