@<TRIPOS>MOLECULE
3R540
247   249    1
SMALL
USER_CHARGES


@<TRIPOS>ATOM
      1 CA          3.5201  -14.5752  -44.8646 C.3       0 UNK        -0.1800 
      2 C           2.3806  -15.2057  -45.6518 C.2       0 UNK         0.5000 
      3 O           1.7608  -16.1612  -45.1796 O.2       0 UNK        -0.5000 
      4 N           2.1201  -14.6653  -46.8463 N.am      1 UNK        -0.5000 
      5 CA          0.9798  -14.9996  -47.7107 C.3       1 UNK         0.1400 
      6 C6          1.4307  -15.3083  -49.1613 C.3       23 UNK        -0.0398 
      7 S7          2.5418  -16.7526  -49.2673 S.3       23 UNK        -0.2404 
      8 C8          1.4310  -17.9807  -50.0343 C.3       23 UNK        -0.0205 
      9 C9          2.0577  -19.3533  -50.2750 C.ar      23 UNK        -0.0193 
     10 C10         1.5811  -20.1283  -51.3365 C.ar      23 UNK        -0.1150 
     11 C11         2.1226  -21.3884  -51.6141 C.ar      23 UNK        -0.0193 
     12 C12         3.1445  -21.8791  -50.7962 C.ar      23 UNK        -0.1150 
     13 C13         3.6274  -21.1264  -49.7218 C.ar      23 UNK        -0.0193 
     14 C14         3.0758  -19.8685  -49.4620 C.ar      23 UNK        -0.1150 
     15 C15         4.7631  -21.6663  -48.8604 C.3       23 UNK        -0.0205 
     16 S16         4.2452  -22.0333  -47.1534 S.3       23 UNK        -0.2404 
     17 C17         2.8704  -23.1997  -47.4229 C.3       23 UNK        -0.0398 
     18 CA          2.7778  -24.3260  -46.3622 C.3       11 UNK         0.1400 
     19 N           2.7163  -23.8035  -44.9898 N.am      11 UNK        -0.5000 
     20 C           2.8586  -24.5384  -43.8769 C.2       10 UNK         0.5000 
     21 O           3.1703  -25.7295  -43.8801 O.2       10 UNK        -0.5000 
     22 CA          2.5388  -23.8425  -42.5410 C.3       10 UNK         0.1400 
     23 CB          3.8021  -23.2248  -41.9219 C.3       10 UNK        -0.1800 
     24 N           1.5048  -22.8152  -42.6957 N.am      10 UNK        -0.5000 
     25 C           0.1961  -23.0739  -42.8370 C.2       9 UNK         0.5000 
     26 O          -0.2798  -24.2084  -42.8052 O.2       9 UNK        -0.5000 
     27 CA         -0.7356  -21.8765  -43.1055 C.3       9 UNK         0.1400 
     28 CB         -1.2355  -21.2758  -41.7845 C.3       9 UNK        -0.1800 
     29 N          -0.0980  -20.8368  -43.9163 N.am      9 UNK        -0.5000 
     30 C           0.1998  -20.9879  -45.2143 C.2       8 UNK         0.5000 
     31 O          -0.1181  -21.9854  -45.8637 O.2       8 UNK        -0.5000 
     32 CA          1.0093  -19.8773  -45.9091 C.3       8 UNK         0.1400 
     33 CB          0.0866  -18.9014  -46.6407 C.3       8 UNK        -0.1800 
     34 N           1.9036  -19.1189  -45.0355 N.am      8 UNK        -0.5000 
     35 C           2.9120  -19.6484  -44.3282 C.2       7 UNK         0.5000 
     36 O           3.1113  -20.8578  -44.2290 O.2       7 UNK        -0.5000 
     37 CA          3.8359  -18.6700  -43.5932 C.3       7 UNK         0.1400 
     38 CB          4.8664  -18.0788  -44.5677 C.3       7 UNK        -0.1800 
     39 N           3.0485  -17.5989  -42.9858 N.am      7 UNK        -0.5000 
     40 C           2.8260  -17.4733  -41.6725 C.2       6 UNK         0.5000 
     41 O           3.3827  -18.1551  -40.8108 O.2       6 UNK        -0.5000 
     42 CA          1.7805  -16.4266  -41.2415 C.3       6 UNK         0.1400 
     43 CB          2.4473  -15.0684  -40.9780 C.3       6 UNK        -0.1800 
     44 N           0.6744  -16.2398  -42.1844 N.am      6 UNK        -0.5000 
     45 C          -0.1770  -17.1848  -42.6045 C.2       5 UNK         0.5000 
     46 O          -0.0562  -18.3773  -42.3236 O.2       5 UNK        -0.5000 
     47 CA         -1.3719  -16.7122  -43.4626 C.3       5 UNK         0.1400 
     48 CB         -2.4135  -17.8257  -43.6866 C.3       5 UNK        -0.1800 
     49 N          -2.0607  -15.5598  -42.8742 N.am      5 UNK        -0.5000 
     50 C          -1.6516  -14.2878  -42.9356 C.2       4 UNK         0.5000 
     51 O          -0.6055  -13.9448  -43.4891 O.2       4 UNK        -0.5000 
     52 CA         -2.5723  -13.2537  -42.2586 C.3       4 UNK         0.1400 
     53 CB         -2.4811  -13.3261  -40.7202 C.3       4 UNK        -0.1800 
     54 N          -2.3542  -11.8968  -42.7740 N.am      4 UNK        -0.5000 
     55 C          -1.3549  -11.0381  -42.5153 C.2       3 UNK         0.5000 
     56 O          -0.5066  -11.1831  -41.6332 O.2       3 UNK        -0.5000 
     57 CA         -1.3008   -9.8229  -43.4666 C.3       3 UNK         0.1400 
     58 CB         -0.1625   -8.8302  -43.1457 C.3       3 UNK        -0.1800 
     59 N          -1.2562  -10.2691  -44.8670 N.am      3 UNK        -0.5000 
     60 C          -0.2897  -11.0038  -45.4379 C.2       2 UNK         0.5000 
     61 O           0.8061  -11.2433  -44.9216 O.2       2 UNK        -0.5000 
     62 CA         -0.6066  -11.5816  -46.8239 C.3       2 UNK         0.1400 
     63 CB         -0.3303  -10.5596  -47.9393 C.3       2 UNK        -0.1800 
     64 N           0.2359  -12.7550  -47.0100 N.am      2 UNK        -0.5000 
     65 C          -0.0645  -13.8584  -47.7037 C.2       1 UNK         0.5000 
     66 O          -1.1158  -13.9950  -48.3304 O.2       1 UNK        -0.5000 
     67 C           1.5675  -25.2267  -46.7053 C.2       11 UNK         0.5000 
     68 O           1.6296  -25.9629  -47.6901 O.2       11 UNK        -0.5000 
     69 N           0.4820  -25.1096  -45.9223 N.am      12 UNK        -0.5000 
     70 CA         -0.8532  -25.6785  -46.1383 C.3       12 UNK         0.1400 
     71 CB         -0.8181  -27.2208  -46.1514 C.3       12 UNK        -0.1800 
     72 C          -1.5640  -25.0735  -47.3693 C.2       12 UNK         0.5000 
     73 O          -2.4409  -25.7114  -47.9538 O.2       12 UNK        -0.5000 
     74 N          -1.1784  -23.8424  -47.7282 N.am      13 UNK        -0.5000 
     75 CA         -1.7657  -23.0499  -48.8031 C.3       13 UNK         0.1400 
     76 CB         -0.6668  -22.1818  -49.4359 C.3       13 UNK        -0.1800 
     77 C          -2.9174  -22.1744  -48.2828 C.2       13 UNK         0.5000 
     78 O          -3.8592  -21.9157  -49.0306 O.2       13 UNK        -0.5000 
     79 N          -2.8266  -21.7388  -47.0159 N.am      14 UNK        -0.5000 
     80 CA         -3.7835  -20.8920  -46.2966 C.3       14 UNK         0.1400 
     81 CB         -5.0774  -21.6784  -45.9928 C.3       14 UNK        -0.1800 
     82 C          -4.0211  -19.5529  -47.0256 C.2       14 UNK         0.5000 
     83 O          -3.1511  -18.6850  -46.9772 O.2       14 UNK        -0.5000 
     84 N          -5.1666  -19.4130  -47.7076 N.am      15 UNK        -0.5000 
     85 CA         -5.5056  -18.2470  -48.5298 C.3       15 UNK         0.1400 
     86 CB         -7.0348  -18.1237  -48.6257 C.3       15 UNK        -0.1800 
     87 C          -4.8431  -18.2683  -49.9271 C.2       15 UNK         0.5000 
     88 O          -5.0118  -17.3115  -50.6850 O.2       15 UNK        -0.5000 
     89 N          -4.1007  -19.3408  -50.2448 N.am      16 UNK        -0.5000 
     90 CA         -3.2532  -19.5309  -51.4219 C.3       16 UNK         0.1400 
     91 CB         -2.0452  -18.5714  -51.3733 C.3       16 UNK        -0.1800 
     92 C          -4.0631  -19.4707  -52.7255 C.2       16 UNK         0.5000 
     93 O          -4.8445  -20.3871  -52.9818 O.2       16 UNK        -0.5000 
     94 N          -3.8913  -18.4054  -53.5172 N.am      17 UNK        -0.5000 
     95 CA         -4.6088  -18.1758  -54.7726 C.3       17 UNK         0.1400 
     96 CB         -4.0445  -16.9219  -55.4556 C.3       17 UNK        -0.1800 
     97 C          -6.1355  -18.0633  -54.5972 C.2       17 UNK         0.5000 
     98 O          -6.8757  -18.5022  -55.4771 O.2       17 UNK        -0.5000 
     99 N          -6.5833  -17.5314  -53.4503 N.am      18 UNK        -0.5000 
    100 CA        -8.0007  -17.4327  -53.0931 C.3       18 UNK         0.1400 
    101 CB        -8.1795  -16.3466  -52.0236 C.3       18 UNK        -0.1800 
    102 C         -8.6013  -18.7762  -52.6306 C.2       18 UNK         0.5000 
    103 O         -9.8161  -18.9539  -52.7233 O.2       18 UNK        -0.5000 
    104 N         -7.7499  -19.7048  -52.1711 N.am      19 UNK        -0.5000 
    105 CA        -8.1203  -21.0851  -51.8432 C.3       19 UNK         0.1400 
    106 CB        -7.2125  -21.5929  -50.7071 C.3       19 UNK        -0.1800 
    107 C         -8.0176  -22.0252  -53.0618 C.2       19 UNK         0.5000 
    108 O         -8.4454  -23.1760  -52.9667 O.2       19 UNK        -0.5000 
    109 N         -7.4165  -21.5370  -54.1595 N.am      20 UNK        -0.5000 
    110 CA        -6.9764  -22.2797  -55.3471 C.3       20 UNK         0.1400 
    111 CB        -8.1758  -22.8695  -56.1173 C.3       20 UNK        -0.1800 
    112 C         -5.8881  -23.3274  -55.0168 C.2       20 UNK         0.5000 
    113 O         -5.7841  -24.3517  -55.6936 O.2       20 UNK        -0.5000 
    114 N         -5.0968  -23.0431  -53.9747 N.am      21 UNK        -0.5000 
    115 CA        -4.0308  -23.8920  -53.4453 C.3       21 UNK         0.1400 
    116 CB        -4.1269  -23.8756  -51.9123 C.3       21 UNK        -0.1800 
    117 C         -2.6355  -23.4256  -53.9017 C.2       21 UNK         0.5000 
    118 O         -1.6482  -24.0991  -53.6057 O.2       21 UNK        -0.5000 
    119 N         -2.5685  -22.2905  -54.6049 N.am      22 UNK        -0.5000 
    120 CA        -1.3536  -21.7162  -55.1879 C.3       22 UNK         0.1400 
    121 C         -1.6856  -20.8679  -56.4462 C.2       22 UNK         0.5000 
    122 N         -0.6795  -20.3418  -57.1298 N.am      22 UNK        -0.7600 
    123 O         -2.8446  -20.6788  -56.8111 O.2       22 UNK        -0.5000 
    124 C124       -0.5037  -20.9444  -54.1368 C.3       23 UNK        -0.0398 
    125 S125        1.2790  -21.3044  -54.3032 S.3       23 UNK        -0.2404 
    126 C126        1.6138  -22.2456  -52.7731 C.3       23 UNK        -0.0205 
    127 H127        4.2374  -14.0857  -45.5237 H         1 UNK         0.0600 
    128 H128        4.0568  -15.3221  -44.2829 H         1 UNK         0.0600 
    129 H129        3.1231  -13.8284  -44.1772 H         1 UNK         0.0600 
    130 H130        2.7130  -13.9212  -47.1862 H         1 UNK         0.3000 
    131 H131        0.4611  -15.8767  -47.3218 H         1 UNK         0.0600 
    132 H132        0.5665  -15.4812  -49.8053 H         1 UNK         0.0800 
    133 H133        1.9531  -14.4504  -49.5878 H         1 UNK         0.0800 
    134 H134        1.0877  -17.5704  -50.9855 H         1 UNK         0.0800 
    135 H135        0.5439  -18.1049  -49.4159 H         1 UNK         0.0800 
    136 H136        0.7880  -19.7389  -51.9556 H         1 UNK         0.1150 
    137 H137        3.5695  -22.8523  -50.9987 H         1 UNK         0.1150 
    138 H138        3.4488  -19.2957  -48.6251 H         1 UNK         0.1150 
    139 H139        5.1909  -22.5677  -49.3017 H         1 UNK         0.0800 
    140 H140        5.5678  -20.9305  -48.8322 H         1 UNK         0.0800 
    141 H141        1.9467  -22.6215  -47.4616 H         1 UNK         0.0800 
    142 H142        2.9860  -23.6430  -48.4136 H         1 UNK         0.0800 
    143 H143        3.6748  -24.9434  -46.4432 H         1 UNK         0.0600 
    144 H144        2.5605  -22.8068  -44.8897 H         1 UNK         0.3000 
    145 H145        2.1674  -24.6032  -41.8509 H         1 UNK         0.0600 
    146 H146        3.5779  -22.7312  -40.9762 H         1 UNK         0.0600 
    147 H147        4.2656  -22.4919  -42.5818 H         1 UNK         0.0600 
    148 H148        4.5479  -23.9941  -41.7183 H         1 UNK         0.0600 
    149 H149        1.8334  -21.8662  -42.8240 H         1 UNK         0.3000 
    150 H150       -1.6042  -22.2495  -43.6526 H         1 UNK         0.0600 
    151 H151       -1.7396  -22.0292  -41.1780 H         1 UNK         0.0600 
    152 H152       -1.9493  -20.4717  -41.9626 H         1 UNK         0.0600 
    153 H153       -0.4149  -20.8708  -41.1910 H         1 UNK         0.0600 
    154 H154        0.1560  -19.9774  -43.4365 H         1 UNK         0.3000 
    155 H155        1.6364  -20.3614  -46.6594 H         1 UNK         0.0600 
    156 H156       -0.5366  -19.4167  -47.3722 H         1 UNK         0.0600 
    157 H157        0.6725  -18.1559  -47.1724 H         1 UNK         0.0600 
    158 H158       -0.5719  -18.3714  -45.9553 H         1 UNK         0.0600 
    159 H159        1.8090  -18.1091  -45.0715 H         1 UNK         0.3000 
    160 H160        4.3781  -19.2343  -42.8317 H         1 UNK         0.0600 
    161 H161        4.3906  -17.5465  -45.3919 H         1 UNK         0.0600 
    162 H162        5.4824  -18.8667  -45.0032 H         1 UNK         0.0600 
    163 H163        5.5368  -17.3857  -44.0594 H         1 UNK         0.0600 
    164 H164        2.5207  -17.0060  -43.6189 H         1 UNK         0.3000 
    165 H165        1.3441  -16.7767  -40.3040 H         1 UNK         0.0600 
    166 H166        1.7316  -14.3470  -40.5827 H         1 UNK         0.0600 
    167 H167        3.2515  -15.1622  -40.2471 H         1 UNK         0.0600 
    168 H168        2.8773  -14.6492  -41.8874 H         1 UNK         0.0600 
    169 H169        0.5090  -15.2950  -42.5161 H         1 UNK         0.3000 
    170 H170       -0.9715  -16.4250  -44.4372 H         1 UNK         0.0600 
    171 H171       -1.9683  -18.7063  -44.1478 H         1 UNK         0.0600 
    172 H172       -2.8675  -18.1455  -42.7481 H         1 UNK         0.0600 
    173 H173       -3.2118  -17.4891  -44.3483 H         1 UNK         0.0600 
    174 H174       -2.9111  -15.7693  -42.3716 H         1 UNK         0.3000 
    175 H175       -3.5959  -13.5060  -42.5398 H         1 UNK         0.0600 
    176 H176       -1.4545  -13.2310  -40.3655 H         1 UNK         0.0600 
    177 H177       -3.0754  -12.5425  -40.2502 H         1 UNK         0.0600 
    178 H178       -2.8573  -14.2814  -40.3531 H         1 UNK         0.0600 
    179 H179       -2.9665  -11.6493  -43.5380 H         1 UNK         0.3000 
    180 H180       -2.2423   -9.2863  -43.3397 H         1 UNK         0.0600 
    181 H181       -0.1588   -7.9956  -43.8466 H         1 UNK         0.0600 
    182 H182        0.8197   -9.3017  -43.1806 H         1 UNK         0.0600 
    183 H183       -0.2849   -8.4141  -42.1452 H         1 UNK         0.0600 
    184 H184       -2.1002  -10.1027  -45.3976 H         1 UNK         0.3000 
    185 H185       -1.6577  -11.8774  -46.8449 H         1 UNK         0.0600 
    186 H186        0.7125  -10.2395  -47.9405 H         1 UNK         0.0600 
    187 H187       -0.5533  -10.9776  -48.9210 H         1 UNK         0.0600 
    188 H188       -0.9482   -9.6693  -47.8171 H         1 UNK         0.0600 
    189 H189        1.0657  -12.7476  -46.4300 H         1 UNK         0.3000 
    190 H190        0.5503  -24.4747  -45.1388 H         1 UNK         0.3000 
    191 H191       -1.4465  -25.3749  -45.2746 H         1 UNK         0.0600 
    192 H192       -1.8275  -27.6331  -46.1314 H         1 UNK         0.0600 
    193 H193       -0.2924  -27.6103  -45.2796 H         1 UNK         0.0600 
    194 H194       -0.3270  -27.6106  -47.0431 H         1 UNK         0.0600 
    195 H195       -0.5061  -23.3638  -47.1374 H         1 UNK         0.3000 
    196 H196       -2.1628  -23.7130  -49.5733 H         1 UNK         0.0600 
    197 H197       -0.2408  -21.4765  -48.7217 H         1 UNK         0.0600 
    198 H198       -1.0534  -21.6060  -50.2762 H         1 UNK         0.0600 
    199 H199        0.1473  -22.7990  -49.8160 H         1 UNK         0.0600 
    200 H200       -1.9769  -21.9633  -46.5102 H         1 UNK         0.3000 
    201 H201       -3.3190  -20.6417  -45.3415 H         1 UNK         0.0600 
    202 H202       -5.5724  -22.0338  -46.8971 H         1 UNK         0.0600 
    203 H203       -5.7904  -21.0638  -45.4417 H         1 UNK         0.0600 
    204 H204       -4.8622  -22.5505  -45.3753 H         1 UNK         0.0600 
    205 H205       -5.8127  -20.1887  -47.7282 H         1 UNK         0.3000 
    206 H206       -5.1388  -17.3538  -48.0196 H         1 UNK         0.0600 
    207 H207       -7.5095  -18.2725  -47.6556 H         1 UNK         0.0600 
    208 H208       -7.3162  -17.1269  -48.9629 H         1 UNK         0.0600 
    209 H209       -7.4645  -18.8386  -49.3252 H         1 UNK         0.0600 
    210 H210       -4.1017  -20.1257  -49.5987 H         1 UNK         0.3000 
    211 H211       -2.8677  -20.5488  -51.3635 H         1 UNK         0.0600 
    212 H212       -2.3450  -17.5234  -51.3458 H         1 UNK         0.0600 
    213 H213       -1.3913  -18.7068  -52.2341 H         1 UNK         0.0600 
    214 H214       -1.4491  -18.7637  -50.4822 H         1 UNK         0.0600 
    215 H215       -3.2591  -17.6779  -53.2171 H         1 UNK         0.3000 
    216 H216       -4.4213  -19.0318  -55.4228 H         1 UNK         0.0600 
    217 H217       -4.1720  -16.0335  -54.8357 H         1 UNK         0.0600 
    218 H218       -2.9814  -17.0351  -55.6692 H         1 UNK         0.0600 
    219 H219       -4.5470  -16.7353  -56.4057 H         1 UNK         0.0600 
    220 H220       -5.9142  -17.2269  -52.7524 H         1 UNK         0.3000 
    221 H221       -8.5603  -17.1195  -53.9773 H         1 UNK         0.0600 
    222 H222       -9.2222  -16.2650  -51.7141 H         1 UNK         0.0600 
    223 H223       -7.5867  -16.5577  -51.1362 H         1 UNK         0.0600 
    224 H224       -7.8753  -15.3705  -52.4017 H         1 UNK         0.0600 
    225 H225       -6.7608  -19.4956  -52.1624 H         1 UNK         0.3000 
    226 H226       -9.1534  -21.1187  -51.4912 H         1 UNK         0.0600 
    227 H227       -7.3739  -21.0355  -49.7868 H         1 UNK         0.0600 
    228 H228       -7.4162  -22.6397  -50.4782 H         1 UNK         0.0600 
    229 H229       -6.1556  -21.5196  -50.9633 H         1 UNK         0.0600 
    230 H230       -7.1080  -20.5757  -54.1220 H         1 UNK         0.3000 
    231 H231       -6.4980  -21.5462  -55.9978 H         1 UNK         0.0600 
    232 H232       -7.8594  -23.2764  -57.0783 H         1 UNK         0.0600 
    233 H233       -8.9267  -22.1061  -56.3209 H         1 UNK         0.0600 
    234 H234       -8.6577  -23.6769  -55.5657 H         1 UNK         0.0600 
    235 H235       -5.2181  -22.1463  -53.5099 H         1 UNK         0.3000 
    236 H236       -4.1638  -24.9203  -53.7870 H         1 UNK         0.0600 
    237 H237       -5.1117  -24.1981  -51.5735 H         1 UNK         0.0600 
    238 H238       -3.3942  -24.5489  -51.4666 H         1 UNK         0.0600 
    239 H239       -3.9480  -22.8771  -51.5133 H         1 UNK         0.0600 
    240 H240       -3.4255  -21.8179  -54.8591 H         1 UNK         0.3000 
    241 H241       -0.7784  -22.5626  -55.5691 H         1 UNK         0.0600 
    242 H242       -0.8781  -19.7908  -57.9504 H         1 UNK         0.3800 
    243 H243        0.2783  -20.4834  -56.8457 H         1 UNK         0.3800 
    244 H244       -0.8184  -21.1977  -53.1240 H         1 UNK         0.0800 
    245 H245       -0.6508  -19.8662  -54.2175 H         1 UNK         0.0800 
    246 H246        0.7236  -22.7920  -52.4585 H         1 UNK         0.0800 
    247 H247        2.3573  -23.0049  -53.0199 H         1 UNK         0.0800 
@<TRIPOS>BOND
     1    1    2 1    
     2    1  127 1    
     3    1  128 1    
     4    1  129 1    
     5    2    3 2    
     6    2    4 am   BACKBONE|DICT|INTERRES
     7    4    5 1    
     8    4  130 1    
     9    5    6 1    
    10    5   65 1    
    11    5  131 1    
    12    6    7 1    
    13    6  132 1    
    14    6  133 1    
    15    7    8 1    
    16    8    9 1    
    17    8  134 1    
    18    8  135 1    
    19    9   10 ar   
    20    9   14 ar   
    21   10   11 ar   
    22   10  136 1    
    23   11   12 ar   
    24   11  126 1    
    25   12   13 ar   
    26   12  137 1    
    27   13   14 ar   
    28   13   15 1    
    29   14  138 1    
    30   15   16 1    
    31   15  139 1    
    32   15  140 1    
    33   16   17 1    
    34   17   18 1    
    35   17  141 1    
    36   17  142 1    
    37   18   19 1    
    38   18   67 1    
    39   18  143 1    
    40   19   20 am   BACKBONE|DICT|INTERRES
    41   19  144 1    
    42   20   21 2    
    43   20   22 1    
    44   22   23 1    
    45   22   24 1    
    46   22  145 1    
    47   23  146 1    
    48   23  147 1    
    49   23  148 1    
    50   24   25 am   BACKBONE|DICT|INTERRES
    51   24  149 1    
    52   25   26 2    
    53   25   27 1    
    54   27   28 1    
    55   27   29 1    
    56   27  150 1    
    57   28  151 1    
    58   28  152 1    
    59   28  153 1    
    60   29   30 am   BACKBONE|DICT|INTERRES
    61   29  154 1    
    62   30   31 2    
    63   30   32 1    
    64   32   33 1    
    65   32   34 1    
    66   32  155 1    
    67   33  156 1    
    68   33  157 1    
    69   33  158 1    
    70   34   35 am   BACKBONE|DICT|INTERRES
    71   34  159 1    
    72   35   36 2    
    73   35   37 1    
    74   37   38 1    
    75   37   39 1    
    76   37  160 1    
    77   38  161 1    
    78   38  162 1    
    79   38  163 1    
    80   39   40 am   BACKBONE|DICT|INTERRES
    81   39  164 1    
    82   40   41 2    
    83   40   42 1    
    84   42   43 1    
    85   42   44 1    
    86   42  165 1    
    87   43  166 1    
    88   43  167 1    
    89   43  168 1    
    90   44   45 am   BACKBONE|DICT|INTERRES
    91   44  169 1    
    92   45   46 2    
    93   45   47 1    
    94   47   48 1    
    95   47   49 1    
    96   47  170 1    
    97   48  171 1    
    98   48  172 1    
    99   48  173 1    
   100   49   50 am   BACKBONE|DICT|INTERRES
   101   49  174 1    
   102   50   51 2    
   103   50   52 1    
   104   52   53 1    
   105   52   54 1    
   106   52  175 1    
   107   53  176 1    
   108   53  177 1    
   109   53  178 1    
   110   54   55 am   BACKBONE|DICT|INTERRES
   111   54  179 1    
   112   55   56 2    
   113   55   57 1    
   114   57   58 1    
   115   57   59 1    
   116   57  180 1    
   117   58  181 1    
   118   58  182 1    
   119   58  183 1    
   120   59   60 am   BACKBONE|DICT|INTERRES
   121   59  184 1    
   122   60   61 2    
   123   60   62 1    
   124   62   63 1    
   125   62   64 1    
   126   62  185 1    
   127   63  186 1    
   128   63  187 1    
   129   63  188 1    
   130   64   65 am   BACKBONE|DICT|INTERRES
   131   64  189 1    
   132   65   66 2    
   133   67   68 2    
   134   67   69 am   BACKBONE|DICT|INTERRES
   135   69   70 1    
   136   69  190 1    
   137   70   71 1    
   138   70   72 1    
   139   70  191 1    
   140   71  192 1    
   141   71  193 1    
   142   71  194 1    
   143   72   73 2    
   144   72   74 am   BACKBONE|DICT|INTERRES
   145   74   75 1    
   146   74  195 1    
   147   75   76 1    
   148   75   77 1    
   149   75  196 1    
   150   76  197 1    
   151   76  198 1    
   152   76  199 1    
   153   77   78 2    
   154   77   79 am   BACKBONE|DICT|INTERRES
   155   79   80 1    
   156   79  200 1    
   157   80   81 1    
   158   80   82 1    
   159   80  201 1    
   160   81  202 1    
   161   81  203 1    
   162   81  204 1    
   163   82   83 2    
   164   82   84 am   BACKBONE|DICT|INTERRES
   165   84   85 1    
   166   84  205 1    
   167   85   86 1    
   168   85   87 1    
   169   85  206 1    
   170   86  207 1    
   171   86  208 1    
   172   86  209 1    
   173   87   88 2    
   174   87   89 am   BACKBONE|DICT|INTERRES
   175   89   90 1    
   176   89  210 1    
   177   90   91 1    
   178   90   92 1    
   179   90  211 1    
   180   91  212 1    
   181   91  213 1    
   182   91  214 1    
   183   92   93 2    
   184   92   94 am   BACKBONE|DICT|INTERRES
   185   94   95 1    
   186   94  215 1    
   187   95   96 1    
   188   95   97 1    
   189   95  216 1    
   190   96  217 1    
   191   96  218 1    
   192   96  219 1    
   193   97   98 2    
   194   97   99 am   BACKBONE|DICT|INTERRES
   195   99  100 1    
   196   99  220 1    
   197  100  101 1    
   198  100  102 1    
   199  100  221 1    
   200  101  222 1    
   201  101  223 1    
   202  101  224 1    
   203  102  103 2    
   204  102  104 am   BACKBONE|DICT|INTERRES
   205  104  105 1    
   206  104  225 1    
   207  105  106 1    
   208  105  107 1    
   209  105  226 1    
   210  106  227 1    
   211  106  228 1    
   212  106  229 1    
   213  107  108 2    
   214  107  109 am   BACKBONE|DICT|INTERRES
   215  109  110 1    
   216  109  230 1    
   217  110  111 1    
   218  110  112 1    
   219  110  231 1    
   220  111  232 1    
   221  111  233 1    
   222  111  234 1    
   223  112  113 2    
   224  112  114 am   BACKBONE|DICT|INTERRES
   225  114  115 1    
   226  114  235 1    
   227  115  116 1    
   228  115  117 1    
   229  115  236 1    
   230  116  237 1    
   231  116  238 1    
   232  116  239 1    
   233  117  118 2    
   234  117  119 am   BACKBONE|DICT|INTERRES
   235  119  120 1    
   236  119  240 1    
   237  120  121 1    
   238  120  124 1    
   239  120  241 1    
   240  121  122 am   BACKBONE|DICT|INTERRES
   241  121  123 2    
   242  122  242 1    
   243  122  243 1    
   244  124  125 1    
   245  124  244 1    
   246  124  245 1    
   247  125  126 1    
   248  126  246 1    
   249  126  247 1    
@<TRIPOS>SUBSTRUCTURE
     1 UNK         1 GROUP             0       ****    0 ROOT    
