@<TRIPOS>MOLECULE
3R540
247   249    1
SMALL
USER_CHARGES


@<TRIPOS>ATOM
      1 CA          3.2375  -12.1949  -49.1467 C.3       0 UNK        -0.1800 
      2 C           2.4562  -13.3003  -48.4524 C.2       0 UNK         0.5000 
      3 O           2.2882  -13.2606  -47.2352 O.2       0 UNK        -0.5000 
      4 N           1.9569  -14.2762  -49.2219 N.am      1 UNK        -0.5000 
      5 CA          1.2373  -15.4676  -48.7396 C.3       1 UNK         0.1400 
      6 C6          1.0254  -16.5133  -49.8664 C.3       23 UNK        -0.0398 
      7 S7          2.5407  -16.8884  -50.8130 S.3       23 UNK        -0.2404 
      8 C8          2.0715  -18.4124  -51.7072 C.3       23 UNK        -0.0205 
      9 C9          2.4335  -19.7057  -50.9788 C.ar      23 UNK        -0.0193 
     10 C10         1.5543  -20.7934  -51.0098 C.ar      23 UNK        -0.1150 
     11 C11         1.8810  -21.9974  -50.3778 C.ar      23 UNK        -0.0193 
     12 C12         3.1097  -22.1179  -49.7237 C.ar      23 UNK        -0.1150 
     13 C13         3.9858  -21.0319  -49.6572 C.ar      23 UNK        -0.0193 
     14 C14         3.6539  -19.8403  -50.3078 C.ar      23 UNK        -0.1150 
     15 C15         5.2638  -21.1206  -48.8329 C.3       23 UNK        -0.0205 
     16 S16         4.9353  -21.2499  -47.0382 S.3       23 UNK        -0.2404 
     17 C17         3.6648  -19.9637  -46.7696 C.3       23 UNK        -0.0398 
     18 CA          2.2487  -20.5922  -46.6705 C.3       11 UNK         0.1400 
     19 N           2.0311  -21.2406  -45.3795 N.am      11 UNK        -0.5000 
     20 C           1.6578  -22.5109  -45.1894 C.2       10 UNK         0.5000 
     21 O           1.5109  -23.3216  -46.1043 O.2       10 UNK        -0.5000 
     22 CA          1.3439  -22.9335  -43.7392 C.3       10 UNK         0.1400 
     23 CB          1.5865  -24.4353  -43.4783 C.3       10 UNK        -0.1800 
     24 N           1.9953  -22.0952  -42.7270 N.am      10 UNK        -0.5000 
     25 C           3.3026  -22.0218  -42.4291 C.2       9 UNK         0.5000 
     26 O           4.1660  -22.7096  -42.9748 O.2       9 UNK        -0.5000 
     27 CA          3.7285  -21.0094  -41.3416 C.3       9 UNK         0.1400 
     28 CB          4.8706  -20.1042  -41.8354 C.3       9 UNK        -0.1800 
     29 N           2.6216  -20.1652  -40.8867 N.am      9 UNK        -0.5000 
     30 C           1.7544  -20.4797  -39.9153 C.2       8 UNK         0.5000 
     31 O           1.8384  -21.4995  -39.2307 O.2       8 UNK        -0.5000 
     32 CA          0.5719  -19.5143  -39.6934 C.3       8 UNK         0.1400 
     33 CB          0.8986  -18.5207  -38.5687 C.3       8 UNK        -0.1800 
     34 N           0.1819  -18.7739  -40.8980 N.am      8 UNK        -0.5000 
     35 C          -0.3156  -19.3273  -42.0140 C.2       7 UNK         0.5000 
     36 O          -0.5386  -20.5319  -42.1340 O.2       7 UNK        -0.5000 
     37 CA         -0.5273  -18.3970  -43.2242 C.3       7 UNK         0.1400 
     38 CB         -1.8638  -17.6491  -43.1258 C.3       7 UNK        -0.1800 
     39 N           0.5612  -17.4357  -43.4032 N.am      7 UNK        -0.5000 
     40 C           1.8391  -17.7704  -43.6308 C.2       6 UNK         0.5000 
     41 O           2.2336  -18.9326  -43.7182 O.2       6 UNK        -0.5000 
     42 CA          2.8567  -16.6213  -43.6976 C.3       6 UNK         0.1400 
     43 CB          2.7981  -15.8941  -45.0492 C.3       6 UNK        -0.1800 
     44 N           2.6463  -15.6718  -42.6064 N.am      6 UNK        -0.5000 
     45 C           2.9511  -15.9232  -41.3249 C.2       5 UNK         0.5000 
     46 O           3.4981  -16.9572  -40.9424 O.2       5 UNK        -0.5000 
     47 CA          2.5531  -14.8518  -40.2927 C.3       5 UNK         0.1400 
     48 CB          3.6618  -13.7980  -40.1536 C.3       5 UNK        -0.1800 
     49 N           1.2925  -14.1847  -40.6215 N.am      5 UNK        -0.5000 
     50 C           0.0930  -14.7834  -40.6186 C.2       4 UNK         0.5000 
     51 O          -0.0835  -15.9611  -40.3120 O.2       4 UNK        -0.5000 
     52 CA         -1.1019  -13.9356  -41.0910 C.3       4 UNK         0.1400 
     53 CB         -1.6821  -13.1208  -39.9257 C.3       4 UNK        -0.1800 
     54 N          -0.7663  -13.0353  -42.1979 N.am      4 UNK        -0.5000 
     55 C          -0.3448  -13.4423  -43.4022 C.2       3 UNK         0.5000 
     56 O          -0.1605  -14.6255  -43.6972 O.2       3 UNK        -0.5000 
     57 CA         -0.0184  -12.3380  -44.4221 C.3       3 UNK         0.1400 
     58 CB          1.4755  -11.9861  -44.3568 C.3       3 UNK        -0.1800 
     59 N          -0.3649  -12.7418  -45.7850 N.am      3 UNK        -0.5000 
     60 C          -1.6244  -12.8967  -46.2222 C.2       2 UNK         0.5000 
     61 O          -2.6129  -12.6460  -45.5305 O.2       2 UNK        -0.5000 
     62 CA         -1.8419  -13.3886  -47.6681 C.3       2 UNK         0.1400 
     63 CB         -2.3924  -12.2580  -48.5515 C.3       2 UNK        -0.1800 
     64 N          -0.6376  -13.9268  -48.2993 N.am      2 UNK        -0.5000 
     65 C          -0.1088  -15.1323  -48.0485 C.2       1 UNK         0.5000 
     66 O          -0.6422  -15.9534  -47.3053 O.2       1 UNK        -0.5000 
     67 C           1.1122  -19.5782  -46.8786 C.2       11 UNK         0.5000 
     68 O           1.3554  -18.3766  -46.9721 O.2       11 UNK        -0.5000 
     69 N          -0.1213  -20.0969  -46.8861 N.am      12 UNK        -0.5000 
     70 CA         -1.3609  -19.3489  -47.0727 C.3       12 UNK         0.1400 
     71 CB         -2.5051  -20.1939  -46.4935 C.3       12 UNK        -0.1800 
     72 C          -1.6122  -18.9905  -48.5520 C.2       12 UNK         0.5000 
     73 O          -0.9216  -19.4860  -49.4440 O.2       12 UNK        -0.5000 
     74 N          -2.6031  -18.1226  -48.7950 N.am      13 UNK        -0.5000 
     75 CA         -2.9501  -17.5600  -50.1033 C.3       13 UNK         0.1400 
     76 CB         -3.8138  -16.3051  -49.8910 C.3       13 UNK        -0.1800 
     77 C          -3.6126  -18.5690  -51.0665 C.2       13 UNK         0.5000 
     78 O          -4.7607  -18.3815  -51.4750 O.2       13 UNK        -0.5000 
     79 N          -2.8610  -19.6069  -51.4525 N.am      14 UNK        -0.5000 
     80 CA         -3.2519  -20.6450  -52.4104 C.3       14 UNK         0.1400 
     81 CB         -2.1125  -21.6635  -52.5462 C.3       14 UNK        -0.1800 
     82 C          -3.6600  -20.1037  -53.7929 C.2       14 UNK         0.5000 
     83 O          -4.5324  -20.6890  -54.4322 O.2       14 UNK        -0.5000 
     84 N          -3.0612  -18.9810  -54.2116 N.am      15 UNK        -0.5000 
     85 CA         -3.3981  -18.2739  -55.4483 C.3       15 UNK         0.1400 
     86 CB         -2.3447  -17.1862  -55.7071 C.3       15 UNK        -0.1800 
     87 C          -4.8139  -17.6626  -55.4332 C.2       15 UNK         0.5000 
     88 O          -5.4658  -17.6250  -56.4769 O.2       15 UNK        -0.5000 
     89 N          -5.2680  -17.2108  -54.2558 N.am      16 UNK        -0.5000 
     90 CA         -6.6068  -16.6591  -54.0444 C.3       16 UNK         0.1400 
     91 CB         -6.5665  -15.6590  -52.8783 C.3       16 UNK        -0.1800 
     92 C          -7.6345  -17.7693  -53.7685 C.2       16 UNK         0.5000 
     93 O          -8.7670  -17.6856  -54.2441 O.2       16 UNK        -0.5000 
     94 N          -7.2149  -18.7949  -53.0155 N.am      17 UNK        -0.5000 
     95 CA         -8.0347  -19.9404  -52.6161 C.3       17 UNK         0.1400 
     96 CB         -7.3794  -20.5979  -51.3933 C.3       17 UNK        -0.1800 
     97 C          -8.2539  -20.9840  -53.7306 C.2       17 UNK         0.5000 
     98 O          -9.0247  -21.9200  -53.5205 O.2       17 UNK        -0.5000 
     99 N          -7.5617  -20.8329  -54.8696 N.am      18 UNK        -0.5000 
    100 CA        -7.5414  -21.7403  -56.0229 C.3       18 UNK         0.1400 
    101 CB        -8.9232  -21.8085  -56.7066 C.3       18 UNK        -0.1800 
    102 C         -6.9721  -23.1232  -55.6451 C.2       18 UNK         0.5000 
    103 O         -7.6071  -24.1530  -55.8758 O.2       18 UNK        -0.5000 
    104 N         -5.7833  -23.0905  -55.0286 N.am      19 UNK        -0.5000 
    105 CA        -4.9587  -24.1966  -54.5304 C.3       19 UNK         0.1400 
    106 CB        -4.6647  -25.2332  -55.6328 C.3       19 UNK        -0.1800 
    107 C         -5.4736  -24.8663  -53.2416 C.2       19 UNK         0.5000 
    108 O         -4.7387  -25.6621  -52.6569 O.2       19 UNK        -0.5000 
    109 N         -6.6864  -24.5291  -52.7836 N.am      20 UNK        -0.5000 
    110 CA        -7.3407  -25.1614  -51.6338 C.3       20 UNK         0.1400 
    111 CB        -8.8072  -24.7080  -51.5804 C.3       20 UNK        -0.1800 
    112 C         -6.6507  -24.9092  -50.2775 C.2       20 UNK         0.5000 
    113 O         -6.8450  -25.6998  -49.3532 O.2       20 UNK        -0.5000 
    114 N         -5.8780  -23.8183  -50.1703 N.am      21 UNK        -0.5000 
    115 CA        -5.1988  -23.4186  -48.9371 C.3       21 UNK         0.1400 
    116 CB        -4.7930  -21.9397  -49.0228 C.3       21 UNK        -0.1800 
    117 C         -3.9798  -24.2989  -48.6027 C.2       21 UNK         0.5000 
    118 O         -3.8149  -24.6775  -47.4424 O.2       21 UNK        -0.5000 
    119 N         -3.1511  -24.6026  -49.6103 N.am      22 UNK        -0.5000 
    120 CA        -1.8875  -25.3462  -49.4567 C.3       22 UNK         0.1400 
    121 C         -1.3172  -25.9293  -50.7834 C.2       22 UNK         0.5000 
    122 N         -2.0649  -25.9970  -51.8772 N.am      22 UNK        -0.7600 
    123 O         -0.1677  -26.3588  -50.8282 O.2       22 UNK        -0.5000 
    124 C124       -0.8153  -24.5871  -48.6144 C.3       23 UNK        -0.0398 
    125 S125       -0.4415  -22.8879  -49.1720 S.3       23 UNK        -0.2404 
    126 C126        0.9008  -23.1604  -50.3739 C.3       23 UNK        -0.0205 
    127 H127        3.2945  -12.3533  -50.2239 H         1 UNK         0.0600 
    128 H128        2.7615  -11.2307  -48.9683 H         1 UNK         0.0600 
    129 H129        4.2535  -12.1525  -48.7545 H         1 UNK         0.0600 
    130 H130        2.1395  -14.2611  -50.2156 H         1 UNK         0.3000 
    131 H131        1.8702  -15.9272  -47.9786 H         1 UNK         0.0600 
    132 H132        0.2631  -16.1756  -50.5703 H         1 UNK         0.0800 
    133 H133        0.6648  -17.4460  -49.4359 H         1 UNK         0.0800 
    134 H134        2.5850  -18.4157  -52.6692 H         1 UNK         0.0800 
    135 H135        1.0038  -18.3819  -51.9304 H         1 UNK         0.0800 
    136 H136        0.6023  -20.6998  -51.5105 H         1 UNK         0.1150 
    137 H137        3.3600  -23.0366  -49.2114 H         1 UNK         0.1150 
    138 H138        4.3394  -19.0057  -50.2704 H         1 UNK         0.1150 
    139 H139        5.8407  -21.9893  -49.1528 H         1 UNK         0.0800 
    140 H140        5.8971  -20.2502  -49.0109 H         1 UNK         0.0800 
    141 H141        3.7263  -19.2335  -47.5772 H         1 UNK         0.0800 
    142 H142        3.9060  -19.4143  -45.8585 H         1 UNK         0.0800 
    143 H143        2.1307  -21.3189  -47.4710 H         1 UNK         0.0600 
    144 H144        2.0983  -20.6173  -44.5787 H         1 UNK         0.3000 
    145 H145        0.2746  -22.7588  -43.6136 H         1 UNK         0.0600 
    146 H146        1.3617  -24.6983  -42.4447 H         1 UNK         0.0600 
    147 H147        0.9474  -25.0490  -44.1140 H         1 UNK         0.0600 
    148 H148        2.6177  -24.7231  -43.6835 H         1 UNK         0.0600 
    149 H149        1.3676  -21.4672  -42.2389 H         1 UNK         0.3000 
    150 H150        4.1061  -21.5885  -40.4966 H         1 UNK         0.0600 
    151 H151        5.7534  -20.6906  -42.0921 H         1 UNK         0.0600 
    152 H152        5.1688  -19.3910  -41.0666 H         1 UNK         0.0600 
    153 H153        4.5861  -19.5386  -42.7224 H         1 UNK         0.0600 
    154 H154        2.4755  -19.3106  -41.4086 H         1 UNK         0.3000 
    155 H155       -0.2849  -20.1141  -39.3800 H         1 UNK         0.0600 
    156 H156        1.7218  -17.8606  -38.8439 H         1 UNK         0.0600 
    157 H157        1.1857  -19.0423  -37.6548 H         1 UNK         0.0600 
    158 H158        0.0357  -17.8992  -38.3290 H         1 UNK         0.0600 
    159 H159        0.2790  -17.7626  -40.8551 H         1 UNK         0.3000 
    160 H160       -0.5552  -19.0246  -44.1165 H         1 UNK         0.0600 
    161 H161       -2.0379  -17.0380  -44.0121 H         1 UNK         0.0600 
    162 H162       -1.8937  -16.9929  -42.2558 H         1 UNK         0.0600 
    163 H163       -2.6969  -18.3479  -43.0415 H         1 UNK         0.0600 
    164 H164        0.3115  -16.4501  -43.3831 H         1 UNK         0.3000 
    165 H165        3.8558  -17.0500  -43.5926 H         1 UNK         0.0600 
    166 H166        3.0589  -16.5729  -45.8614 H         1 UNK         0.0600 
    167 H167        1.8037  -15.5008  -45.2624 H         1 UNK         0.0600 
    168 H168        3.5018  -15.0626  -45.0855 H         1 UNK         0.0600 
    169 H169        2.1422  -14.8270  -42.8309 H         1 UNK         0.3000 
    170 H170        2.4314  -15.3496  -39.3283 H         1 UNK         0.0600 
    171 H171        4.6119  -14.2643  -39.8891 H         1 UNK         0.0600 
    172 H172        3.8139  -13.2469  -41.0826 H         1 UNK         0.0600 
    173 H173        3.4256  -13.0778  -39.3701 H         1 UNK         0.0600 
    174 H174        1.3449  -13.2128  -40.8881 H         1 UNK         0.3000 
    175 H175       -1.8740  -14.6223  -41.4437 H         1 UNK         0.0600 
    176 H176       -2.5821  -12.5852  -40.2284 H         1 UNK         0.0600 
    177 H177       -1.9573  -13.7712  -39.0942 H         1 UNK         0.0600 
    178 H178       -0.9664  -12.3897  -39.5478 H         1 UNK         0.0600 
    179 H179       -0.8845  -12.0472  -42.0258 H         1 UNK         0.3000 
    180 H180       -0.5951  -11.4441  -44.1751 H         1 UNK         0.0600 
    181 H181        2.1030  -12.8542  -44.5617 H         1 UNK         0.0600 
    182 H182        1.7478  -11.6112  -43.3695 H         1 UNK         0.0600 
    183 H183        1.7311  -11.2118  -45.0804 H         1 UNK         0.0600 
    184 H184        0.4082  -13.0012  -46.3879 H         1 UNK         0.3000 
    185 H185       -2.5936  -14.1775  -47.6177 H         1 UNK         0.0600 
    186 H186       -1.6807  -11.4365  -48.6429 H         1 UNK         0.0600 
    187 H187       -2.6227  -12.6180  -49.5545 H         1 UNK         0.0600 
    188 H188       -3.3144  -11.8489  -48.1362 H         1 UNK         0.0600 
    189 H189       -0.1319  -13.3062  -48.9143 H         1 UNK         0.3000 
    190 H190       -0.2088  -21.1028  -46.8724 H         1 UNK         0.3000 
    191 H191       -1.2963  -18.4171  -46.5078 H         1 UNK         0.0600 
    192 H192       -2.3852  -20.3290  -45.4183 H         1 UNK         0.0600 
    193 H193       -2.5318  -21.1844  -46.9481 H         1 UNK         0.0600 
    194 H194       -3.4760  -19.7233  -46.6516 H         1 UNK         0.0600 
    195 H195       -3.1334  -17.7695  -48.0123 H         1 UNK         0.3000 
    196 H196       -2.0248  -17.2358  -50.5828 H         1 UNK         0.0600 
    197 H197       -4.0570  -15.8299  -50.8421 H         1 UNK         0.0600 
    198 H198       -3.2868  -15.5647  -49.2926 H         1 UNK         0.0600 
    199 H199       -4.7531  -16.5404  -49.3890 H         1 UNK         0.0600 
    200 H200       -1.9591  -19.7152  -50.9933 H         1 UNK         0.3000 
    201 H201       -4.1199  -21.1616  -52.0015 H         1 UNK         0.0600 
    202 H202       -1.8870  -22.1276  -51.5876 H         1 UNK         0.0600 
    203 H203       -1.2008  -21.1974  -52.9199 H         1 UNK         0.0600 
    204 H204       -2.3734  -22.4640  -53.2374 H         1 UNK         0.0600 
    205 H205       -2.3476  -18.5701  -53.6286 H         1 UNK         0.3000 
    206 H206       -3.3570  -18.9922  -56.2700 H         1 UNK         0.0600 
    207 H207       -1.3472  -17.6165  -55.7979 H         1 UNK         0.0600 
    208 H208       -2.5533  -16.6540  -56.6362 H         1 UNK         0.0600 
    209 H209       -2.3211  -16.4482  -54.9043 H         1 UNK         0.0600 
    210 H210       -4.6977  -17.3362  -53.4305 H         1 UNK         0.3000 
    211 H211       -6.9222  -16.1191  -54.9399 H         1 UNK         0.0600 
    212 H212       -6.2935  -16.1415  -51.9393 H         1 UNK         0.0600 
    213 H213       -7.5414  -15.1919  -52.7336 H         1 UNK         0.0600 
    214 H214       -5.8483  -14.8610  -53.0671 H         1 UNK         0.0600 
    215 H215       -6.2836  -18.7462  -52.6127 H         1 UNK         0.3000 
    216 H216       -9.0186  -19.5726  -52.3180 H         1 UNK         0.0600 
    217 H217       -8.0014  -21.3987  -50.9928 H         1 UNK         0.0600 
    218 H218       -7.2275  -19.8750  -50.5915 H         1 UNK         0.0600 
    219 H219       -6.4113  -21.0271  -51.6473 H         1 UNK         0.0600 
    220 H220       -6.9105  -20.0611  -54.9108 H         1 UNK         0.3000 
    221 H221       -6.8434  -21.3069  -56.7408 H         1 UNK         0.0600 
    222 H222       -9.6739  -22.2771  -56.0699 H         1 UNK         0.0600 
    223 H223       -9.2811  -20.8130  -56.9696 H         1 UNK         0.0600 
    224 H224       -8.8713  -22.3892  -57.6282 H         1 UNK         0.0600 
    225 H225       -5.3791  -22.1677  -54.8651 H         1 UNK         0.3000 
    226 H226       -4.0058  -23.7414  -54.2629 H         1 UNK         0.0600 
    227 H227       -4.2724  -24.7551  -56.5304 H         1 UNK         0.0600 
    228 H228       -5.5547  -25.7973  -55.9119 H         1 UNK         0.0600 
    229 H229       -3.9184  -25.9548  -55.2983 H         1 UNK         0.0600 
    230 H230       -7.2416  -23.8778  -53.3215 H         1 UNK         0.3000 
    231 H231       -7.3292  -26.2402  -51.8033 H         1 UNK         0.0600 
    232 H232       -9.3230  -24.9226  -52.5167 H         1 UNK         0.0600 
    233 H233       -8.8905  -23.6381  -51.3898 H         1 UNK         0.0600 
    234 H234       -9.3476  -25.2244  -50.7861 H         1 UNK         0.0600 
    235 H235       -5.7741  -23.2232  -50.9765 H         1 UNK         0.3000 
    236 H236       -5.9134  -23.5146  -48.1165 H         1 UNK         0.0600 
    237 H237       -4.4627  -21.5852  -48.0490 H         1 UNK         0.0600 
    238 H238       -3.9761  -21.7769  -49.7253 H         1 UNK         0.0600 
    239 H239       -5.6302  -21.3085  -49.3148 H         1 UNK         0.0600 
    240 H240       -3.3540  -24.2672  -50.5390 H         1 UNK         0.3000 
    241 H241       -2.1400  -26.2437  -48.8894 H         1 UNK         0.0600 
    242 H242       -3.0598  -25.7927  -51.8953 H         1 UNK         0.3800 
    243 H243       -1.6464  -26.3897  -52.7047 H         1 UNK         0.3800 
    244 H244       -1.1636  -24.5041  -47.5848 H         1 UNK         0.0800 
    245 H245        0.1102  -25.1595  -48.5372 H         1 UNK         0.0800 
    246 H246        0.4728  -23.2905  -51.3687 H         1 UNK         0.0800 
    247 H247        1.4277  -24.0874  -50.1438 H         1 UNK         0.0800 
@<TRIPOS>BOND
     1    1    2 1    
     2    1  127 1    
     3    1  128 1    
     4    1  129 1    
     5    2    3 2    
     6    2    4 am   BACKBONE|DICT|INTERRES
     7    4    5 1    
     8    4  130 1    
     9    5    6 1    
    10    5   65 1    
    11    5  131 1    
    12    6    7 1    
    13    6  132 1    
    14    6  133 1    
    15    7    8 1    
    16    8    9 1    
    17    8  134 1    
    18    8  135 1    
    19    9   10 ar   
    20    9   14 ar   
    21   10   11 ar   
    22   10  136 1    
    23   11   12 ar   
    24   11  126 1    
    25   12   13 ar   
    26   12  137 1    
    27   13   14 ar   
    28   13   15 1    
    29   14  138 1    
    30   15   16 1    
    31   15  139 1    
    32   15  140 1    
    33   16   17 1    
    34   17   18 1    
    35   17  141 1    
    36   17  142 1    
    37   18   19 1    
    38   18   67 1    
    39   18  143 1    
    40   19   20 am   BACKBONE|DICT|INTERRES
    41   19  144 1    
    42   20   21 2    
    43   20   22 1    
    44   22   23 1    
    45   22   24 1    
    46   22  145 1    
    47   23  146 1    
    48   23  147 1    
    49   23  148 1    
    50   24   25 am   BACKBONE|DICT|INTERRES
    51   24  149 1    
    52   25   26 2    
    53   25   27 1    
    54   27   28 1    
    55   27   29 1    
    56   27  150 1    
    57   28  151 1    
    58   28  152 1    
    59   28  153 1    
    60   29   30 am   BACKBONE|DICT|INTERRES
    61   29  154 1    
    62   30   31 2    
    63   30   32 1    
    64   32   33 1    
    65   32   34 1    
    66   32  155 1    
    67   33  156 1    
    68   33  157 1    
    69   33  158 1    
    70   34   35 am   BACKBONE|DICT|INTERRES
    71   34  159 1    
    72   35   36 2    
    73   35   37 1    
    74   37   38 1    
    75   37   39 1    
    76   37  160 1    
    77   38  161 1    
    78   38  162 1    
    79   38  163 1    
    80   39   40 am   BACKBONE|DICT|INTERRES
    81   39  164 1    
    82   40   41 2    
    83   40   42 1    
    84   42   43 1    
    85   42   44 1    
    86   42  165 1    
    87   43  166 1    
    88   43  167 1    
    89   43  168 1    
    90   44   45 am   BACKBONE|DICT|INTERRES
    91   44  169 1    
    92   45   46 2    
    93   45   47 1    
    94   47   48 1    
    95   47   49 1    
    96   47  170 1    
    97   48  171 1    
    98   48  172 1    
    99   48  173 1    
   100   49   50 am   BACKBONE|DICT|INTERRES
   101   49  174 1    
   102   50   51 2    
   103   50   52 1    
   104   52   53 1    
   105   52   54 1    
   106   52  175 1    
   107   53  176 1    
   108   53  177 1    
   109   53  178 1    
   110   54   55 am   BACKBONE|DICT|INTERRES
   111   54  179 1    
   112   55   56 2    
   113   55   57 1    
   114   57   58 1    
   115   57   59 1    
   116   57  180 1    
   117   58  181 1    
   118   58  182 1    
   119   58  183 1    
   120   59   60 am   BACKBONE|DICT|INTERRES
   121   59  184 1    
   122   60   61 2    
   123   60   62 1    
   124   62   63 1    
   125   62   64 1    
   126   62  185 1    
   127   63  186 1    
   128   63  187 1    
   129   63  188 1    
   130   64   65 am   BACKBONE|DICT|INTERRES
   131   64  189 1    
   132   65   66 2    
   133   67   68 2    
   134   67   69 am   BACKBONE|DICT|INTERRES
   135   69   70 1    
   136   69  190 1    
   137   70   71 1    
   138   70   72 1    
   139   70  191 1    
   140   71  192 1    
   141   71  193 1    
   142   71  194 1    
   143   72   73 2    
   144   72   74 am   BACKBONE|DICT|INTERRES
   145   74   75 1    
   146   74  195 1    
   147   75   76 1    
   148   75   77 1    
   149   75  196 1    
   150   76  197 1    
   151   76  198 1    
   152   76  199 1    
   153   77   78 2    
   154   77   79 am   BACKBONE|DICT|INTERRES
   155   79   80 1    
   156   79  200 1    
   157   80   81 1    
   158   80   82 1    
   159   80  201 1    
   160   81  202 1    
   161   81  203 1    
   162   81  204 1    
   163   82   83 2    
   164   82   84 am   BACKBONE|DICT|INTERRES
   165   84   85 1    
   166   84  205 1    
   167   85   86 1    
   168   85   87 1    
   169   85  206 1    
   170   86  207 1    
   171   86  208 1    
   172   86  209 1    
   173   87   88 2    
   174   87   89 am   BACKBONE|DICT|INTERRES
   175   89   90 1    
   176   89  210 1    
   177   90   91 1    
   178   90   92 1    
   179   90  211 1    
   180   91  212 1    
   181   91  213 1    
   182   91  214 1    
   183   92   93 2    
   184   92   94 am   BACKBONE|DICT|INTERRES
   185   94   95 1    
   186   94  215 1    
   187   95   96 1    
   188   95   97 1    
   189   95  216 1    
   190   96  217 1    
   191   96  218 1    
   192   96  219 1    
   193   97   98 2    
   194   97   99 am   BACKBONE|DICT|INTERRES
   195   99  100 1    
   196   99  220 1    
   197  100  101 1    
   198  100  102 1    
   199  100  221 1    
   200  101  222 1    
   201  101  223 1    
   202  101  224 1    
   203  102  103 2    
   204  102  104 am   BACKBONE|DICT|INTERRES
   205  104  105 1    
   206  104  225 1    
   207  105  106 1    
   208  105  107 1    
   209  105  226 1    
   210  106  227 1    
   211  106  228 1    
   212  106  229 1    
   213  107  108 2    
   214  107  109 am   BACKBONE|DICT|INTERRES
   215  109  110 1    
   216  109  230 1    
   217  110  111 1    
   218  110  112 1    
   219  110  231 1    
   220  111  232 1    
   221  111  233 1    
   222  111  234 1    
   223  112  113 2    
   224  112  114 am   BACKBONE|DICT|INTERRES
   225  114  115 1    
   226  114  235 1    
   227  115  116 1    
   228  115  117 1    
   229  115  236 1    
   230  116  237 1    
   231  116  238 1    
   232  116  239 1    
   233  117  118 2    
   234  117  119 am   BACKBONE|DICT|INTERRES
   235  119  120 1    
   236  119  240 1    
   237  120  121 1    
   238  120  124 1    
   239  120  241 1    
   240  121  122 am   BACKBONE|DICT|INTERRES
   241  121  123 2    
   242  122  242 1    
   243  122  243 1    
   244  124  125 1    
   245  124  244 1    
   246  124  245 1    
   247  125  126 1    
   248  126  246 1    
   249  126  247 1    
@<TRIPOS>SUBSTRUCTURE
     1 UNK         1 GROUP             0       ****    0 ROOT    
