@<TRIPOS>MOLECULE
3R540
247   249    1
SMALL
USER_CHARGES


@<TRIPOS>ATOM
      1 CA          4.8298  -15.3890  -49.0125 C.3       0 UNK        -0.1800 
      2 C           3.8629  -15.0533  -47.8873 C.2       0 UNK         0.5000 
      3 O           3.9443  -15.6500  -46.8137 O.2       0 UNK        -0.5000 
      4 N           2.9653  -14.0860  -48.1233 N.am      1 UNK        -0.5000 
      5 CA          1.8838  -13.6660  -47.2189 C.3       1 UNK         0.1400 
      6 C6          1.0141  -12.5553  -47.8646 C.3       23 UNK        -0.0398 
      7 S7         -0.7129  -12.5610  -47.2679 S.3       23 UNK        -0.2404 
      8 C8         -1.6696  -12.7031  -48.8144 C.3       23 UNK        -0.0205 
      9 C9         -1.9627  -14.1473  -49.2024 C.ar      23 UNK        -0.0193 
     10 C10        -3.2830  -14.6070  -49.2537 C.ar      23 UNK        -0.1150 
     11 C11        -3.5681  -15.9140  -49.6618 C.ar      23 UNK        -0.0193 
     12 C12        -2.5181  -16.7796  -49.9779 C.ar      23 UNK        -0.1150 
     13 C13        -1.1935  -16.3386  -49.9161 C.ar      23 UNK        -0.0193 
     14 C14        -0.9253  -15.0163  -49.5515 C.ar      23 UNK        -0.1150 
     15 C15        -0.0547  -17.2956  -50.2402 C.3       23 UNK        -0.0205 
     16 S16         1.2063  -17.3958  -48.9226 S.3       23 UNK        -0.2404 
     17 C17         0.2190  -17.6189  -47.4016 C.3       23 UNK        -0.0398 
     18 CA         -0.0310  -19.1035  -47.0575 C.3       11 UNK         0.1400 
     19 N          -0.2295  -19.3017  -45.6223 N.am      11 UNK        -0.5000 
     20 C          -0.2885  -20.4992  -45.0257 C.2       10 UNK         0.5000 
     21 O          -0.1219  -21.5672  -45.6134 O.2       10 UNK        -0.5000 
     22 CA         -0.6347  -20.5048  -43.5297 C.3       10 UNK         0.1400 
     23 CB          0.6257  -20.3120  -42.6766 C.3       10 UNK        -0.1800 
     24 N          -1.6325  -19.4861  -43.1969 N.am      10 UNK        -0.5000 
     25 C          -2.9243  -19.5725  -43.5438 C.2       9 UNK         0.5000 
     26 O          -3.4080  -20.5366  -44.1377 O.2       9 UNK        -0.5000 
     27 CA         -3.8132  -18.3623  -43.2067 C.3       9 UNK         0.1400 
     28 CB         -4.2274  -18.3856  -41.7278 C.3       9 UNK        -0.1800 
     29 N          -3.1690  -17.0849  -43.5180 N.am      9 UNK        -0.5000 
     30 C          -2.8987  -16.6639  -44.7628 C.2       8 UNK         0.5000 
     31 O          -3.1613  -17.3129  -45.7714 O.2       8 UNK        -0.5000 
     32 CA         -2.1802  -15.3117  -44.9193 C.3       8 UNK         0.1400 
     33 CB         -3.2103  -14.1751  -44.9967 C.3       8 UNK        -0.1800 
     34 N          -1.2150  -15.0170  -43.8598 N.am      8 UNK        -0.5000 
     35 C          -0.1963  -15.8032  -43.4867 C.2       7 UNK         0.5000 
     36 O           0.0158  -16.9176  -43.9717 O.2       7 UNK        -0.5000 
     37 CA          0.7253  -15.2840  -42.3627 C.3       7 UNK         0.1400 
     38 CB          0.2785  -13.9446  -41.7332 C.3       7 UNK        -0.1800 
     39 N           0.9234  -16.2903  -41.3206 N.am      7 UNK        -0.5000 
     40 C          -0.0242  -16.9008  -40.5933 C.2       6 UNK         0.5000 
     41 O          -1.2297  -16.6743  -40.7122 O.2       6 UNK        -0.5000 
     42 CA          0.4619  -17.9599  -39.5873 C.3       6 UNK         0.1400 
     43 CB         -0.6083  -19.0294  -39.2980 C.3       6 UNK        -0.1800 
     44 N           1.6839  -18.6037  -40.0765 N.am      6 UNK        -0.5000 
     45 C           2.8631  -18.6074  -39.4468 C.2       5 UNK         0.5000 
     46 O           3.0490  -18.1210  -38.3307 O.2       5 UNK        -0.5000 
     47 CA          4.0456  -19.2551  -40.1944 C.3       5 UNK         0.1400 
     48 CB          4.1253  -20.7525  -39.8586 C.3       5 UNK        -0.1800 
     49 N           4.0536  -19.0973  -41.6562 N.am      5 UNK        -0.5000 
     50 C           4.0386  -17.9360  -42.3269 C.2       4 UNK         0.5000 
     51 O           3.7849  -16.8462  -41.8083 O.2       4 UNK        -0.5000 
     52 CA          4.3674  -18.0191  -43.8336 C.3       4 UNK         0.1400 
     53 CB          3.1117  -18.2669  -44.6783 C.3       4 UNK        -0.1800 
     54 N           5.0247  -16.8130  -44.3343 N.am      4 UNK        -0.5000 
     55 C           6.2419  -16.3899  -43.9679 C.2       3 UNK         0.5000 
     56 O           6.9637  -16.9869  -43.1674 O.2       3 UNK        -0.5000 
     57 CA          6.7528  -15.0952  -44.6204 C.3       3 UNK         0.1400 
     58 CB          7.4733  -15.4140  -45.9399 C.3       3 UNK        -0.1800 
     59 N           5.6745  -14.1407  -44.8837 N.am      3 UNK        -0.5000 
     60 C           5.2936  -13.1742  -44.0371 C.2       2 UNK         0.5000 
     61 O           5.7874  -13.0199  -42.9193 O.2       2 UNK        -0.5000 
     62 CA          4.2112  -12.1855  -44.5165 C.3       2 UNK         0.1400 
     63 CB          4.8247  -10.7946  -44.7472 C.3       2 UNK        -0.1800 
     64 N           3.5612  -12.6123  -45.7577 N.am      2 UNK        -0.5000 
     65 C           2.3761  -13.2337  -45.8186 C.2       1 UNK         0.5000 
     66 O           1.6883  -13.4832  -44.8314 O.2       1 UNK        -0.5000 
     67 C          -1.1940  -19.7064  -47.8745 C.2       11 UNK         0.5000 
     68 O          -0.9422  -20.4385  -48.8300 O.2       11 UNK        -0.5000 
     69 N          -2.4411  -19.4509  -47.4503 N.am      12 UNK        -0.5000 
     70 CA         -3.6543  -20.0356  -48.0227 C.3       12 UNK         0.1400 
     71 CB         -4.8964  -19.4174  -47.3637 C.3       12 UNK        -0.1800 
     72 C          -3.6909  -21.5678  -47.9054 C.2       12 UNK         0.5000 
     73 O          -4.0690  -22.2292  -48.8687 O.2       12 UNK        -0.5000 
     74 N          -3.2656  -22.1063  -46.7534 N.am      13 UNK        -0.5000 
     75 CA         -3.1481  -23.5463  -46.5159 C.3       13 UNK         0.1400 
     76 CB         -2.8600  -23.8061  -45.0299 C.3       13 UNK        -0.1800 
     77 C          -2.0872  -24.2194  -47.4085 C.2       13 UNK         0.5000 
     78 O          -2.3176  -25.3300  -47.8850 O.2       13 UNK        -0.5000 
     79 N          -0.9602  -23.5335  -47.6433 N.am      14 UNK        -0.5000 
     80 CA          0.1009  -23.9744  -48.5505 C.3       14 UNK         0.1400 
     81 CB          1.3660  -23.1393  -48.2991 C.3       14 UNK        -0.1800 
     82 C          -0.3192  -23.9022  -50.0317 C.2       14 UNK         0.5000 
     83 O           0.0108  -24.8023  -50.8039 O.2       14 UNK        -0.5000 
     84 N          -1.0460  -22.8383  -50.3960 N.am      15 UNK        -0.5000 
     85 CA         -1.5574  -22.5804  -51.7428 C.3       15 UNK         0.1400 
     86 CB         -1.8121  -21.0711  -51.8861 C.3       15 UNK        -0.1800 
     87 C          -2.8192  -23.3906  -52.1039 C.2       15 UNK         0.5000 
     88 O          -3.2397  -23.3567  -53.2634 O.2       15 UNK        -0.5000 
     89 N          -3.4255  -24.0830  -51.1300 N.am      16 UNK        -0.5000 
     90 CA         -4.5963  -24.9435  -51.3065 C.3       16 UNK         0.1400 
     91 CB         -5.0364  -25.5031  -49.9469 C.3       16 UNK        -0.1800 
     92 C          -4.3160  -26.0839  -52.3005 C.2       16 UNK         0.5000 
     93 O          -3.2450  -26.6922  -52.2454 O.2       16 UNK        -0.5000 
     94 N          -5.2653  -26.3146  -53.2177 N.am      17 UNK        -0.5000 
     95 CA         -5.2332  -27.2397  -54.3623 C.3       17 UNK         0.1400 
     96 CB         -5.0655  -28.7015  -53.9055 C.3       17 UNK        -0.1800 
     97 C          -4.2063  -26.8770  -55.4583 C.2       17 UNK         0.5000 
     98 O          -4.5237  -27.0075  -56.6403 O.2       17 UNK        -0.5000 
     99 N          -3.0153  -26.4115  -55.0613 N.am      18 UNK        -0.5000 
    100 CA        -1.9240  -25.9814  -55.9358 C.3       18 UNK         0.1400 
    101 CB        -0.6625  -25.7507  -55.0886 C.3       18 UNK        -0.1800 
    102 C         -2.2733  -24.7212  -56.7473 C.2       18 UNK         0.5000 
    103 O         -2.0365  -24.6893  -57.9555 O.2       18 UNK        -0.5000 
    104 N         -2.8462  -23.7212  -56.0676 N.am      19 UNK        -0.5000 
    105 CA        -3.3105  -22.4577  -56.6438 C.3       19 UNK         0.1400 
    106 CB        -2.3384  -21.3395  -56.2302 C.3       19 UNK        -0.1800 
    107 C         -4.7584  -22.1408  -56.2182 C.2       19 UNK         0.5000 
    108 O         -5.2321  -21.0323  -56.4685 O.2       19 UNK        -0.5000 
    109 N         -5.4305  -23.1150  -55.5829 N.am      20 UNK        -0.5000 
    110 CA        -6.7859  -23.0498  -55.0225 C.3       20 UNK         0.1400 
    111 CB        -7.8381  -22.8561  -56.1343 C.3       20 UNK        -0.1800 
    112 C         -6.9229  -22.0266  -53.8735 C.2       20 UNK         0.5000 
    113 O         -7.9893  -21.4301  -53.7020 O.2       20 UNK        -0.5000 
    114 N         -5.8414  -21.8583  -53.0952 N.am      21 UNK        -0.5000 
    115 CA        -5.7056  -20.9314  -51.9678 C.3       21 UNK         0.1400 
    116 CB        -6.5855  -21.3922  -50.7824 C.3       21 UNK        -0.1800 
    117 C         -5.9518  -19.4762  -52.4187 C.2       21 UNK         0.5000 
    118 O         -5.1906  -18.9656  -53.2410 O.2       21 UNK        -0.5000 
    119 N         -7.0235  -18.8663  -51.9061 N.am      22 UNK        -0.5000 
    120 CA        -7.6063  -17.6013  -52.3741 C.3       22 UNK         0.1400 
    121 C         -9.0977  -17.7896  -52.7897 C.2       22 UNK         0.5000 
    122 N         -9.5473  -18.9949  -53.1255 N.am      22 UNK        -0.7600 
    123 O         -9.8664  -16.8325  -52.8270 O.2       22 UNK        -0.5000 
    124 C124       -7.3948  -16.4571  -51.3435 C.3       23 UNK        -0.0398 
    125 S125       -5.6922  -15.8059  -51.3892 S.3       23 UNK        -0.2404 
    126 C126       -5.0106  -16.3740  -49.8031 C.3       23 UNK        -0.0205 
    127 H127        5.8372  -15.0634  -48.7542 H         1 UNK         0.0600 
    128 H128        4.5439  -14.9080  -49.9482 H         1 UNK         0.0600 
    129 H129        4.8485  -16.4663  -49.1784 H         1 UNK         0.0600 
    130 H130        2.9811  -13.6283  -49.0233 H         1 UNK         0.3000 
    131 H131        1.2614  -14.5524  -47.0760 H         1 UNK         0.0600 
    132 H132        1.0034  -12.6698  -48.9482 H         1 UNK         0.0800 
    133 H133        1.4407  -11.5650  -47.6933 H         1 UNK         0.0800 
    134 H134       -2.6044  -12.1580  -48.6760 H         1 UNK         0.0800 
    135 H135       -1.1534  -12.1993  -49.6325 H         1 UNK         0.0800 
    136 H136       -4.0966  -13.9381  -49.0102 H         1 UNK         0.1150 
    137 H137       -2.7339  -17.7929  -50.2858 H         1 UNK         0.1150 
    138 H138        0.0984  -14.6760  -49.5251 H         1 UNK         0.1150 
    139 H139       -0.4359  -18.2980  -50.4382 H         1 UNK         0.0800 
    140 H140        0.4277  -16.9680  -51.1617 H         1 UNK         0.0800 
    141 H141       -0.7105  -17.0503  -47.4330 H         1 UNK         0.0800 
    142 H142        0.8062  -17.1561  -46.6071 H         1 UNK         0.0800 
    143 H143        0.8699  -19.6646  -47.3163 H         1 UNK         0.0600 
    144 H144       -0.3305  -18.4664  -45.0518 H         1 UNK         0.3000 
    145 H145       -1.0490  -21.4876  -43.2949 H         1 UNK         0.0600 
    146 H146        0.4373  -20.5892  -41.6410 H         1 UNK         0.0600 
    147 H147        1.4405  -20.9475  -43.0268 H         1 UNK         0.0600 
    148 H148        0.9714  -19.2791  -42.7065 H         1 UNK         0.0600 
    149 H149       -1.3009  -18.6265  -42.7821 H         1 UNK         0.3000 
    150 H150       -4.7191  -18.4384  -43.8121 H         1 UNK         0.0600 
    151 H151       -4.7449  -19.3142  -41.4833 H         1 UNK         0.0600 
    152 H152       -4.9060  -17.5648  -41.4952 H         1 UNK         0.0600 
    153 H153       -3.3661  -18.3069  -41.0639 H         1 UNK         0.0600 
    154 H154       -2.8734  -16.5169  -42.7356 H         1 UNK         0.3000 
    155 H155       -1.6280  -15.3372  -45.8608 H         1 UNK         0.0600 
    156 H156       -3.8077  -14.1103  -44.0865 H         1 UNK         0.0600 
    157 H157       -2.7285  -13.2097  -45.1486 H         1 UNK         0.0600 
    158 H158       -3.8955  -14.3289  -45.8316 H         1 UNK         0.0600 
    159 H159       -1.3124  -14.1227  -43.4027 H         1 UNK         0.3000 
    160 H160        1.7046  -15.1318  -42.8173 H         1 UNK         0.0600 
    161 H161       -0.7075  -14.0148  -41.2724 H         1 UNK         0.0600 
    162 H162        0.2467  -13.1476  -42.4771 H         1 UNK         0.0600 
    163 H163        0.9802  -13.6271  -40.9619 H         1 UNK         0.0600 
    164 H164        1.8899  -16.5714  -41.1885 H         1 UNK         0.3000 
    165 H165        0.6602  -17.4258  -38.6562 H         1 UNK         0.0600 
    166 H166       -0.2188  -19.8142  -38.6495 H         1 UNK         0.0600 
    167 H167       -1.4681  -18.5892  -38.7915 H         1 UNK         0.0600 
    168 H168       -0.9780  -19.4968  -40.2101 H         1 UNK         0.0600 
    169 H169        1.6378  -19.0134  -40.9978 H         1 UNK         0.3000 
    170 H170        4.9541  -18.7782  -39.8210 H         1 UNK         0.0600 
    171 H171        4.1463  -20.9123  -38.7796 H         1 UNK         0.0600 
    172 H172        3.2682  -21.2988  -40.2545 H         1 UNK         0.0600 
    173 H173        5.0299  -21.2025  -40.2680 H         1 UNK         0.0600 
    174 H174        4.2461  -19.9407  -42.1770 H         1 UNK         0.3000 
    175 H175        5.0534  -18.8544  -43.9884 H         1 UNK         0.0600 
    176 H176        2.4032  -17.4470  -44.5780 H         1 UNK         0.0600 
    177 H177        3.3589  -18.3580  -45.7364 H         1 UNK         0.0600 
    178 H178        2.6124  -19.1892  -44.3878 H         1 UNK         0.0600 
    179 H179        4.5185  -16.2834  -45.0368 H         1 UNK         0.3000 
    180 H180        7.4828  -14.6454  -43.9439 H         1 UNK         0.0600 
    181 H181        6.8135  -15.9145  -46.6490 H         1 UNK         0.0600 
    182 H182        8.3258  -16.0722  -45.7677 H         1 UNK         0.0600 
    183 H183        7.8524  -14.5082  -46.4132 H         1 UNK         0.0600 
    184 H184        5.1553  -14.2708  -45.7417 H         1 UNK         0.3000 
    185 H185        3.4752  -12.0981  -43.7144 H         1 UNK         0.0600 
    186 H186        5.2934  -10.4163  -43.8378 H         1 UNK         0.0600 
    187 H187        5.5879  -10.8146  -45.5262 H         1 UNK         0.0600 
    188 H188        4.0629  -10.0725  -45.0418 H         1 UNK         0.0600 
    189 H189        4.0635  -12.4414  -46.6170 H         1 UNK         0.3000 
    190 H190       -2.5848  -18.7923  -46.6877 H         1 UNK         0.3000 
    191 H191       -3.6740  -19.7847  -49.0847 H         1 UNK         0.0600 
    192 H192       -4.9139  -19.6011  -46.2891 H         1 UNK         0.0600 
    193 H193       -5.8136  -19.8330  -47.7813 H         1 UNK         0.0600 
    194 H194       -4.9301  -18.3392  -47.5151 H         1 UNK         0.0600 
    195 H195       -3.0188  -21.4928  -45.9851 H         1 UNK         0.3000 
    196 H196       -4.1125  -23.9994  -46.7549 H         1 UNK         0.0600 
    197 H197       -2.8174  -24.8760  -44.8230 H         1 UNK         0.0600 
    198 H198       -3.6402  -23.3830  -44.3969 H         1 UNK         0.0600 
    199 H199       -1.9081  -23.3752  -44.7212 H         1 UNK         0.0600 
    200 H200       -0.8146  -22.6518  -47.1616 H         1 UNK         0.3000 
    201 H201        0.3340  -25.0163  -48.3209 H         1 UNK         0.0600 
    202 H202        1.7027  -23.2362  -47.2668 H         1 UNK         0.0600 
    203 H203        1.1975  -22.0802  -48.4960 H         1 UNK         0.0600 
    204 H204        2.1841  -23.4669  -48.9416 H         1 UNK         0.0600 
    205 H205       -1.2095  -22.1076  -49.7078 H         1 UNK         0.3000 
    206 H206       -0.7901  -22.8604  -52.4672 H         1 UNK         0.0600 
    207 H207       -0.8781  -20.5123  -51.8262 H         1 UNK         0.0600 
    208 H208       -2.2749  -20.8266  -52.8420 H         1 UNK         0.0600 
    209 H209       -2.4665  -20.6988  -51.0986 H         1 UNK         0.0600 
    210 H210       -3.0454  -24.0234  -50.1958 H         1 UNK         0.3000 
    211 H211       -5.4032  -24.3224  -51.6977 H         1 UNK         0.0600 
    212 H212       -4.2754  -26.1552  -49.5173 H         1 UNK         0.0600 
    213 H213       -5.9515  -26.0883  -50.0438 H         1 UNK         0.0600 
    214 H214       -5.2359  -24.7031  -49.2338 H         1 UNK         0.0600 
    215 H215       -6.1116  -25.7678  -53.1534 H         1 UNK         0.3000 
    216 H216       -6.2174  -27.1592  -54.8268 H         1 UNK         0.0600 
    217 H217       -5.1694  -29.3849  -54.7491 H         1 UNK         0.0600 
    218 H218       -5.8233  -28.9745  -53.1711 H         1 UNK         0.0600 
    219 H219       -4.0865  -28.8834  -53.4616 H         1 UNK         0.0600 
    220 H220       -2.8446  -26.3777  -54.0598 H         1 UNK         0.3000 
    221 H221       -1.7195  -26.7889  -56.6420 H         1 UNK         0.0600 
    222 H222       -0.8203  -24.9845  -54.3282 H         1 UNK         0.0600 
    223 H223       -0.3576  -26.6655  -54.5803 H         1 UNK         0.0600 
    224 H224        0.1740  -25.4302  -55.7110 H         1 UNK         0.0600 
    225 H225       -2.9576  -23.8054  -55.0594 H         1 UNK         0.3000 
    226 H226       -3.3211  -22.5189  -57.7336 H         1 UNK         0.0600 
    227 H227       -1.3230  -21.5587  -56.5605 H         1 UNK         0.0600 
    228 H228       -2.6231  -20.3836  -56.6713 H         1 UNK         0.0600 
    229 H229       -2.3181  -21.2106  -55.1485 H         1 UNK         0.0600 
    230 H230       -4.9409  -23.9868  -55.4487 H         1 UNK         0.3000 
    231 H231       -6.9715  -24.0252  -54.5720 H         1 UNK         0.0600 
    232 H232       -8.8486  -22.9674  -55.7395 H         1 UNK         0.0600 
    233 H233       -7.7172  -23.5962  -56.9252 H         1 UNK         0.0600 
    234 H234       -7.7739  -21.8664  -56.5870 H         1 UNK         0.0600 
    235 H235       -4.9960  -22.3592  -53.3469 H         1 UNK         0.3000 
    236 H236       -4.6693  -20.9813  -51.6401 H         1 UNK         0.0600 
    237 H237       -7.6477  -21.4080  -51.0275 H         1 UNK         0.0600 
    238 H238       -6.3104  -22.3973  -50.4643 H         1 UNK         0.0600 
    239 H239       -6.4507  -20.7418  -49.9183 H         1 UNK         0.0600 
    240 H240       -7.6015  -19.3865  -51.2617 H         1 UNK         0.3000 
    241 H241       -7.1212  -17.3030  -53.3053 H         1 UNK         0.0600 
    242 H242      -10.5126  -19.0977  -53.3953 H         1 UNK         0.3800 
    243 H243       -8.9259  -19.7963  -53.1984 H         1 UNK         0.3800 
    244 H244       -8.0438  -15.6068  -51.5576 H         1 UNK         0.0800 
    245 H245       -7.6545  -16.7862  -50.3364 H         1 UNK         0.0800 
    246 H246       -5.6094  -15.9843  -48.9785 H         1 UNK         0.0800 
    247 H247       -5.0738  -17.4618  -49.7564 H         1 UNK         0.0800 
@<TRIPOS>BOND
     1    1    2 1    
     2    1  127 1    
     3    1  128 1    
     4    1  129 1    
     5    2    3 2    
     6    2    4 am   BACKBONE|DICT|INTERRES
     7    4    5 1    
     8    4  130 1    
     9    5    6 1    
    10    5   65 1    
    11    5  131 1    
    12    6    7 1    
    13    6  132 1    
    14    6  133 1    
    15    7    8 1    
    16    8    9 1    
    17    8  134 1    
    18    8  135 1    
    19    9   10 ar   
    20    9   14 ar   
    21   10   11 ar   
    22   10  136 1    
    23   11   12 ar   
    24   11  126 1    
    25   12   13 ar   
    26   12  137 1    
    27   13   14 ar   
    28   13   15 1    
    29   14  138 1    
    30   15   16 1    
    31   15  139 1    
    32   15  140 1    
    33   16   17 1    
    34   17   18 1    
    35   17  141 1    
    36   17  142 1    
    37   18   19 1    
    38   18   67 1    
    39   18  143 1    
    40   19   20 am   BACKBONE|DICT|INTERRES
    41   19  144 1    
    42   20   21 2    
    43   20   22 1    
    44   22   23 1    
    45   22   24 1    
    46   22  145 1    
    47   23  146 1    
    48   23  147 1    
    49   23  148 1    
    50   24   25 am   BACKBONE|DICT|INTERRES
    51   24  149 1    
    52   25   26 2    
    53   25   27 1    
    54   27   28 1    
    55   27   29 1    
    56   27  150 1    
    57   28  151 1    
    58   28  152 1    
    59   28  153 1    
    60   29   30 am   BACKBONE|DICT|INTERRES
    61   29  154 1    
    62   30   31 2    
    63   30   32 1    
    64   32   33 1    
    65   32   34 1    
    66   32  155 1    
    67   33  156 1    
    68   33  157 1    
    69   33  158 1    
    70   34   35 am   BACKBONE|DICT|INTERRES
    71   34  159 1    
    72   35   36 2    
    73   35   37 1    
    74   37   38 1    
    75   37   39 1    
    76   37  160 1    
    77   38  161 1    
    78   38  162 1    
    79   38  163 1    
    80   39   40 am   BACKBONE|DICT|INTERRES
    81   39  164 1    
    82   40   41 2    
    83   40   42 1    
    84   42   43 1    
    85   42   44 1    
    86   42  165 1    
    87   43  166 1    
    88   43  167 1    
    89   43  168 1    
    90   44   45 am   BACKBONE|DICT|INTERRES
    91   44  169 1    
    92   45   46 2    
    93   45   47 1    
    94   47   48 1    
    95   47   49 1    
    96   47  170 1    
    97   48  171 1    
    98   48  172 1    
    99   48  173 1    
   100   49   50 am   BACKBONE|DICT|INTERRES
   101   49  174 1    
   102   50   51 2    
   103   50   52 1    
   104   52   53 1    
   105   52   54 1    
   106   52  175 1    
   107   53  176 1    
   108   53  177 1    
   109   53  178 1    
   110   54   55 am   BACKBONE|DICT|INTERRES
   111   54  179 1    
   112   55   56 2    
   113   55   57 1    
   114   57   58 1    
   115   57   59 1    
   116   57  180 1    
   117   58  181 1    
   118   58  182 1    
   119   58  183 1    
   120   59   60 am   BACKBONE|DICT|INTERRES
   121   59  184 1    
   122   60   61 2    
   123   60   62 1    
   124   62   63 1    
   125   62   64 1    
   126   62  185 1    
   127   63  186 1    
   128   63  187 1    
   129   63  188 1    
   130   64   65 am   BACKBONE|DICT|INTERRES
   131   64  189 1    
   132   65   66 2    
   133   67   68 2    
   134   67   69 am   BACKBONE|DICT|INTERRES
   135   69   70 1    
   136   69  190 1    
   137   70   71 1    
   138   70   72 1    
   139   70  191 1    
   140   71  192 1    
   141   71  193 1    
   142   71  194 1    
   143   72   73 2    
   144   72   74 am   BACKBONE|DICT|INTERRES
   145   74   75 1    
   146   74  195 1    
   147   75   76 1    
   148   75   77 1    
   149   75  196 1    
   150   76  197 1    
   151   76  198 1    
   152   76  199 1    
   153   77   78 2    
   154   77   79 am   BACKBONE|DICT|INTERRES
   155   79   80 1    
   156   79  200 1    
   157   80   81 1    
   158   80   82 1    
   159   80  201 1    
   160   81  202 1    
   161   81  203 1    
   162   81  204 1    
   163   82   83 2    
   164   82   84 am   BACKBONE|DICT|INTERRES
   165   84   85 1    
   166   84  205 1    
   167   85   86 1    
   168   85   87 1    
   169   85  206 1    
   170   86  207 1    
   171   86  208 1    
   172   86  209 1    
   173   87   88 2    
   174   87   89 am   BACKBONE|DICT|INTERRES
   175   89   90 1    
   176   89  210 1    
   177   90   91 1    
   178   90   92 1    
   179   90  211 1    
   180   91  212 1    
   181   91  213 1    
   182   91  214 1    
   183   92   93 2    
   184   92   94 am   BACKBONE|DICT|INTERRES
   185   94   95 1    
   186   94  215 1    
   187   95   96 1    
   188   95   97 1    
   189   95  216 1    
   190   96  217 1    
   191   96  218 1    
   192   96  219 1    
   193   97   98 2    
   194   97   99 am   BACKBONE|DICT|INTERRES
   195   99  100 1    
   196   99  220 1    
   197  100  101 1    
   198  100  102 1    
   199  100  221 1    
   200  101  222 1    
   201  101  223 1    
   202  101  224 1    
   203  102  103 2    
   204  102  104 am   BACKBONE|DICT|INTERRES
   205  104  105 1    
   206  104  225 1    
   207  105  106 1    
   208  105  107 1    
   209  105  226 1    
   210  106  227 1    
   211  106  228 1    
   212  106  229 1    
   213  107  108 2    
   214  107  109 am   BACKBONE|DICT|INTERRES
   215  109  110 1    
   216  109  230 1    
   217  110  111 1    
   218  110  112 1    
   219  110  231 1    
   220  111  232 1    
   221  111  233 1    
   222  111  234 1    
   223  112  113 2    
   224  112  114 am   BACKBONE|DICT|INTERRES
   225  114  115 1    
   226  114  235 1    
   227  115  116 1    
   228  115  117 1    
   229  115  236 1    
   230  116  237 1    
   231  116  238 1    
   232  116  239 1    
   233  117  118 2    
   234  117  119 am   BACKBONE|DICT|INTERRES
   235  119  120 1    
   236  119  240 1    
   237  120  121 1    
   238  120  124 1    
   239  120  241 1    
   240  121  122 am   BACKBONE|DICT|INTERRES
   241  121  123 2    
   242  122  242 1    
   243  122  243 1    
   244  124  125 1    
   245  124  244 1    
   246  124  245 1    
   247  125  126 1    
   248  126  246 1    
   249  126  247 1    
@<TRIPOS>SUBSTRUCTURE
     1 UNK         1 GROUP             0       ****    0 ROOT    
