@<TRIPOS>MOLECULE
3R540
247   249    1
SMALL
USER_CHARGES


@<TRIPOS>ATOM
      1 CA         -1.9645  -17.2880  -44.9281 C.3       0 UNK        -0.1800 
      2 C          -2.5455  -15.9684  -44.4543 C.2       0 UNK         0.5000 
      3 O          -2.2088  -15.5071  -43.3634 O.2       0 UNK        -0.5000 
      4 N          -3.4111  -15.3565  -45.2709 N.am      1 UNK        -0.5000 
      5 CA         -3.9886  -14.0315  -45.0345 C.3       1 UNK         0.1400 
      6 C6         -5.1568  -13.7088  -45.9959 C.3       23 UNK        -0.0398 
      7 S7         -6.5290  -14.9033  -45.8608 S.3       23 UNK        -0.2404 
      8 C8         -6.5565  -15.6215  -47.5329 C.3       23 UNK        -0.0205 
      9 C9         -5.4166  -16.6031  -47.7641 C.ar      23 UNK        -0.0193 
     10 C10        -4.2677  -16.2122  -48.4589 C.ar      23 UNK        -0.1150 
     11 C11        -3.2477  -17.1290  -48.7356 C.ar      23 UNK        -0.0193 
     12 C12        -3.3897  -18.4524  -48.2934 C.ar      23 UNK        -0.1150 
     13 C13        -4.5392  -18.8582  -47.6100 C.ar      23 UNK        -0.0193 
     14 C14        -5.5420  -17.9262  -47.3359 C.ar      23 UNK        -0.1150 
     15 C15        -4.7401  -20.3203  -47.2475 C.3       23 UNK        -0.0205 
     16 S16        -4.0564  -20.7359  -45.6158 S.3       23 UNK        -0.2404 
     17 C17        -4.5047  -22.5043  -45.5542 C.3       23 UNK        -0.0398 
     18 CA         -3.4091  -23.3989  -46.1784 C.3       11 UNK         0.1400 
     19 N          -2.1711  -23.3901  -45.3908 N.am      11 UNK        -0.5000 
     20 C          -1.0011  -23.9080  -45.7823 C.2       10 UNK         0.5000 
     21 O          -0.8524  -24.4794  -46.8635 O.2       10 UNK        -0.5000 
     22 CA          0.1772  -23.7835  -44.7916 C.3       10 UNK         0.1400 
     23 CB          1.4635  -24.4437  -45.3187 C.3       10 UNK        -0.1800 
     24 N           0.4726  -22.3915  -44.4566 N.am      10 UNK        -0.5000 
     25 C          -0.2460  -21.5988  -43.6501 C.2       9 UNK         0.5000 
     26 O          -1.2447  -21.9823  -43.0387 O.2       9 UNK        -0.5000 
     27 CA          0.2159  -20.1344  -43.5076 C.3       9 UNK         0.1400 
     28 CB          0.8692  -19.9019  -42.1367 C.3       9 UNK        -0.1800 
     29 N           1.1458  -19.6970  -44.5541 N.am      9 UNK        -0.5000 
     30 C           0.8235  -19.5228  -45.8421 C.2       8 UNK         0.5000 
     31 O          -0.3008  -19.7195  -46.3023 O.2       8 UNK        -0.5000 
     32 CA          1.9557  -19.0638  -46.7727 C.3       8 UNK         0.1400 
     33 CB          2.1171  -20.0205  -47.9627 C.3       8 UNK        -0.1800 
     34 N           1.6899  -17.7203  -47.2726 N.am      8 UNK        -0.5000 
     35 C           1.8821  -16.6014  -46.5686 C.2       7 UNK         0.5000 
     36 O           2.2986  -16.5868  -45.4075 O.2       7 UNK        -0.5000 
     37 CA          1.5682  -15.2738  -47.2850 C.3       7 UNK         0.1400 
     38 CB          0.1780  -14.7586  -46.8904 C.3       7 UNK        -0.1800 
     39 N           2.5813  -14.2665  -46.9613 N.am      7 UNK        -0.5000 
     40 C           3.8514  -14.3333  -47.3879 C.2       6 UNK         0.5000 
     41 O           4.2308  -15.1316  -48.2472 O.2       6 UNK        -0.5000 
     42 CA          4.8765  -13.4002  -46.7126 C.3       6 UNK         0.1400 
     43 CB          6.1163  -13.1177  -47.5886 C.3       6 UNK        -0.1800 
     44 N           4.3027  -12.1638  -46.1754 N.am      6 UNK        -0.5000 
     45 C           3.8386  -11.1025  -46.8528 C.2       5 UNK         0.5000 
     46 O           3.7894  -11.0465  -48.0822 O.2       5 UNK        -0.5000 
     47 CA          3.3603   -9.8936  -46.0169 C.3       5 UNK         0.1400 
     48 CB          2.0868   -9.2581  -46.6037 C.3       5 UNK        -0.1800 
     49 N           3.1126  -10.2603  -44.6203 N.am      5 UNK        -0.5000 
     50 C           3.9901  -10.1381  -43.6130 C.2       4 UNK         0.5000 
     51 O           5.0963   -9.6121  -43.7363 O.2       4 UNK        -0.5000 
     52 CA          3.5880  -10.7301  -42.2437 C.3       4 UNK         0.1400 
     53 CB          3.0764   -9.6216  -41.3113 C.3       4 UNK        -0.1800 
     54 N           2.5716  -11.7827  -42.3271 N.am      4 UNK        -0.5000 
     55 C           2.7264  -12.9706  -42.9304 C.2       3 UNK         0.5000 
     56 O           3.7909  -13.3500  -43.4180 O.2       3 UNK        -0.5000 
     57 CA          1.4627  -13.8449  -43.0837 C.3       3 UNK         0.1400 
     58 CB          1.3815  -14.8905  -41.9626 C.3       3 UNK        -0.1800 
     59 N           0.2070  -13.0821  -43.1276 N.am      3 UNK        -0.5000 
     60 C          -0.0800  -12.1191  -44.0155 C.2       2 UNK         0.5000 
     61 O           0.6836  -11.7947  -44.9250 O.2       2 UNK        -0.5000 
     62 CA         -1.4315  -11.4021  -43.8283 C.3       2 UNK         0.1400 
     63 CB         -1.5727  -10.1363  -44.7012 C.3       2 UNK        -0.1800 
     64 N          -2.5549  -12.3229  -44.0202 N.am      2 UNK        -0.5000 
     65 C          -2.8811  -12.9676  -45.1494 C.2       1 UNK         0.5000 
     66 O          -2.3442  -12.7800  -46.2420 O.2       1 UNK        -0.5000 
     67 C          -3.9424  -24.8223  -46.4520 C.2       11 UNK         0.5000 
     68 O          -4.6114  -25.0286  -47.4658 O.2       11 UNK        -0.5000 
     69 N          -3.6005  -25.7836  -45.5813 N.am      12 UNK        -0.5000 
     70 CA         -3.8660  -27.2098  -45.7708 C.3       12 UNK         0.1400 
     71 CB         -3.5888  -27.9586  -44.4589 C.3       12 UNK        -0.1800 
     72 C          -3.0426  -27.8115  -46.9260 C.2       12 UNK         0.5000 
     73 O          -3.5794  -28.6021  -47.7014 O.2       12 UNK        -0.5000 
     74 N          -1.7739  -27.3926  -47.0542 N.am      13 UNK        -0.5000 
     75 CA         -0.8850  -27.7716  -48.1578 C.3       13 UNK         0.1400 
     76 CB          0.5726  -27.4605  -47.7859 C.3       13 UNK        -0.1800 
     77 C          -1.2750  -27.0728  -49.4731 C.2       13 UNK         0.5000 
     78 O          -1.1217  -27.6600  -50.5440 O.2       13 UNK        -0.5000 
     79 N          -1.8273  -25.8559  -49.3608 N.am      14 UNK        -0.5000 
     80 CA         -2.4498  -25.1089  -50.4557 C.3       14 UNK         0.1400 
     81 CB         -2.6630  -23.6477  -50.0173 C.3       14 UNK        -0.1800 
     82 C          -3.7983  -25.7059  -50.9100 C.2       14 UNK         0.5000 
     83 O          -4.3437  -25.2385  -51.9076 O.2       14 UNK        -0.5000 
     84 N          -4.3515  -26.6623  -50.1459 N.am      15 UNK        -0.5000 
     85 CA         -5.6659  -27.2935  -50.3194 C.3       15 UNK         0.1400 
     86 CB         -5.6663  -28.1965  -51.5698 C.3       15 UNK        -0.1800 
     87 C          -6.8248  -26.2716  -50.3158 C.2       15 UNK         0.5000 
     88 O          -7.8117  -26.4511  -51.0309 O.2       15 UNK        -0.5000 
     89 N          -6.6509  -25.1934  -49.5354 N.am      16 UNK        -0.5000 
     90 CA         -7.5007  -24.0024  -49.4375 C.3       16 UNK         0.1400 
     91 CB         -8.8892  -24.3623  -48.8703 C.3       16 UNK        -0.1800 
     92 C          -7.5934  -23.1626  -50.7347 C.2       16 UNK         0.5000 
     93 O          -8.4247  -22.2560  -50.7989 O.2       16 UNK        -0.5000 
     94 N          -6.7348  -23.4320  -51.7322 N.am      17 UNK        -0.5000 
     95 CA         -6.6769  -22.6901  -52.9974 C.3       17 UNK         0.1400 
     96 CB         -6.1130  -23.6011  -54.0992 C.3       17 UNK        -0.1800 
     97 C          -5.8500  -21.3932  -52.8951 C.2       17 UNK         0.5000 
     98 O          -5.8843  -20.5868  -53.8257 O.2       17 UNK        -0.5000 
     99 N          -5.1262  -21.2197  -51.7781 N.am      18 UNK        -0.5000 
    100 CA        -4.2888  -20.0796  -51.3925 C.3       18 UNK         0.1400 
    101 CB        -5.1108  -18.7761  -51.3113 C.3       18 UNK        -0.1800 
    102 C         -3.0338  -19.9211  -52.2662 C.2       18 UNK         0.5000 
    103 O         -1.9245  -20.1812  -51.7963 O.2       18 UNK        -0.5000 
    104 N         -3.2312  -19.5375  -53.5336 N.am      19 UNK        -0.5000 
    105 CA        -2.1910  -19.2714  -54.5322 C.3       19 UNK         0.1400 
    106 CB        -2.8575  -18.7885  -55.8282 C.3       19 UNK        -0.1800 
    107 C         -1.2651  -20.4695  -54.8159 C.2       19 UNK         0.5000 
    108 O         -0.1139  -20.2664  -55.2011 O.2       19 UNK        -0.5000 
    109 N         -1.7651  -21.6879  -54.5690 N.am      20 UNK        -0.5000 
    110 CA        -1.0206  -22.9450  -54.6375 C.3       20 UNK         0.1400 
    111 CB        -1.9946  -24.1060  -54.3903 C.3       20 UNK        -0.1800 
    112 C          0.1735  -23.0239  -53.6625 C.2       20 UNK         0.5000 
    113 O          1.1258  -23.7492  -53.9528 O.2       20 UNK        -0.5000 
    114 N          0.1142  -22.2794  -52.5484 N.am      21 UNK        -0.5000 
    115 CA         1.2128  -22.1398  -51.5924 C.3       21 UNK         0.1400 
    116 CB         0.7294  -22.5324  -50.1894 C.3       21 UNK        -0.1800 
    117 C          1.7774  -20.7098  -51.5942 C.2       21 UNK         0.5000 
    118 O          2.9966  -20.5512  -51.5232 O.2       21 UNK        -0.5000 
    119 N          0.9012  -19.6973  -51.6703 N.am      22 UNK        -0.5000 
    120 CA         1.2824  -18.2737  -51.6383 C.3       22 UNK         0.1400 
    121 C          1.9692  -17.7479  -52.9326 C.2       22 UNK         0.5000 
    122 N          1.8602  -18.4140  -54.0753 N.am      22 UNK        -0.7600 
    123 O          2.6232  -16.7096  -52.8966 O.2       22 UNK        -0.5000 
    124 C124        0.0943  -17.3570  -51.2497 C.3       23 UNK        -0.0398 
    125 S125       -0.6244  -17.7734  -49.6271 S.3       23 UNK        -0.2404 
    126 C126       -2.0745  -16.6656  -49.6021 C.3       23 UNK        -0.0205 
    127 H127       -2.4637  -18.1211  -44.4342 H         1 UNK         0.0600 
    128 H128       -2.0726  -17.4140  -46.0048 H         1 UNK         0.0600 
    129 H129       -0.9011  -17.3286  -44.6935 H         1 UNK         0.0600 
    130 H130       -3.6622  -15.7917  -46.1478 H         1 UNK         0.3000 
    131 H131       -4.3847  -14.0184  -44.0166 H         1 UNK         0.0600 
    132 H132       -4.8070  -13.6601  -47.0280 H         1 UNK         0.0800 
    133 H133       -5.5628  -12.7207  -45.7725 H         1 UNK         0.0800 
    134 H134       -6.5389  -14.8250  -48.2785 H         1 UNK         0.0800 
    135 H135       -7.5076  -16.1376  -47.6723 H         1 UNK         0.0800 
    136 H136       -4.1824  -15.1970  -48.8208 H         1 UNK         0.1150 
    137 H137       -2.6314  -19.1900  -48.5127 H         1 UNK         0.1150 
    138 H138       -6.4382  -18.2384  -46.8182 H         1 UNK         0.1150 
    139 H139       -4.2725  -20.9523  -48.0035 H         1 UNK         0.0800 
    140 H140       -5.8045  -20.5596  -47.2662 H         1 UNK         0.0800 
    141 H141       -5.4614  -22.6383  -46.0632 H         1 UNK         0.0800 
    142 H142       -4.6780  -22.7829  -44.5135 H         1 UNK         0.0800 
    143 H143       -3.1577  -22.9831  -47.1552 H         1 UNK         0.0600 
    144 H144       -2.1947  -22.8954  -44.5042 H         1 UNK         0.3000 
    145 H145       -0.1131  -24.3053  -43.8775 H         1 UNK         0.0600 
    146 H146        1.3098  -25.5081  -45.4978 H         1 UNK         0.0600 
    147 H147        1.7936  -23.9943  -46.2564 H         1 UNK         0.0600 
    148 H148        2.2772  -24.3547  -44.5988 H         1 UNK         0.0600 
    149 H149        1.2589  -21.9774  -44.9335 H         1 UNK         0.3000 
    150 H150       -0.6791  -19.5138  -43.5650 H         1 UNK         0.0600 
    151 H151        1.7829  -20.4863  -42.0221 H         1 UNK         0.0600 
    152 H152        0.1942  -20.1856  -41.3280 H         1 UNK         0.0600 
    153 H153        1.1206  -18.8507  -41.9932 H         1 UNK         0.0600 
    154 H154        2.0875  -19.4873  -44.2549 H         1 UNK         0.3000 
    155 H155        2.8982  -19.0562  -46.2207 H         1 UNK         0.0600 
    156 H156        1.2117  -20.0612  -48.5689 H         1 UNK         0.0600 
    157 H157        2.3315  -21.0336  -47.6212 H         1 UNK         0.0600 
    158 H158        2.9386  -19.7132  -48.6101 H         1 UNK         0.0600 
    159 H159        1.2561  -17.6654  -48.1842 H         1 UNK         0.3000 
    160 H160        1.5772  -15.4392  -48.3648 H         1 UNK         0.0600 
    161 H161        0.0945  -14.5858  -45.8184 H         1 UNK         0.0600 
    162 H162       -0.5955  -15.4780  -47.1594 H         1 UNK         0.0600 
    163 H163       -0.0551  -13.8231  -47.3988 H         1 UNK         0.0600 
    164 H164        2.3412  -13.5865  -46.2548 H         1 UNK         0.3000 
    165 H165        5.2283  -13.9520  -45.8398 H         1 UNK         0.0600 
    166 H166        6.8210  -12.4624  -47.0767 H         1 UNK         0.0600 
    167 H167        5.8479  -12.6500  -48.5360 H         1 UNK         0.0600 
    168 H168        6.6473  -14.0410  -47.8228 H         1 UNK         0.0600 
    169 H169        4.2581  -12.1297  -45.1643 H         1 UNK         0.3000 
    170 H170        4.1527   -9.1441  -46.0630 H         1 UNK         0.0600 
    171 H171        2.2762   -8.8501  -47.5971 H         1 UNK         0.0600 
    172 H172        1.2779   -9.9823  -46.6992 H         1 UNK         0.0600 
    173 H173        1.7308   -8.4377  -45.9804 H         1 UNK         0.0600 
    174 H174        2.2355  -10.7467  -44.4587 H         1 UNK         0.3000 
    175 H175        4.4854  -11.1660  -41.7998 H         1 UNK         0.0600 
    176 H176        2.1650   -9.1618  -41.6956 H         1 UNK         0.0600 
    177 H177        2.8639  -10.0098  -40.3151 H         1 UNK         0.0600 
    178 H178        3.8200   -8.8315  -41.1983 H         1 UNK         0.0600 
    179 H179        1.6618  -11.5579  -41.9528 H         1 UNK         0.3000 
    180 H180        1.5587  -14.3759  -44.0308 H         1 UNK         0.0600 
    181 H181        1.2534  -14.4245  -40.9849 H         1 UNK         0.0600 
    182 H182        2.2898  -15.4936  -41.9253 H         1 UNK         0.0600 
    183 H183        0.5474  -15.5744  -42.1234 H         1 UNK         0.0600 
    184 H184       -0.4891  -13.3300  -42.4389 H         1 UNK         0.3000 
    185 H185       -1.4710  -11.0794  -42.7868 H         1 UNK         0.0600 
    186 H186       -1.4937  -10.3566  -45.7660 H         1 UNK         0.0600 
    187 H187       -2.5301   -9.6443  -44.5307 H         1 UNK         0.0600 
    188 H188       -0.7893   -9.4153  -44.4645 H         1 UNK         0.0600 
    189 H189       -3.0489  -12.5773  -43.1759 H         1 UNK         0.3000 
    190 H190       -3.0629  -25.5238  -44.7676 H         1 UNK         0.3000 
    191 H191       -4.9235  -27.3302  -46.0162 H         1 UNK         0.0600 
    192 H192       -3.7964  -29.0241  -44.5669 H         1 UNK         0.0600 
    193 H193       -4.2200  -27.5862  -43.6518 H         1 UNK         0.0600 
    194 H194       -2.5488  -27.8569  -44.1464 H         1 UNK         0.0600 
    195 H195       -1.4233  -26.6895  -46.4197 H         1 UNK         0.3000 
    196 H196       -0.9715  -28.8493  -48.3121 H         1 UNK         0.0600 
    197 H197        0.7506  -26.3886  -47.7024 H         1 UNK         0.0600 
    198 H198        0.8493  -27.9248  -46.8393 H         1 UNK         0.0600 
    199 H199        1.2542  -27.8420  -48.5469 H         1 UNK         0.0600 
    200 H200       -1.8291  -25.4179  -48.4465 H         1 UNK         0.3000 
    201 H201       -1.7634  -25.1225  -51.3045 H         1 UNK         0.0600 
    202 H202       -3.5892  -23.5213  -49.4567 H         1 UNK         0.0600 
    203 H203       -2.7196  -22.9908  -50.8858 H         1 UNK         0.0600 
    204 H204       -1.8540  -23.2877  -49.3848 H         1 UNK         0.0600 
    205 H205       -3.8410  -26.9577  -49.3249 H         1 UNK         0.3000 
    206 H206       -5.8184  -27.9308  -49.4474 H         1 UNK         0.0600 
    207 H207       -4.8412  -28.9081  -51.5407 H         1 UNK         0.0600 
    208 H208       -6.5892  -28.7737  -51.6363 H         1 UNK         0.0600 
    209 H209       -5.5762  -27.6156  -52.4883 H         1 UNK         0.0600 
    210 H210       -5.8175  -25.1710  -48.9517 H         1 UNK         0.3000 
    211 H211       -7.0106  -23.3575  -48.7067 H         1 UNK         0.0600 
    212 H212       -9.4621  -23.4645  -48.6360 H         1 UNK         0.0600 
    213 H213       -8.8012  -24.9375  -47.9486 H         1 UNK         0.0600 
    214 H214       -9.4777  -24.9475  -49.5772 H         1 UNK         0.0600 
    215 H215       -6.0713  -24.1938  -51.6318 H         1 UNK         0.3000 
    216 H216       -7.6913  -22.4085  -53.2873 H         1 UNK         0.0600 
    217 H217       -5.0576  -23.8214  -53.9424 H         1 UNK         0.0600 
    218 H218       -6.2013  -23.1271  -55.0775 H         1 UNK         0.0600 
    219 H219       -6.6514  -24.5478  -54.1465 H         1 UNK         0.0600 
    220 H220       -5.1631  -21.9717  -51.1068 H         1 UNK         0.3000 
    221 H221       -3.9298  -20.3010  -50.3875 H         1 UNK         0.0600 
    222 H222       -5.8678  -18.8408  -50.5297 H         1 UNK         0.0600 
    223 H223       -5.6175  -18.5373  -52.2456 H         1 UNK         0.0600 
    224 H224       -4.4738  -17.9253  -51.0752 H         1 UNK         0.0600 
    225 H225       -4.1937  -19.4587  -53.8453 H         1 UNK         0.3000 
    226 H226       -1.5648  -18.4646  -54.1470 H         1 UNK         0.0600 
    227 H227       -3.5282  -19.5439  -56.2397 H         1 UNK         0.0600 
    228 H228       -3.4376  -17.8811  -55.6588 H         1 UNK         0.0600 
    229 H229       -2.1120  -18.5587  -56.5907 H         1 UNK         0.0600 
    230 H230       -2.7224  -21.7462  -54.2564 H         1 UNK         0.3000 
    231 H231       -0.6213  -23.0399  -55.6493 H         1 UNK         0.0600 
    232 H232       -2.4821  -24.0149  -53.4201 H         1 UNK         0.0600 
    233 H233       -1.4785  -25.0668  -54.4111 H         1 UNK         0.0600 
    234 H234       -2.7719  -24.1393  -55.1538 H         1 UNK         0.0600 
    235 H235       -0.6956  -21.6890  -52.3954 H         1 UNK         0.3000 
    236 H236        2.0353  -22.8092  -51.8521 H         1 UNK         0.0600 
    237 H237        0.3548  -23.5558  -50.1768 H         1 UNK         0.0600 
    238 H238        1.5463  -22.4846  -49.4695 H         1 UNK         0.0600 
    239 H239       -0.0621  -21.8703  -49.8362 H         1 UNK         0.0600 
    240 H240       -0.0968  -19.8891  -51.6833 H         1 UNK         0.3000 
    241 H241        2.0310  -18.1666  -50.8504 H         1 UNK         0.0600 
    242 H242        2.3222  -18.0534  -54.8947 H         1 UNK         0.3800 
    243 H243        1.2870  -19.2450  -54.1610 H         1 UNK         0.3800 
    244 H244       -0.6882  -17.4213  -52.0071 H         1 UNK         0.0800 
    245 H245        0.4079  -16.3120  -51.2144 H         1 UNK         0.0800 
    246 H246       -2.4477  -16.5491  -50.6200 H         1 UNK         0.0800 
    247 H247       -1.7470  -15.6763  -49.2805 H         1 UNK         0.0800 
@<TRIPOS>BOND
     1    1    2 1    
     2    1  127 1    
     3    1  128 1    
     4    1  129 1    
     5    2    3 2    
     6    2    4 am   BACKBONE|DICT|INTERRES
     7    4    5 1    
     8    4  130 1    
     9    5    6 1    
    10    5   65 1    
    11    5  131 1    
    12    6    7 1    
    13    6  132 1    
    14    6  133 1    
    15    7    8 1    
    16    8    9 1    
    17    8  134 1    
    18    8  135 1    
    19    9   10 ar   
    20    9   14 ar   
    21   10   11 ar   
    22   10  136 1    
    23   11   12 ar   
    24   11  126 1    
    25   12   13 ar   
    26   12  137 1    
    27   13   14 ar   
    28   13   15 1    
    29   14  138 1    
    30   15   16 1    
    31   15  139 1    
    32   15  140 1    
    33   16   17 1    
    34   17   18 1    
    35   17  141 1    
    36   17  142 1    
    37   18   19 1    
    38   18   67 1    
    39   18  143 1    
    40   19   20 am   BACKBONE|DICT|INTERRES
    41   19  144 1    
    42   20   21 2    
    43   20   22 1    
    44   22   23 1    
    45   22   24 1    
    46   22  145 1    
    47   23  146 1    
    48   23  147 1    
    49   23  148 1    
    50   24   25 am   BACKBONE|DICT|INTERRES
    51   24  149 1    
    52   25   26 2    
    53   25   27 1    
    54   27   28 1    
    55   27   29 1    
    56   27  150 1    
    57   28  151 1    
    58   28  152 1    
    59   28  153 1    
    60   29   30 am   BACKBONE|DICT|INTERRES
    61   29  154 1    
    62   30   31 2    
    63   30   32 1    
    64   32   33 1    
    65   32   34 1    
    66   32  155 1    
    67   33  156 1    
    68   33  157 1    
    69   33  158 1    
    70   34   35 am   BACKBONE|DICT|INTERRES
    71   34  159 1    
    72   35   36 2    
    73   35   37 1    
    74   37   38 1    
    75   37   39 1    
    76   37  160 1    
    77   38  161 1    
    78   38  162 1    
    79   38  163 1    
    80   39   40 am   BACKBONE|DICT|INTERRES
    81   39  164 1    
    82   40   41 2    
    83   40   42 1    
    84   42   43 1    
    85   42   44 1    
    86   42  165 1    
    87   43  166 1    
    88   43  167 1    
    89   43  168 1    
    90   44   45 am   BACKBONE|DICT|INTERRES
    91   44  169 1    
    92   45   46 2    
    93   45   47 1    
    94   47   48 1    
    95   47   49 1    
    96   47  170 1    
    97   48  171 1    
    98   48  172 1    
    99   48  173 1    
   100   49   50 am   BACKBONE|DICT|INTERRES
   101   49  174 1    
   102   50   51 2    
   103   50   52 1    
   104   52   53 1    
   105   52   54 1    
   106   52  175 1    
   107   53  176 1    
   108   53  177 1    
   109   53  178 1    
   110   54   55 am   BACKBONE|DICT|INTERRES
   111   54  179 1    
   112   55   56 2    
   113   55   57 1    
   114   57   58 1    
   115   57   59 1    
   116   57  180 1    
   117   58  181 1    
   118   58  182 1    
   119   58  183 1    
   120   59   60 am   BACKBONE|DICT|INTERRES
   121   59  184 1    
   122   60   61 2    
   123   60   62 1    
   124   62   63 1    
   125   62   64 1    
   126   62  185 1    
   127   63  186 1    
   128   63  187 1    
   129   63  188 1    
   130   64   65 am   BACKBONE|DICT|INTERRES
   131   64  189 1    
   132   65   66 2    
   133   67   68 2    
   134   67   69 am   BACKBONE|DICT|INTERRES
   135   69   70 1    
   136   69  190 1    
   137   70   71 1    
   138   70   72 1    
   139   70  191 1    
   140   71  192 1    
   141   71  193 1    
   142   71  194 1    
   143   72   73 2    
   144   72   74 am   BACKBONE|DICT|INTERRES
   145   74   75 1    
   146   74  195 1    
   147   75   76 1    
   148   75   77 1    
   149   75  196 1    
   150   76  197 1    
   151   76  198 1    
   152   76  199 1    
   153   77   78 2    
   154   77   79 am   BACKBONE|DICT|INTERRES
   155   79   80 1    
   156   79  200 1    
   157   80   81 1    
   158   80   82 1    
   159   80  201 1    
   160   81  202 1    
   161   81  203 1    
   162   81  204 1    
   163   82   83 2    
   164   82   84 am   BACKBONE|DICT|INTERRES
   165   84   85 1    
   166   84  205 1    
   167   85   86 1    
   168   85   87 1    
   169   85  206 1    
   170   86  207 1    
   171   86  208 1    
   172   86  209 1    
   173   87   88 2    
   174   87   89 am   BACKBONE|DICT|INTERRES
   175   89   90 1    
   176   89  210 1    
   177   90   91 1    
   178   90   92 1    
   179   90  211 1    
   180   91  212 1    
   181   91  213 1    
   182   91  214 1    
   183   92   93 2    
   184   92   94 am   BACKBONE|DICT|INTERRES
   185   94   95 1    
   186   94  215 1    
   187   95   96 1    
   188   95   97 1    
   189   95  216 1    
   190   96  217 1    
   191   96  218 1    
   192   96  219 1    
   193   97   98 2    
   194   97   99 am   BACKBONE|DICT|INTERRES
   195   99  100 1    
   196   99  220 1    
   197  100  101 1    
   198  100  102 1    
   199  100  221 1    
   200  101  222 1    
   201  101  223 1    
   202  101  224 1    
   203  102  103 2    
   204  102  104 am   BACKBONE|DICT|INTERRES
   205  104  105 1    
   206  104  225 1    
   207  105  106 1    
   208  105  107 1    
   209  105  226 1    
   210  106  227 1    
   211  106  228 1    
   212  106  229 1    
   213  107  108 2    
   214  107  109 am   BACKBONE|DICT|INTERRES
   215  109  110 1    
   216  109  230 1    
   217  110  111 1    
   218  110  112 1    
   219  110  231 1    
   220  111  232 1    
   221  111  233 1    
   222  111  234 1    
   223  112  113 2    
   224  112  114 am   BACKBONE|DICT|INTERRES
   225  114  115 1    
   226  114  235 1    
   227  115  116 1    
   228  115  117 1    
   229  115  236 1    
   230  116  237 1    
   231  116  238 1    
   232  116  239 1    
   233  117  118 2    
   234  117  119 am   BACKBONE|DICT|INTERRES
   235  119  120 1    
   236  119  240 1    
   237  120  121 1    
   238  120  124 1    
   239  120  241 1    
   240  121  122 am   BACKBONE|DICT|INTERRES
   241  121  123 2    
   242  122  242 1    
   243  122  243 1    
   244  124  125 1    
   245  124  244 1    
   246  124  245 1    
   247  125  126 1    
   248  126  246 1    
   249  126  247 1    
@<TRIPOS>SUBSTRUCTURE
     1 UNK         1 GROUP             0       ****    0 ROOT    
