@<TRIPOS>MOLECULE
3R540
247   249    1
SMALL
USER_CHARGES


@<TRIPOS>ATOM
      1 CA         -3.8358  -12.9150  -48.5652 C.3       0 UNK        -0.1800 
      2 C          -2.5611  -12.9423  -47.7356 C.2       0 UNK         0.5000 
      3 O          -2.6105  -12.7089  -46.5295 O.2       0 UNK        -0.5000 
      4 N          -1.4217  -13.2460  -48.3687 N.am      1 UNK        -0.5000 
      5 CA         -0.0944  -13.3546  -47.7465 C.3       1 UNK         0.1400 
      6 C6          1.0227  -13.5713  -48.7986 C.3       23 UNK        -0.0398 
      7 S7          0.6659  -14.9065  -49.9995 S.3       23 UNK        -0.2404 
      8 C8          1.9886  -16.0951  -49.6155 C.3       23 UNK        -0.0205 
      9 C9          1.9261  -17.3333  -50.4996 C.ar      23 UNK        -0.0193 
     10 C10         1.9563  -17.2135  -51.8917 C.ar      23 UNK        -0.1150 
     11 C11         1.8951  -18.3486  -52.7021 C.ar      23 UNK        -0.0193 
     12 C12         1.8204  -19.6125  -52.1123 C.ar      23 UNK        -0.1150 
     13 C13         1.8124  -19.7570  -50.7219 C.ar      23 UNK        -0.0193 
     14 C14         1.8609  -18.6050  -49.9228 C.ar      23 UNK        -0.1150 
     15 C15         1.7427  -21.1746  -50.1492 C.3       23 UNK        -0.0205 
     16 S16         2.2037  -21.3512  -48.3910 S.3       23 UNK        -0.2404 
     17 C17         0.6484  -20.8585  -47.5770 C.3       23 UNK        -0.0398 
     18 CA         -0.2311  -22.0754  -47.2206 C.3       11 UNK         0.1400 
     19 N           0.4410  -23.0354  -46.3426 N.am      11 UNK        -0.5000 
     20 C           0.0595  -24.3132  -46.2113 C.2       10 UNK         0.5000 
     21 O          -0.8881  -24.8019  -46.8238 O.2       10 UNK        -0.5000 
     22 CA          0.8304  -25.1839  -45.2016 C.3       10 UNK         0.1400 
     23 CB          2.0027  -25.8950  -45.8930 C.3       10 UNK        -0.1800 
     24 N           1.3338  -24.4366  -44.0487 N.am      10 UNK        -0.5000 
     25 C           0.5739  -23.7639  -43.1745 C.2       9 UNK         0.5000 
     26 O          -0.6562  -23.7146  -43.2424 O.2       9 UNK        -0.5000 
     27 CA          1.3001  -22.9754  -42.0642 C.3       9 UNK         0.1400 
     28 CB          2.8243  -23.2253  -42.0026 C.3       9 UNK        -0.1800 
     29 N           1.0342  -21.5359  -42.1518 N.am      9 UNK        -0.5000 
     30 C           1.2413  -20.7333  -43.2069 C.2       8 UNK         0.5000 
     31 O           1.6478  -21.1304  -44.3006 O.2       8 UNK        -0.5000 
     32 CA          0.9161  -19.2333  -43.0385 C.3       8 UNK         0.1400 
     33 CB          0.4266  -18.8482  -41.6212 C.3       8 UNK        -0.1800 
     34 N           2.0369  -18.3906  -43.4770 N.am      8 UNK        -0.5000 
     35 C           3.2737  -18.3613  -42.9554 C.2       7 UNK         0.5000 
     36 O           3.6004  -18.9782  -41.9411 O.2       7 UNK        -0.5000 
     37 CA          4.3340  -17.5106  -43.6870 C.3       7 UNK         0.1400 
     38 CB          5.6260  -18.3170  -43.9066 C.3       7 UNK        -0.1800 
     39 N           3.8707  -17.0334  -44.9968 N.am      7 UNK        -0.5000 
     40 C           3.6800  -15.7752  -45.4231 C.2       6 UNK         0.5000 
     41 O           3.3469  -15.5602  -46.5862 O.2       6 UNK        -0.5000 
     42 CA          3.8163  -14.5838  -44.4516 C.3       6 UNK         0.1400 
     43 CB          3.9398  -13.2349  -45.1855 C.3       6 UNK        -0.1800 
     44 N           2.6173  -14.5481  -43.6234 N.am      6 UNK        -0.5000 
     45 C           2.5853  -14.6428  -42.2902 C.2       5 UNK         0.5000 
     46 O           3.5947  -14.6845  -41.5851 O.2       5 UNK        -0.5000 
     47 CA          1.1898  -14.7626  -41.6504 C.3       5 UNK         0.1400 
     48 CB          1.1858  -14.5349  -40.1243 C.3       5 UNK        -0.1800 
     49 N           0.1671  -13.9557  -42.3182 N.am      5 UNK        -0.5000 
     50 C           0.0701  -12.6184  -42.3563 C.2       4 UNK         0.5000 
     51 O           0.8817  -11.8602  -41.8238 O.2       4 UNK        -0.5000 
     52 CA         -1.1371  -12.0137  -43.1100 C.3       4 UNK         0.1400 
     53 CB         -0.6680  -11.0645  -44.2250 C.3       4 UNK        -0.1800 
     54 N          -2.0311  -13.0171  -43.6936 N.am      4 UNK        -0.5000 
     55 C          -2.9180  -13.7655  -43.0236 C.2       3 UNK         0.5000 
     56 O          -3.1504  -13.6384  -41.8216 O.2       3 UNK        -0.5000 
     57 CA         -3.6180  -14.8825  -43.8228 C.3       3 UNK         0.1400 
     58 CB         -4.9277  -14.3777  -44.4475 C.3       3 UNK        -0.1800 
     59 N          -2.7593  -15.4433  -44.8707 N.am      3 UNK        -0.5000 
     60 C          -1.6855  -16.2125  -44.6389 C.2       2 UNK         0.5000 
     61 O          -1.3222  -16.5578  -43.5162 O.2       2 UNK        -0.5000 
     62 CA         -0.8449  -16.6247  -45.8611 C.3       2 UNK         0.1400 
     63 CB         -1.4462  -17.8535  -46.5487 C.3       2 UNK        -0.1800 
     64 N          -0.7113  -15.5509  -46.8413 N.am      2 UNK        -0.5000 
     65 C          -0.0404  -14.4127  -46.6241 C.2       1 UNK         0.5000 
     66 O           0.5495  -14.1646  -45.5723 O.2       1 UNK        -0.5000 
     67 C          -1.5749  -21.6179  -46.6267 C.2       11 UNK         0.5000 
     68 O          -2.5221  -21.4014  -47.3810 O.2       11 UNK        -0.5000 
     69 N          -1.6555  -21.5094  -45.2917 N.am      12 UNK        -0.5000 
     70 CA         -2.9020  -21.2223  -44.5794 C.3       12 UNK         0.1400 
     71 CB         -2.6199  -20.8445  -43.1188 C.3       12 UNK        -0.1800 
     72 C          -3.8887  -22.3953  -44.6865 C.2       12 UNK         0.5000 
     73 O          -5.0643  -22.1693  -44.9774 O.2       12 UNK        -0.5000 
     74 N          -3.3686  -23.6225  -44.5284 N.am      13 UNK        -0.5000 
     75 CA         -4.0950  -24.8766  -44.7399 C.3       13 UNK         0.1400 
     76 CB         -3.2036  -26.0608  -44.3385 C.3       13 UNK        -0.1800 
     77 C          -4.6107  -25.0383  -46.1841 C.2       13 UNK         0.5000 
     78 O          -5.7235  -25.5282  -46.3772 O.2       13 UNK        -0.5000 
     79 N          -3.8384  -24.5545  -47.1678 N.am      14 UNK        -0.5000 
     80 CA         -4.1987  -24.4572  -48.5862 C.3       14 UNK         0.1400 
     81 CB         -2.9117  -24.3760  -49.4282 C.3       14 UNK        -0.1800 
     82 C          -5.1676  -23.2897  -48.8914 C.2       14 UNK         0.5000 
     83 O          -5.0081  -22.6091  -49.9080 O.2       14 UNK        -0.5000 
     84 N          -6.1627  -23.0887  -48.0158 N.am      15 UNK        -0.5000 
     85 CA         -7.2481  -22.1071  -48.0939 C.3       15 UNK         0.1400 
     86 CB         -8.2350  -22.5064  -49.2110 C.3       15 UNK        -0.1800 
     87 C          -6.7455  -20.6544  -48.2225 C.2       15 UNK         0.5000 
     88 O          -7.2531  -19.8988  -49.0507 O.2       15 UNK        -0.5000 
     89 N          -5.7288  -20.3018  -47.4216 N.am      16 UNK        -0.5000 
     90 CA         -5.0043  -19.0236  -47.4501 C.3       16 UNK         0.1400 
     91 CB         -5.8847  -17.8725  -46.9226 C.3       16 UNK        -0.1800 
     92 C          -4.3841  -18.7366  -48.8357 C.2       16 UNK         0.5000 
     93 O          -4.5888  -17.6669  -49.4103 O.2       16 UNK        -0.5000 
     94 N          -3.6598  -19.7415  -49.3423 N.am      17 UNK        -0.5000 
     95 CA         -2.9855  -19.8371  -50.6384 C.3       17 UNK         0.1400 
     96 CB         -1.9178  -18.7353  -50.7982 C.3       17 UNK        -0.1800 
     97 C          -3.9246  -19.9253  -51.8612 C.2       17 UNK         0.5000 
     98 O          -3.4264  -20.0110  -52.9841 O.2       17 UNK        -0.5000 
     99 N          -5.2505  -19.9612  -51.6613 N.am      18 UNK        -0.5000 
    100 CA        -6.2302  -20.0830  -52.7441 C.3       18 UNK         0.1400 
    101 CB        -7.6382  -19.7614  -52.2254 C.3       18 UNK        -0.1800 
    102 C         -6.2043  -21.4629  -53.4265 C.2       18 UNK         0.5000 
    103 O         -6.4166  -21.5343  -54.6373 O.2       18 UNK        -0.5000 
    104 N         -5.9149  -22.5248  -52.6589 N.am      19 UNK        -0.5000 
    105 CA        -5.7408  -23.8803  -53.1870 C.3       19 UNK         0.1400 
    106 CB        -6.0874  -24.9122  -52.1034 C.3       19 UNK        -0.1800 
    107 C         -4.3166  -24.1079  -53.7282 C.2       19 UNK         0.5000 
    108 O         -4.1306  -24.9789  -54.5785 O.2       19 UNK        -0.5000 
    109 N         -3.3427  -23.3166  -53.2496 N.am      20 UNK        -0.5000 
    110 CA        -1.9766  -23.2783  -53.7802 C.3       20 UNK         0.1400 
    111 CB        -1.0444  -22.5697  -52.7830 C.3       20 UNK        -0.1800 
    112 C         -1.9225  -22.6035  -55.1653 C.2       20 UNK         0.5000 
    113 O         -1.1131  -23.0024  -56.0026 O.2       20 UNK        -0.5000 
    114 N         -2.7985  -21.6097  -55.3787 N.am      21 UNK        -0.5000 
    115 CA        -3.1200  -20.8872  -56.6175 C.3       21 UNK         0.1400 
    116 CB        -3.6120  -21.8553  -57.7100 C.3       21 UNK        -0.1800 
    117 C         -2.0163  -19.9540  -57.1549 C.2       21 UNK         0.5000 
    118 O         -2.3470  -18.9379  -57.7687 O.2       21 UNK        -0.5000 
    119 N         -0.7474  -20.2881  -56.8969 N.am      22 UNK        -0.5000 
    120 CA         0.4635  -19.5393  -57.2718 C.3       22 UNK         0.1400 
    121 C          0.7557  -19.5501  -58.8052 C.2       22 UNK         0.5000 
    122 N          1.7693  -18.8282  -59.2667 N.am      22 UNK        -0.7600 
    123 O          0.1055  -20.2383  -59.5899 O.2       22 UNK        -0.5000 
    124 C124        0.5156  -18.1093  -56.6526 C.3       23 UNK        -0.0398 
    125 S125        0.2072  -18.0889  -54.8528 S.3       23 UNK        -0.2404 
    126 C126        1.9024  -18.2116  -54.2141 C.3       23 UNK        -0.0205 
    127 H127       -4.5502  -13.6411  -48.1771 H         1 UNK         0.0600 
    128 H128       -4.2923  -11.9264  -48.5171 H         1 UNK         0.0600 
    129 H129       -3.6437  -13.1520  -49.6119 H         1 UNK         0.0600 
    130 H130       -1.4442  -13.4435  -49.3596 H         1 UNK         0.3000 
    131 H131        0.1014  -12.3942  -47.2657 H         1 UNK         0.0600 
    132 H132        1.1515  -12.6523  -49.3717 H         1 UNK         0.0800 
    133 H133        1.9859  -13.7438  -48.3137 H         1 UNK         0.0800 
    134 H134        1.9030  -16.3756  -48.5653 H         1 UNK         0.0800 
    135 H135        2.9612  -15.6165  -49.7375 H         1 UNK         0.0800 
    136 H136        2.0117  -16.2334  -52.3443 H         1 UNK         0.1150 
    137 H137        1.7690  -20.4897  -52.7423 H         1 UNK         0.1150 
    138 H138        1.8551  -18.6822  -48.8467 H         1 UNK         0.1150 
    139 H139        0.7385  -21.5717  -50.3034 H         1 UNK         0.0800 
    140 H140        2.4139  -21.8149  -50.7236 H         1 UNK         0.0800 
    141 H141        0.8963  -20.2790  -46.6868 H         1 UNK         0.0800 
    142 H142        0.1021  -20.1854  -48.2391 H         1 UNK         0.0800 
    143 H143       -0.4596  -22.5873  -48.1576 H         1 UNK         0.0600 
    144 H144        1.2044  -22.6776  -45.7800 H         1 UNK         0.3000 
    145 H145        0.1414  -25.9439  -44.8282 H         1 UNK         0.0600 
    146 H146        2.5073  -26.5798  -45.2113 H         1 UNK         0.0600 
    147 H147        1.6554  -26.4827  -46.7440 H         1 UNK         0.0600 
    148 H148        2.7416  -25.1839  -46.2650 H         1 UNK         0.0600 
    149 H149        2.3364  -24.4027  -43.9360 H         1 UNK         0.3000 
    150 H150        0.8700  -23.3162  -41.1215 H         1 UNK         0.0600 
    151 H151        3.0478  -24.2839  -41.8638 H         1 UNK         0.0600 
    152 H152        3.2682  -22.6944  -41.1603 H         1 UNK         0.0600 
    153 H153        3.3356  -22.8874  -42.9049 H         1 UNK         0.0600 
    154 H154        0.6733  -21.1141  -41.3081 H         1 UNK         0.3000 
    155 H155        0.0983  -19.0314  -43.7309 H         1 UNK         0.0600 
    156 H156        0.0903  -17.8153  -41.5906 H         1 UNK         0.0600 
    157 H157        1.2014  -18.9679  -40.8639 H         1 UNK         0.0600 
    158 H158       -0.4296  -19.4498  -41.3153 H         1 UNK         0.0600 
    159 H159        1.8876  -17.8688  -44.3270 H         1 UNK         0.3000 
    160 H160        4.5787  -16.6893  -43.0181 H         1 UNK         0.0600 
    161 H161        5.4482  -19.2024  -44.5183 H         1 UNK         0.0600 
    162 H162        6.0504  -18.6517  -42.9591 H         1 UNK         0.0600 
    163 H163        6.3868  -17.7142  -44.4029 H         1 UNK         0.0600 
    164 H164        3.7478  -17.7658  -45.6806 H         1 UNK         0.3000 
    165 H165        4.7237  -14.7075  -43.8598 H         1 UNK         0.0600 
    166 H166        4.8061  -13.2286  -45.8479 H         1 UNK         0.0600 
    167 H167        3.0592  -13.0169  -45.7910 H         1 UNK         0.0600 
    168 H168        4.0647  -12.4155  -44.4775 H         1 UNK         0.0600 
    169 H169        1.7434  -14.4894  -44.1427 H         1 UNK         0.3000 
    170 H170        0.8926  -15.7947  -41.8198 H         1 UNK         0.0600 
    171 H171        1.8278  -15.2585  -39.6209 H         1 UNK         0.0600 
    172 H172        1.5463  -13.5407  -39.8596 H         1 UNK         0.0600 
    173 H173        0.1836  -14.6508  -39.7116 H         1 UNK         0.0600 
    174 H174       -0.5405  -14.4852  -42.8100 H         1 UNK         0.3000 
    175 H175       -1.7069  -11.4283  -42.3858 H         1 UNK         0.0600 
    176 H176       -0.0466  -11.5811  -44.9558 H         1 UNK         0.0600 
    177 H177       -1.5145  -10.6263  -44.7542 H         1 UNK         0.0600 
    178 H178       -0.0788  -10.2416  -43.8186 H         1 UNK         0.0600 
    179 H179       -1.9690  -13.1384  -44.6997 H         1 UNK         0.3000 
    180 H180       -3.8655  -15.6831  -43.1224 H         1 UNK         0.0600 
    181 H181       -5.5979  -13.9862  -43.6812 H         1 UNK         0.0600 
    182 H182       -4.7530  -13.5780  -45.1674 H         1 UNK         0.0600 
    183 H183       -5.4562  -15.1816  -44.9597 H         1 UNK         0.0600 
    184 H184       -2.9523  -15.1497  -45.8168 H         1 UNK         0.3000 
    185 H185        0.1542  -16.8852  -45.5062 H         1 UNK         0.0600 
    186 H186       -1.5705  -18.6759  -45.8448 H         1 UNK         0.0600 
    187 H187       -2.4217  -17.6228  -46.9726 H         1 UNK         0.0600 
    188 H188       -0.8068  -18.2011  -47.3589 H         1 UNK         0.0600 
    189 H189       -1.1692  -15.6747  -47.7326 H         1 UNK         0.3000 
    190 H190       -0.8577  -21.7825  -44.7354 H         1 UNK         0.3000 
    191 H191       -3.3722  -20.3578  -45.0477 H         1 UNK         0.0600 
    192 H192       -3.5504  -20.6879  -42.5715 H         1 UNK         0.0600 
    193 H193       -2.0579  -19.9138  -43.0611 H         1 UNK         0.0600 
    194 H194       -2.0591  -21.6160  -42.5926 H         1 UNK         0.0600 
    195 H195       -2.3955  -23.7014  -44.2496 H         1 UNK         0.3000 
    196 H196       -4.9638  -24.8664  -44.0786 H         1 UNK         0.0600 
    197 H197       -3.7491  -27.0020  -44.4165 H         1 UNK         0.0600 
    198 H198       -2.8610  -25.9668  -43.3078 H         1 UNK         0.0600 
    199 H199       -2.3247  -26.1393  -44.9775 H         1 UNK         0.0600 
    200 H200       -2.9147  -24.2181  -46.9239 H         1 UNK         0.3000 
    201 H201       -4.7172  -25.3757  -48.8673 H         1 UNK         0.0600 
    202 H202       -2.2398  -25.2050  -49.2062 H         1 UNK         0.0600 
    203 H203       -2.3727  -23.4472  -49.2459 H         1 UNK         0.0600 
    204 H204       -3.1312  -24.4200  -50.4949 H         1 UNK         0.0600 
    205 H205       -6.1991  -23.7166  -47.2209 H         1 UNK         0.3000 
    206 H206       -7.7824  -22.1595  -47.1444 H         1 UNK         0.0600 
    207 H207       -8.6248  -23.5112  -49.0489 H         1 UNK         0.0600 
    208 H208       -9.0898  -21.8299  -49.2434 H         1 UNK         0.0600 
    209 H209       -7.7632  -22.4886  -50.1933 H         1 UNK         0.0600 
    210 H210       -5.3776  -21.0004  -46.7760 H         1 UNK         0.3000 
    211 H211       -4.1695  -19.1331  -46.7611 H         1 UNK         0.0600 
    212 H212       -6.7389  -17.6823  -47.5731 H         1 UNK         0.0600 
    213 H213       -5.3133  -16.9461  -46.8548 H         1 UNK         0.0600 
    214 H214       -6.2647  -18.0929  -45.9251 H         1 UNK         0.0600 
    215 H215       -3.5375  -20.5581  -48.7481 H         1 UNK         0.3000 
    216 H216       -2.4594  -20.7920  -50.6076 H         1 UNK         0.0600 
    217 H217       -2.3648  -17.7461  -50.8972 H         1 UNK         0.0600 
    218 H218       -1.3085  -18.9047  -51.6872 H         1 UNK         0.0600 
    219 H219       -1.2400  -18.7133  -49.9452 H         1 UNK         0.0600 
    220 H220       -5.6098  -19.9173  -50.7161 H         1 UNK         0.3000 
    221 H221       -5.9795  -19.3372  -53.5015 H         1 UNK         0.0600 
    222 H222       -7.9890  -20.5116  -51.5178 H         1 UNK         0.0600 
    223 H223       -7.6665  -18.7909  -51.7294 H         1 UNK         0.0600 
    224 H224       -8.3557  -19.7296  -53.0461 H         1 UNK         0.0600 
    225 H225       -5.7211  -22.3911  -51.6690 H         1 UNK         0.3000 
    226 H226       -6.4372  -24.0295  -54.0150 H         1 UNK         0.0600 
    227 H227       -7.0592  -24.7077  -51.6537 H         1 UNK         0.0600 
    228 H228       -6.1288  -25.9160  -52.5276 H         1 UNK         0.0600 
    229 H229       -5.3438  -24.9308  -51.3097 H         1 UNK         0.0600 
    230 H230       -3.5884  -22.6225  -52.5603 H         1 UNK         0.3000 
    231 H231       -1.6270  -24.3066  -53.8946 H         1 UNK         0.0600 
    232 H232       -1.2722  -21.5082  -52.6918 H         1 UNK         0.0600 
    233 H233       -1.1089  -23.0168  -51.7909 H         1 UNK         0.0600 
    234 H234       -0.0058  -22.6467  -53.1065 H         1 UNK         0.0600 
    235 H235       -3.3069  -21.2770  -54.5661 H         1 UNK         0.3000 
    236 H236       -3.9602  -20.2419  -56.3556 H         1 UNK         0.0600 
    237 H237       -4.4428  -22.4633  -57.3514 H         1 UNK         0.0600 
    238 H238       -3.9633  -21.3071  -58.5849 H         1 UNK         0.0600 
    239 H239       -2.8214  -22.5274  -58.0444 H         1 UNK         0.0600 
    240 H240       -0.5955  -21.1891  -56.4569 H         1 UNK         0.3000 
    241 H241        1.2815  -20.1118  -56.8338 H         1 UNK         0.0600 
    242 H242        1.9670  -18.8484  -60.2555 H         1 UNK         0.3800 
    243 H243        2.3555  -18.2758  -58.6610 H         1 UNK         0.3800 
    244 H244       -0.2243  -17.4635  -57.1270 H         1 UNK         0.0800 
    245 H245        1.4811  -17.6380  -56.8388 H         1 UNK         0.0800 
    246 H246        2.4028  -19.0707  -54.6636 H         1 UNK         0.0800 
    247 H247        2.4707  -17.3286  -54.5106 H         1 UNK         0.0800 
@<TRIPOS>BOND
     1    1    2 1    
     2    1  127 1    
     3    1  128 1    
     4    1  129 1    
     5    2    3 2    
     6    2    4 am   BACKBONE|DICT|INTERRES
     7    4    5 1    
     8    4  130 1    
     9    5    6 1    
    10    5   65 1    
    11    5  131 1    
    12    6    7 1    
    13    6  132 1    
    14    6  133 1    
    15    7    8 1    
    16    8    9 1    
    17    8  134 1    
    18    8  135 1    
    19    9   10 ar   
    20    9   14 ar   
    21   10   11 ar   
    22   10  136 1    
    23   11   12 ar   
    24   11  126 1    
    25   12   13 ar   
    26   12  137 1    
    27   13   14 ar   
    28   13   15 1    
    29   14  138 1    
    30   15   16 1    
    31   15  139 1    
    32   15  140 1    
    33   16   17 1    
    34   17   18 1    
    35   17  141 1    
    36   17  142 1    
    37   18   19 1    
    38   18   67 1    
    39   18  143 1    
    40   19   20 am   BACKBONE|DICT|INTERRES
    41   19  144 1    
    42   20   21 2    
    43   20   22 1    
    44   22   23 1    
    45   22   24 1    
    46   22  145 1    
    47   23  146 1    
    48   23  147 1    
    49   23  148 1    
    50   24   25 am   BACKBONE|DICT|INTERRES
    51   24  149 1    
    52   25   26 2    
    53   25   27 1    
    54   27   28 1    
    55   27   29 1    
    56   27  150 1    
    57   28  151 1    
    58   28  152 1    
    59   28  153 1    
    60   29   30 am   BACKBONE|DICT|INTERRES
    61   29  154 1    
    62   30   31 2    
    63   30   32 1    
    64   32   33 1    
    65   32   34 1    
    66   32  155 1    
    67   33  156 1    
    68   33  157 1    
    69   33  158 1    
    70   34   35 am   BACKBONE|DICT|INTERRES
    71   34  159 1    
    72   35   36 2    
    73   35   37 1    
    74   37   38 1    
    75   37   39 1    
    76   37  160 1    
    77   38  161 1    
    78   38  162 1    
    79   38  163 1    
    80   39   40 am   BACKBONE|DICT|INTERRES
    81   39  164 1    
    82   40   41 2    
    83   40   42 1    
    84   42   43 1    
    85   42   44 1    
    86   42  165 1    
    87   43  166 1    
    88   43  167 1    
    89   43  168 1    
    90   44   45 am   BACKBONE|DICT|INTERRES
    91   44  169 1    
    92   45   46 2    
    93   45   47 1    
    94   47   48 1    
    95   47   49 1    
    96   47  170 1    
    97   48  171 1    
    98   48  172 1    
    99   48  173 1    
   100   49   50 am   BACKBONE|DICT|INTERRES
   101   49  174 1    
   102   50   51 2    
   103   50   52 1    
   104   52   53 1    
   105   52   54 1    
   106   52  175 1    
   107   53  176 1    
   108   53  177 1    
   109   53  178 1    
   110   54   55 am   BACKBONE|DICT|INTERRES
   111   54  179 1    
   112   55   56 2    
   113   55   57 1    
   114   57   58 1    
   115   57   59 1    
   116   57  180 1    
   117   58  181 1    
   118   58  182 1    
   119   58  183 1    
   120   59   60 am   BACKBONE|DICT|INTERRES
   121   59  184 1    
   122   60   61 2    
   123   60   62 1    
   124   62   63 1    
   125   62   64 1    
   126   62  185 1    
   127   63  186 1    
   128   63  187 1    
   129   63  188 1    
   130   64   65 am   BACKBONE|DICT|INTERRES
   131   64  189 1    
   132   65   66 2    
   133   67   68 2    
   134   67   69 am   BACKBONE|DICT|INTERRES
   135   69   70 1    
   136   69  190 1    
   137   70   71 1    
   138   70   72 1    
   139   70  191 1    
   140   71  192 1    
   141   71  193 1    
   142   71  194 1    
   143   72   73 2    
   144   72   74 am   BACKBONE|DICT|INTERRES
   145   74   75 1    
   146   74  195 1    
   147   75   76 1    
   148   75   77 1    
   149   75  196 1    
   150   76  197 1    
   151   76  198 1    
   152   76  199 1    
   153   77   78 2    
   154   77   79 am   BACKBONE|DICT|INTERRES
   155   79   80 1    
   156   79  200 1    
   157   80   81 1    
   158   80   82 1    
   159   80  201 1    
   160   81  202 1    
   161   81  203 1    
   162   81  204 1    
   163   82   83 2    
   164   82   84 am   BACKBONE|DICT|INTERRES
   165   84   85 1    
   166   84  205 1    
   167   85   86 1    
   168   85   87 1    
   169   85  206 1    
   170   86  207 1    
   171   86  208 1    
   172   86  209 1    
   173   87   88 2    
   174   87   89 am   BACKBONE|DICT|INTERRES
   175   89   90 1    
   176   89  210 1    
   177   90   91 1    
   178   90   92 1    
   179   90  211 1    
   180   91  212 1    
   181   91  213 1    
   182   91  214 1    
   183   92   93 2    
   184   92   94 am   BACKBONE|DICT|INTERRES
   185   94   95 1    
   186   94  215 1    
   187   95   96 1    
   188   95   97 1    
   189   95  216 1    
   190   96  217 1    
   191   96  218 1    
   192   96  219 1    
   193   97   98 2    
   194   97   99 am   BACKBONE|DICT|INTERRES
   195   99  100 1    
   196   99  220 1    
   197  100  101 1    
   198  100  102 1    
   199  100  221 1    
   200  101  222 1    
   201  101  223 1    
   202  101  224 1    
   203  102  103 2    
   204  102  104 am   BACKBONE|DICT|INTERRES
   205  104  105 1    
   206  104  225 1    
   207  105  106 1    
   208  105  107 1    
   209  105  226 1    
   210  106  227 1    
   211  106  228 1    
   212  106  229 1    
   213  107  108 2    
   214  107  109 am   BACKBONE|DICT|INTERRES
   215  109  110 1    
   216  109  230 1    
   217  110  111 1    
   218  110  112 1    
   219  110  231 1    
   220  111  232 1    
   221  111  233 1    
   222  111  234 1    
   223  112  113 2    
   224  112  114 am   BACKBONE|DICT|INTERRES
   225  114  115 1    
   226  114  235 1    
   227  115  116 1    
   228  115  117 1    
   229  115  236 1    
   230  116  237 1    
   231  116  238 1    
   232  116  239 1    
   233  117  118 2    
   234  117  119 am   BACKBONE|DICT|INTERRES
   235  119  120 1    
   236  119  240 1    
   237  120  121 1    
   238  120  124 1    
   239  120  241 1    
   240  121  122 am   BACKBONE|DICT|INTERRES
   241  121  123 2    
   242  122  242 1    
   243  122  243 1    
   244  124  125 1    
   245  124  244 1    
   246  124  245 1    
   247  125  126 1    
   248  126  246 1    
   249  126  247 1    
@<TRIPOS>SUBSTRUCTURE
     1 UNK         1 GROUP             0       ****    0 ROOT    
