@<TRIPOS>MOLECULE
3R540
247   249    1
SMALL
USER_CHARGES


@<TRIPOS>ATOM
      1 CA          4.6281  -17.2729  -49.1241 C.3       0 UNK        -0.1800 
      2 C           3.8137  -16.8216  -47.9213 C.2       0 UNK         0.5000 
      3 O           3.8498  -17.4600  -46.8686 O.2       0 UNK        -0.5000 
      4 N           3.0829  -15.7130  -48.0719 N.am      1 UNK        -0.5000 
      5 CA          2.4022  -15.0067  -46.9858 C.3       1 UNK         0.1400 
      6 C6          1.0908  -14.3353  -47.4624 C.3       23 UNK        -0.0398 
      7 S7         -0.2465  -15.5537  -47.7080 S.3       23 UNK        -0.2404 
      8 C8         -0.6457  -15.4041  -49.4840 C.3       23 UNK        -0.0205 
      9 C9         -0.1130  -16.5104  -50.3987 C.ar      23 UNK        -0.0193 
     10 C10        -0.5658  -16.5294  -51.7201 C.ar      23 UNK        -0.1150 
     11 C11        -0.1512  -17.5188  -52.6150 C.ar      23 UNK        -0.0193 
     12 C12         0.7746  -18.4783  -52.1890 C.ar      23 UNK        -0.1150 
     13 C13         1.2423  -18.4813  -50.8697 C.ar      23 UNK        -0.0193 
     14 C14         0.7863  -17.5010  -49.9805 C.ar      23 UNK        -0.1150 
     15 C15         2.2787  -19.5038  -50.4067 C.3       23 UNK        -0.0205 
     16 S16         1.8082  -21.2435  -50.6870 S.3       23 UNK        -0.2404 
     17 C17         0.3858  -21.4518  -49.5674 C.3       23 UNK        -0.0398 
     18 CA          0.7083  -22.2197  -48.2613 C.3       11 UNK         0.1400 
     19 N           1.6990  -21.5059  -47.4529 N.am      11 UNK        -0.5000 
     20 C           2.7531  -22.0459  -46.8273 C.2       10 UNK         0.5000 
     21 O           3.0234  -23.2463  -46.8482 O.2       10 UNK        -0.5000 
     22 CA          3.6394  -21.0728  -46.0184 C.3       10 UNK         0.1400 
     23 CB          4.8768  -20.6763  -46.8356 C.3       10 UNK        -0.1800 
     24 N           2.9188  -19.8601  -45.6090 N.am      10 UNK        -0.5000 
     25 C           1.9217  -19.8616  -44.7151 C.2       9 UNK         0.5000 
     26 O           1.5951  -20.8643  -44.0778 O.2       9 UNK        -0.5000 
     27 CA          1.0916  -18.5702  -44.5982 C.3       9 UNK         0.1400 
     28 CB          0.0487  -18.5337  -45.7275 C.3       9 UNK        -0.1800 
     29 N           0.3932  -18.4906  -43.3144 N.am      9 UNK        -0.5000 
     30 C           0.9981  -18.2335  -42.1455 C.2       8 UNK         0.5000 
     31 O           2.1971  -17.9661  -42.0524 O.2       8 UNK        -0.5000 
     32 CA          0.1440  -18.2675  -40.8614 C.3       8 UNK         0.1400 
     33 CB          0.1065  -16.8859  -40.1937 C.3       8 UNK        -0.1800 
     34 N          -1.2320  -18.7067  -41.0959 N.am      8 UNK        -0.5000 
     35 C          -1.6536  -19.9741  -40.9840 C.2       7 UNK         0.5000 
     36 O          -0.9227  -20.9062  -40.6489 O.2       7 UNK        -0.5000 
     37 CA         -3.1394  -20.2626  -41.2888 C.3       7 UNK         0.1400 
     38 CB         -3.9261  -20.4582  -39.9836 C.3       7 UNK        -0.1800 
     39 N          -3.8039  -19.2307  -42.0870 N.am      7 UNK        -0.5000 
     40 C          -3.4980  -18.9175  -43.3519 C.2       6 UNK         0.5000 
     41 O          -2.6087  -19.4759  -43.9941 O.2       6 UNK        -0.5000 
     42 CA         -4.2712  -17.7546  -44.0041 C.3       6 UNK         0.1400 
     43 CB         -5.4520  -17.2172  -43.1637 C.3       6 UNK        -0.1800 
     44 N          -3.3591  -16.6667  -44.3695 N.am      6 UNK        -0.5000 
     45 C          -2.5549  -15.9778  -43.5470 C.2       5 UNK         0.5000 
     46 O          -2.5038  -16.1548  -42.3270 O.2       5 UNK        -0.5000 
     47 CA         -1.6459  -14.9345  -44.2165 C.3       5 UNK         0.1400 
     48 CB         -2.4335  -13.9752  -45.1294 C.3       5 UNK        -0.1800 
     49 N          -0.9285  -14.1425  -43.2184 N.am      5 UNK        -0.5000 
     50 C           0.3849  -13.9046  -43.2439 C.2       4 UNK         0.5000 
     51 O           1.1607  -14.4133  -44.0574 O.2       4 UNK        -0.5000 
     52 CA          0.9288  -12.9077  -42.2109 C.3       4 UNK         0.1400 
     53 CB          1.2574  -13.5891  -40.8724 C.3       4 UNK        -0.1800 
     54 N           2.1318  -12.3222  -42.7841 N.am      4 UNK        -0.5000 
     55 C           2.7106  -11.1672  -42.4474 C.2       3 UNK         0.5000 
     56 O           2.2973  -10.4415  -41.5414 O.2       3 UNK        -0.5000 
     57 CA          3.9311  -10.7267  -43.2870 C.3       3 UNK         0.1400 
     58 CB          5.0532  -10.1200  -42.4187 C.3       3 UNK        -0.1800 
     59 N           4.4565  -11.7644  -44.1882 N.am      3 UNK        -0.5000 
     60 C           5.0727  -12.9094  -43.8621 C.2       2 UNK         0.5000 
     61 O           5.2737  -13.2793  -42.7043 O.2       2 UNK        -0.5000 
     62 CA          5.5048  -13.7986  -45.0456 C.3       2 UNK         0.1400 
     63 CB          6.5847  -14.8209  -44.6489 C.3       2 UNK        -0.1800 
     64 N           4.3774  -14.5225  -45.6320 N.am      2 UNK        -0.5000 
     65 C           3.4090  -13.9991  -46.3948 C.2       1 UNK         0.5000 
     66 O           3.3413  -12.8028  -46.6857 O.2       1 UNK        -0.5000 
     67 C          -0.5839  -22.5027  -47.4547 C.2       11 UNK         0.5000 
     68 O          -1.6399  -22.7154  -48.0581 O.2       11 UNK        -0.5000 
     69 N          -0.5121  -22.4786  -46.1131 N.am      12 UNK        -0.5000 
     70 CA         -1.6422  -22.6480  -45.1874 C.3       12 UNK         0.1400 
     71 CB         -1.1382  -22.5715  -43.7405 C.3       12 UNK        -0.1800 
     72 C          -2.4576  -23.9388  -45.3879 C.2       12 UNK         0.5000 
     73 O          -3.6751  -23.9187  -45.2062 O.2       12 UNK        -0.5000 
     74 N          -1.7856  -25.0168  -45.8151 N.am      13 UNK        -0.5000 
     75 CA         -2.3824  -26.3159  -46.1410 C.3       13 UNK         0.1400 
     76 CB         -1.2548  -27.3156  -46.4401 C.3       13 UNK        -0.1800 
     77 C          -3.3884  -26.2749  -47.3115 C.2       13 UNK         0.5000 
     78 O          -4.2428  -27.1571  -47.4002 O.2       13 UNK        -0.5000 
     79 N          -3.2814  -25.2521  -48.1694 N.am      14 UNK        -0.5000 
     80 CA         -4.1817  -24.9800  -49.2886 C.3       14 UNK         0.1400 
     81 CB         -3.3642  -25.0024  -50.5908 C.3       14 UNK        -0.1800 
     82 C          -4.9342  -23.6488  -49.0869 C.2       14 UNK         0.5000 
     83 O          -5.3481  -23.0323  -50.0706 O.2       14 UNK        -0.5000 
     84 N          -5.0879  -23.2236  -47.8213 N.am      15 UNK        -0.5000 
     85 CA         -5.7694  -22.0054  -47.3682 C.3       15 UNK         0.1400 
     86 CB         -7.2818  -22.0862  -47.6667 C.3       15 UNK        -0.1800 
     87 C          -5.1110  -20.7269  -47.9232 C.2       15 UNK         0.5000 
     88 O          -5.7902  -19.8807  -48.5039 O.2       15 UNK        -0.5000 
     89 N          -3.7804  -20.6446  -47.7731 N.am      16 UNK        -0.5000 
     90 CA         -2.8935  -19.6314  -48.3602 C.3       16 UNK         0.1400 
     91 CB         -3.1695  -18.2275  -47.7891 C.3       16 UNK        -0.1800 
     92 C          -2.9089  -19.6958  -49.9013 C.2       16 UNK         0.5000 
     93 O          -2.9787  -18.6670  -50.5696 O.2       16 UNK        -0.5000 
     94 N          -2.8910  -20.9370  -50.4124 N.am      17 UNK        -0.5000 
     95 CA         -2.9710  -21.3477  -51.8186 C.3       17 UNK         0.1400 
     96 CB         -1.6893  -20.9878  -52.5911 C.3       17 UNK        -0.1800 
     97 C          -4.2461  -20.9155  -52.5663 C.2       17 UNK         0.5000 
     98 O          -4.2919  -21.0672  -53.7865 O.2       17 UNK        -0.5000 
     99 N          -5.2870  -20.4711  -51.8479 N.am      18 UNK        -0.5000 
    100 CA        -6.5976  -20.1354  -52.4081 C.3       18 UNK         0.1400 
    101 CB        -7.4701  -19.4992  -51.3173 C.3       18 UNK        -0.1800 
    102 C         -7.3111  -21.3526  -53.0278 C.2       18 UNK         0.5000 
    103 O         -8.0653  -21.1911  -53.9879 O.2       18 UNK        -0.5000 
    104 N         -7.0288  -22.5472  -52.4907 N.am      19 UNK        -0.5000 
    105 CA        -7.4930  -23.8336  -53.0064 C.3       19 UNK         0.1400 
    106 CB        -7.7278  -24.7749  -51.8122 C.3       19 UNK        -0.1800 
    107 C         -6.5077  -24.4636  -54.0156 C.2       19 UNK         0.5000 
    108 O         -6.7377  -25.5986  -54.4369 O.2       19 UNK        -0.5000 
    109 N         -5.4241  -23.7584  -54.3700 N.am      20 UNK        -0.5000 
    110 CA        -4.3458  -24.2541  -55.2196 C.3       20 UNK         0.1400 
    111 CB        -3.2551  -24.8995  -54.3369 C.3       20 UNK        -0.1800 
    112 C         -3.8406  -23.1304  -56.1438 C.2       20 UNK         0.5000 
    113 O         -4.6296  -22.5958  -56.9256 O.2       20 UNK        -0.5000 
    114 N         -2.5412  -22.8111  -56.0512 N.am      21 UNK        -0.5000 
    115 CA        -1.7588  -21.9619  -56.9569 C.3       21 UNK         0.1400 
    116 CB        -0.3055  -21.9236  -56.4557 C.3       21 UNK        -0.1800 
    117 C         -2.2740  -20.5285  -57.1979 C.2       21 UNK         0.5000 
    118 O         -1.8993  -19.9307  -58.2084 O.2       21 UNK        -0.5000 
    119 N         -3.1104  -20.0000  -56.3011 N.am      22 UNK        -0.5000 
    120 CA        -3.7595  -18.6892  -56.4373 C.3       22 UNK         0.1400 
    121 C         -5.2638  -18.7185  -56.0394 C.2       22 UNK         0.5000 
    122 N         -5.9298  -19.8665  -56.1089 N.am      22 UNK        -0.7600 
    123 O         -5.8492  -17.6936  -55.7003 O.2       22 UNK        -0.5000 
    124 C124       -2.9230  -17.5341  -55.8186 C.3       23 UNK        -0.0398 
    125 S125       -2.5295  -17.7353  -54.0471 S.3       23 UNK        -0.2404 
    126 C126       -0.7121  -17.5403  -54.0344 C.3       23 UNK        -0.0205 
    127 H127        4.1633  -16.9588  -50.0590 H         1 UNK         0.0600 
    128 H128        4.7280  -18.3563  -49.1422 H         1 UNK         0.0600 
    129 H129        5.6289  -16.8443  -49.0760 H         1 UNK         0.0600 
    130 H130        3.0991  -15.2299  -48.9586 H         1 UNK         0.3000 
    131 H131        2.1430  -15.7074  -46.1892 H         1 UNK         0.0600 
    132 H132        0.7306  -13.6306  -46.7107 H         1 UNK         0.0800 
    133 H133        1.2587  -13.7502  -48.3672 H         1 UNK         0.0800 
    134 H134       -1.7338  -15.4002  -49.5641 H         1 UNK         0.0800 
    135 H135       -0.3160  -14.4369  -49.8637 H         1 UNK         0.0800 
    136 H136       -1.2740  -15.7828  -52.0514 H         1 UNK         0.1150 
    137 H137        1.1192  -19.2367  -52.8777 H         1 UNK         0.1150 
    138 H138        1.1473  -17.5088  -48.9644 H         1 UNK         0.1150 
    139 H139        3.2091  -19.3126  -50.9423 H         1 UNK         0.0800 
    140 H140        2.5025  -19.3763  -49.3474 H         1 UNK         0.0800 
    141 H141       -0.3614  -22.0050  -50.1339 H         1 UNK         0.0800 
    142 H142       -0.0461  -20.4751  -49.3531 H         1 UNK         0.0800 
    143 H143        1.1054  -23.1966  -48.5441 H         1 UNK         0.0600 
    144 H144        1.5639  -20.5115  -47.3588 H         1 UNK         0.3000 
    145 H145        3.9748  -21.5933  -45.1189 H         1 UNK         0.0600 
    146 H146        5.5076  -19.9758  -46.2881 H         1 UNK         0.0600 
    147 H147        5.4855  -21.5506  -47.0695 H         1 UNK         0.0600 
    148 H148        4.5974  -20.2114  -47.7803 H         1 UNK         0.0600 
    149 H149        3.1841  -18.9932  -46.0739 H         1 UNK         0.3000 
    150 H150        1.7528  -17.7061  -44.6938 H         1 UNK         0.0600 
    151 H151        0.5286  -18.4411  -46.7020 H         1 UNK         0.0600 
    152 H152       -0.6273  -17.6878  -45.6181 H         1 UNK         0.0600 
    153 H153       -0.5602  -19.4386  -45.7445 H         1 UNK         0.0600 
    154 H154       -0.5791  -18.7713  -43.3116 H         1 UNK         0.3000 
    155 H155        0.6360  -18.9539  -40.1691 H         1 UNK         0.0600 
    156 H156       -0.3308  -16.1392  -40.8547 H         1 UNK         0.0600 
    157 H157        1.1103  -16.5501  -39.9315 H         1 UNK         0.0600 
    158 H158       -0.4788  -16.9054  -39.2743 H         1 UNK         0.0600 
    159 H159       -1.8863  -17.9899  -41.3909 H         1 UNK         0.3000 
    160 H160       -3.1813  -21.1955  -41.8530 H         1 UNK         0.0600 
    161 H161       -3.9399  -19.5479  -39.3828 H         1 UNK         0.0600 
    162 H162       -3.4834  -21.2471  -39.3739 H         1 UNK         0.0600 
    163 H163       -4.9584  -20.7459  -40.1834 H         1 UNK         0.0600 
    164 H164       -4.5237  -18.6968  -41.6221 H         1 UNK         0.3000 
    165 H165       -4.6844  -18.1484  -44.9336 H         1 UNK         0.0600 
    166 H166       -5.9862  -16.4362  -43.7050 H         1 UNK         0.0600 
    167 H167       -6.1744  -18.0058  -42.9494 H         1 UNK         0.0600 
    168 H168       -5.1286  -16.7917  -42.2132 H         1 UNK         0.0600 
    169 H169       -3.3118  -16.4616  -45.3566 H         1 UNK         0.3000 
    170 H170       -0.9389  -15.4953  -44.8283 H         1 UNK         0.0600 
    171 H171       -2.9058  -14.5034  -45.9582 H         1 UNK         0.0600 
    172 H172       -3.2159  -13.4497  -44.5807 H         1 UNK         0.0600 
    173 H173       -1.7746  -13.2267  -45.5700 H         1 UNK         0.0600 
    174 H174       -1.4943  -13.7669  -42.4699 H         1 UNK         0.3000 
    175 H175        0.1892  -12.1197  -42.0544 H         1 UNK         0.0600 
    176 H176        1.9317  -14.4355  -41.0093 H         1 UNK         0.0600 
    177 H177        1.7299  -12.8959  -40.1766 H         1 UNK         0.0600 
    178 H178        0.3503  -13.9532  -40.3908 H         1 UNK         0.0600 
    179 H179        2.5095  -12.8547  -43.5580 H         1 UNK         0.3000 
    180 H180        3.5640   -9.9333  -43.9395 H         1 UNK         0.0600 
    181 H181        5.8988   -9.8045  -43.0299 H         1 UNK         0.0600 
    182 H182        5.4204  -10.8278  -41.6752 H         1 UNK         0.0600 
    183 H183        4.6987   -9.2403  -41.8804 H         1 UNK         0.0600 
    184 H184        4.2587  -11.6208  -45.1729 H         1 UNK         0.3000 
    185 H185        5.9338  -13.1471  -45.8099 H         1 UNK         0.0600 
    186 H186        6.9373  -15.3780  -45.5172 H         1 UNK         0.0600 
    187 H187        7.4505  -14.3241  -44.2091 H         1 UNK         0.0600 
    188 H188        6.2120  -15.5408  -43.9191 H         1 UNK         0.0600 
    189 H189        4.3569  -15.5198  -45.4654 H         1 UNK         0.3000 
    190 H190        0.3826  -22.2853  -45.6834 H         1 UNK         0.3000 
    191 H191       -2.3256  -21.8128  -45.3501 H         1 UNK         0.0600 
    192 H192       -1.9232  -22.8334  -43.0306 H         1 UNK         0.0600 
    193 H193       -0.8143  -21.5611  -43.4956 H         1 UNK         0.0600 
    194 H194       -0.3005  -23.2474  -43.5659 H         1 UNK         0.0600 
    195 H195       -0.7878  -24.9343  -45.9437 H         1 UNK         0.3000 
    196 H196       -2.9247  -26.6630  -45.2591 H         1 UNK         0.0600 
    197 H197       -0.6613  -27.0057  -47.3012 H         1 UNK         0.0600 
    198 H198       -0.5831  -27.4205  -45.5879 H         1 UNK         0.0600 
    199 H199       -1.6570  -28.3060  -46.6580 H         1 UNK         0.0600 
    200 H200       -2.5633  -24.5538  -48.0083 H         1 UNK         0.3000 
    201 H201       -4.9506  -25.7511  -49.3631 H         1 UNK         0.0600 
    202 H202       -2.5386  -24.2916  -50.5564 H         1 UNK         0.0600 
    203 H203       -3.9855  -24.7631  -51.4543 H         1 UNK         0.0600 
    204 H204       -2.9399  -25.9910  -50.7660 H         1 UNK         0.0600 
    205 H205       -4.6892  -23.7890  -47.0804 H         1 UNK         0.3000 
    206 H206       -5.6491  -21.9673  -46.2844 H         1 UNK         0.0600 
    207 H207       -7.7208  -22.9844  -47.2328 H         1 UNK         0.0600 
    208 H208       -7.8091  -21.2305  -47.2437 H         1 UNK         0.0600 
    209 H209       -7.4867  -22.0980  -48.7377 H         1 UNK         0.0600 
    210 H210       -3.3085  -21.4340  -47.3532 H         1 UNK         0.3000 
    211 H211       -1.8820  -19.8937  -48.0542 H         1 UNK         0.0600 
    212 H212       -2.4631  -17.5021  -48.1915 H         1 UNK         0.0600 
    213 H213       -3.0505  -18.2261  -46.7077 H         1 UNK         0.0600 
    214 H214       -4.1716  -17.8712  -48.0267 H         1 UNK         0.0600 
    215 H215       -2.8647  -21.6987  -49.7473 H         1 UNK         0.3000 
    216 H216       -3.0312  -22.4339  -51.8068 H         1 UNK         0.0600 
    217 H217       -1.4584  -19.9337  -52.4805 H         1 UNK         0.0600 
    218 H218       -1.7813  -21.1887  -53.6576 H         1 UNK         0.0600 
    219 H219       -0.8323  -21.5602  -52.2460 H         1 UNK         0.0600 
    220 H220       -5.1906  -20.4050  -50.8434 H         1 UNK         0.3000 
    221 H221       -6.4432  -19.3980  -53.1981 H         1 UNK         0.0600 
    222 H222       -6.9900  -18.6176  -50.8919 H         1 UNK         0.0600 
    223 H223       -7.6678  -20.1985  -50.5040 H         1 UNK         0.0600 
    224 H224       -8.4327  -19.1841  -51.7216 H         1 UNK         0.0600 
    225 H225       -6.3992  -22.5862  -51.6931 H         1 UNK         0.3000 
    226 H226       -8.4458  -23.6989  -53.5221 H         1 UNK         0.0600 
    227 H227       -6.7939  -25.0245  -51.3080 H         1 UNK         0.0600 
    228 H228       -8.3953  -24.3241  -51.0775 H         1 UNK         0.0600 
    229 H229       -8.1857  -25.7110  -52.1340 H         1 UNK         0.0600 
    230 H230       -5.3228  -22.8003  -54.0519 H         1 UNK         0.3000 
    231 H231       -4.7329  -25.0247  -55.8893 H         1 UNK         0.0600 
    232 H232       -2.8238  -24.1853  -53.6348 H         1 UNK         0.0600 
    233 H233       -2.4464  -25.3128  -54.9410 H         1 UNK         0.0600 
    234 H234       -3.6652  -25.7259  -53.7561 H         1 UNK         0.0600 
    235 H235       -2.0021  -23.2961  -55.3498 H         1 UNK         0.3000 
    236 H236       -1.7647  -22.4584  -57.9291 H         1 UNK         0.0600 
    237 H237        0.1182  -22.9257  -56.3888 H         1 UNK         0.0600 
    238 H238        0.3286  -21.3518  -57.1347 H         1 UNK         0.0600 
    239 H239       -0.2304  -21.4591  -55.4721 H         1 UNK         0.0600 
    240 H240       -3.3957  -20.5386  -55.4879 H         1 UNK         0.3000 
    241 H241       -3.8214  -18.4623  -57.5031 H         1 UNK         0.0600 
    242 H242       -6.9023  -19.8987  -55.8456 H         1 UNK         0.3800 
    243 H243       -5.4621  -20.7174  -56.3980 H         1 UNK         0.3800 
    244 H244       -3.4336  -16.5791  -55.9501 H         1 UNK         0.0800 
    245 H245       -1.9910  -17.4403  -56.3770 H         1 UNK         0.0800 
    246 H246       -0.2664  -18.3504  -54.6139 H         1 UNK         0.0800 
    247 H247       -0.4431  -16.6088  -54.5339 H         1 UNK         0.0800 
@<TRIPOS>BOND
     1    1    2 1    
     2    1  127 1    
     3    1  128 1    
     4    1  129 1    
     5    2    3 2    
     6    2    4 am   BACKBONE|DICT|INTERRES
     7    4    5 1    
     8    4  130 1    
     9    5    6 1    
    10    5   65 1    
    11    5  131 1    
    12    6    7 1    
    13    6  132 1    
    14    6  133 1    
    15    7    8 1    
    16    8    9 1    
    17    8  134 1    
    18    8  135 1    
    19    9   10 ar   
    20    9   14 ar   
    21   10   11 ar   
    22   10  136 1    
    23   11   12 ar   
    24   11  126 1    
    25   12   13 ar   
    26   12  137 1    
    27   13   14 ar   
    28   13   15 1    
    29   14  138 1    
    30   15   16 1    
    31   15  139 1    
    32   15  140 1    
    33   16   17 1    
    34   17   18 1    
    35   17  141 1    
    36   17  142 1    
    37   18   19 1    
    38   18   67 1    
    39   18  143 1    
    40   19   20 am   BACKBONE|DICT|INTERRES
    41   19  144 1    
    42   20   21 2    
    43   20   22 1    
    44   22   23 1    
    45   22   24 1    
    46   22  145 1    
    47   23  146 1    
    48   23  147 1    
    49   23  148 1    
    50   24   25 am   BACKBONE|DICT|INTERRES
    51   24  149 1    
    52   25   26 2    
    53   25   27 1    
    54   27   28 1    
    55   27   29 1    
    56   27  150 1    
    57   28  151 1    
    58   28  152 1    
    59   28  153 1    
    60   29   30 am   BACKBONE|DICT|INTERRES
    61   29  154 1    
    62   30   31 2    
    63   30   32 1    
    64   32   33 1    
    65   32   34 1    
    66   32  155 1    
    67   33  156 1    
    68   33  157 1    
    69   33  158 1    
    70   34   35 am   BACKBONE|DICT|INTERRES
    71   34  159 1    
    72   35   36 2    
    73   35   37 1    
    74   37   38 1    
    75   37   39 1    
    76   37  160 1    
    77   38  161 1    
    78   38  162 1    
    79   38  163 1    
    80   39   40 am   BACKBONE|DICT|INTERRES
    81   39  164 1    
    82   40   41 2    
    83   40   42 1    
    84   42   43 1    
    85   42   44 1    
    86   42  165 1    
    87   43  166 1    
    88   43  167 1    
    89   43  168 1    
    90   44   45 am   BACKBONE|DICT|INTERRES
    91   44  169 1    
    92   45   46 2    
    93   45   47 1    
    94   47   48 1    
    95   47   49 1    
    96   47  170 1    
    97   48  171 1    
    98   48  172 1    
    99   48  173 1    
   100   49   50 am   BACKBONE|DICT|INTERRES
   101   49  174 1    
   102   50   51 2    
   103   50   52 1    
   104   52   53 1    
   105   52   54 1    
   106   52  175 1    
   107   53  176 1    
   108   53  177 1    
   109   53  178 1    
   110   54   55 am   BACKBONE|DICT|INTERRES
   111   54  179 1    
   112   55   56 2    
   113   55   57 1    
   114   57   58 1    
   115   57   59 1    
   116   57  180 1    
   117   58  181 1    
   118   58  182 1    
   119   58  183 1    
   120   59   60 am   BACKBONE|DICT|INTERRES
   121   59  184 1    
   122   60   61 2    
   123   60   62 1    
   124   62   63 1    
   125   62   64 1    
   126   62  185 1    
   127   63  186 1    
   128   63  187 1    
   129   63  188 1    
   130   64   65 am   BACKBONE|DICT|INTERRES
   131   64  189 1    
   132   65   66 2    
   133   67   68 2    
   134   67   69 am   BACKBONE|DICT|INTERRES
   135   69   70 1    
   136   69  190 1    
   137   70   71 1    
   138   70   72 1    
   139   70  191 1    
   140   71  192 1    
   141   71  193 1    
   142   71  194 1    
   143   72   73 2    
   144   72   74 am   BACKBONE|DICT|INTERRES
   145   74   75 1    
   146   74  195 1    
   147   75   76 1    
   148   75   77 1    
   149   75  196 1    
   150   76  197 1    
   151   76  198 1    
   152   76  199 1    
   153   77   78 2    
   154   77   79 am   BACKBONE|DICT|INTERRES
   155   79   80 1    
   156   79  200 1    
   157   80   81 1    
   158   80   82 1    
   159   80  201 1    
   160   81  202 1    
   161   81  203 1    
   162   81  204 1    
   163   82   83 2    
   164   82   84 am   BACKBONE|DICT|INTERRES
   165   84   85 1    
   166   84  205 1    
   167   85   86 1    
   168   85   87 1    
   169   85  206 1    
   170   86  207 1    
   171   86  208 1    
   172   86  209 1    
   173   87   88 2    
   174   87   89 am   BACKBONE|DICT|INTERRES
   175   89   90 1    
   176   89  210 1    
   177   90   91 1    
   178   90   92 1    
   179   90  211 1    
   180   91  212 1    
   181   91  213 1    
   182   91  214 1    
   183   92   93 2    
   184   92   94 am   BACKBONE|DICT|INTERRES
   185   94   95 1    
   186   94  215 1    
   187   95   96 1    
   188   95   97 1    
   189   95  216 1    
   190   96  217 1    
   191   96  218 1    
   192   96  219 1    
   193   97   98 2    
   194   97   99 am   BACKBONE|DICT|INTERRES
   195   99  100 1    
   196   99  220 1    
   197  100  101 1    
   198  100  102 1    
   199  100  221 1    
   200  101  222 1    
   201  101  223 1    
   202  101  224 1    
   203  102  103 2    
   204  102  104 am   BACKBONE|DICT|INTERRES
   205  104  105 1    
   206  104  225 1    
   207  105  106 1    
   208  105  107 1    
   209  105  226 1    
   210  106  227 1    
   211  106  228 1    
   212  106  229 1    
   213  107  108 2    
   214  107  109 am   BACKBONE|DICT|INTERRES
   215  109  110 1    
   216  109  230 1    
   217  110  111 1    
   218  110  112 1    
   219  110  231 1    
   220  111  232 1    
   221  111  233 1    
   222  111  234 1    
   223  112  113 2    
   224  112  114 am   BACKBONE|DICT|INTERRES
   225  114  115 1    
   226  114  235 1    
   227  115  116 1    
   228  115  117 1    
   229  115  236 1    
   230  116  237 1    
   231  116  238 1    
   232  116  239 1    
   233  117  118 2    
   234  117  119 am   BACKBONE|DICT|INTERRES
   235  119  120 1    
   236  119  240 1    
   237  120  121 1    
   238  120  124 1    
   239  120  241 1    
   240  121  122 am   BACKBONE|DICT|INTERRES
   241  121  123 2    
   242  122  242 1    
   243  122  243 1    
   244  124  125 1    
   245  124  244 1    
   246  124  245 1    
   247  125  126 1    
   248  126  246 1    
   249  126  247 1    
@<TRIPOS>SUBSTRUCTURE
     1 UNK         1 GROUP             0       ****    0 ROOT    
