@<TRIPOS>MOLECULE
3R540
247   249    1
SMALL
USER_CHARGES


@<TRIPOS>ATOM
      1 CA          6.5139  -14.8762  -44.8360 C.3       0 UNK        -0.1800 
      2 C           5.1573  -14.5466  -45.4407 C.2       0 UNK         0.5000 
      3 O           4.2280  -14.2059  -44.7095 O.2       0 UNK        -0.5000 
      4 N           5.0422  -14.6379  -46.7723 N.am      1 UNK        -0.5000 
      5 CA          3.8358  -14.3433  -47.5532 C.3       1 UNK         0.1400 
      6 C6          3.8589  -15.0878  -48.9131 C.3       23 UNK        -0.0398 
      7 S7          2.2051  -15.2506  -49.6733 S.3       23 UNK        -0.2404 
      8 C8          1.7553  -16.9536  -49.2160 C.3       23 UNK        -0.0205 
      9 C9          0.5491  -17.4376  -50.0049 C.ar      23 UNK        -0.0193 
     10 C10         0.7261  -18.0469  -51.2504 C.ar      23 UNK        -0.1150 
     11 C11        -0.3757  -18.4849  -51.9904 C.ar      23 UNK        -0.0193 
     12 C12        -1.6635  -18.3173  -51.4711 C.ar      23 UNK        -0.1150 
     13 C13        -1.8540  -17.7140  -50.2242 C.ar      23 UNK        -0.0193 
     14 C14        -0.7426  -17.2749  -49.4965 C.ar      23 UNK        -0.1150 
     15 C15        -3.2616  -17.5087  -49.6792 C.3       23 UNK        -0.0205 
     16 S16        -3.9627  -19.0270  -48.9556 S.3       23 UNK        -0.2404 
     17 C17        -2.8463  -19.3174  -47.5446 C.3       23 UNK        -0.0398 
     18 CA         -1.8781  -20.4982  -47.8044 C.3       11 UNK         0.1400 
     19 N          -0.6016  -20.3391  -47.1022 N.am      11 UNK        -0.5000 
     20 C           0.4655  -21.1333  -47.2693 C.2       10 UNK         0.5000 
     21 O           0.5017  -22.0676  -48.0670 O.2       10 UNK        -0.5000 
     22 CA          1.6771  -20.8912  -46.3527 C.3       10 UNK         0.1400 
     23 CB          2.5532  -19.7485  -46.8835 C.3       10 UNK        -0.1800 
     24 N           1.2878  -20.6200  -44.9695 N.am      10 UNK        -0.5000 
     25 C           0.6533  -21.4944  -44.1753 C.2       9 UNK         0.5000 
     26 O           0.3877  -22.6496  -44.5079 O.2       9 UNK        -0.5000 
     27 CA          0.1875  -20.9725  -42.8026 C.3       9 UNK         0.1400 
     28 CB          1.3517  -20.9352  -41.8020 C.3       9 UNK        -0.1800 
     29 N          -0.4310  -19.6482  -42.8902 N.am      9 UNK        -0.5000 
     30 C          -1.5559  -19.3821  -43.5706 C.2       8 UNK         0.5000 
     31 O          -2.2256  -20.2355  -44.1517 O.2       8 UNK        -0.5000 
     32 CA         -1.9694  -17.9050  -43.6712 C.3       8 UNK         0.1400 
     33 CB         -2.7435  -17.4588  -42.4220 C.3       8 UNK        -0.1800 
     34 N          -0.8163  -17.0308  -43.8809 N.am      8 UNK        -0.5000 
     35 C          -0.0809  -17.0108  -45.0014 C.2       7 UNK         0.5000 
     36 O          -0.3147  -17.7065  -45.9870 O.2       7 UNK        -0.5000 
     37 CA          1.1473  -16.0911  -45.0045 C.3       7 UNK         0.1400 
     38 CB          0.7223  -14.6466  -45.2987 C.3       7 UNK        -0.1800 
     39 N           1.8775  -16.1500  -43.7400 N.am      7 UNK        -0.5000 
     40 C           2.5423  -17.2326  -43.3065 C.2       6 UNK         0.5000 
     41 O           2.6339  -18.2749  -43.9532 O.2       6 UNK        -0.5000 
     42 CA          3.1689  -17.1730  -41.8990 C.3       6 UNK         0.1400 
     43 CB          4.6369  -16.7312  -41.9815 C.3       6 UNK        -0.1800 
     44 N           2.4563  -16.2856  -40.9822 N.am      6 UNK        -0.5000 
     45 C           1.1666  -16.3957  -40.6338 C.2       5 UNK         0.5000 
     46 O           0.4509  -17.3426  -40.9636 O.2       5 UNK        -0.5000 
     47 CA          0.5640  -15.2191  -39.8371 C.3       5 UNK         0.1400 
     48 CB          0.4576  -15.5788  -38.3480 C.3       5 UNK        -0.1800 
     49 N           1.3127  -13.9613  -39.9767 N.am      5 UNK        -0.5000 
     50 C           1.4925  -13.2930  -41.1256 C.2       4 UNK         0.5000 
     51 O           1.0376  -13.6671  -42.2082 O.2       4 UNK        -0.5000 
     52 CA          2.4115  -12.0592  -41.0572 C.3       4 UNK         0.1400 
     53 CB          3.8822  -12.4959  -41.1628 C.3       4 UNK        -0.1800 
     54 N           2.1425  -11.0909  -42.1195 N.am      4 UNK        -0.5000 
     55 C           1.0367  -10.3421  -42.2281 C.2       3 UNK         0.5000 
     56 O           0.1141  -10.3684  -41.4118 O.2       3 UNK        -0.5000 
     57 CA          0.9562   -9.3726  -43.4269 C.3       3 UNK         0.1400 
     58 CB          1.1299   -7.9202  -42.9538 C.3       3 UNK        -0.1800 
     59 N           1.9529   -9.6455  -44.4678 N.am      3 UNK        -0.5000 
     60 C           1.8330  -10.5929  -45.4065 C.2       2 UNK         0.5000 
     61 O           0.8440  -11.3201  -45.5075 O.2       2 UNK        -0.5000 
     62 CA          2.9985  -10.7641  -46.3992 C.3       2 UNK         0.1400 
     63 CB          4.2960  -10.0319  -45.9964 C.3       2 UNK        -0.1800 
     64 N           3.2735  -12.1879  -46.5491 N.am      2 UNK        -0.5000 
     65 C           3.6242  -12.8149  -47.6751 C.2       1 UNK         0.5000 
     66 O           3.8157  -12.2362  -48.7464 O.2       1 UNK        -0.5000 
     67 C          -2.5516  -21.8477  -47.4807 C.2       11 UNK         0.5000 
     68 O          -3.0152  -22.5340  -48.3914 O.2       11 UNK        -0.5000 
     69 N          -2.5701  -22.2263  -46.1956 N.am      12 UNK        -0.5000 
     70 CA         -3.0887  -23.5089  -45.7182 C.3       12 UNK         0.1400 
     71 CB         -3.0911  -23.5244  -44.1827 C.3       12 UNK        -0.1800 
     72 C          -2.3168  -24.7174  -46.2809 C.2       12 UNK         0.5000 
     73 O          -2.9332  -25.7369  -46.5893 O.2       12 UNK        -0.5000 
     74 N          -0.9934  -24.5735  -46.4195 N.am      13 UNK        -0.5000 
     75 CA         -0.1027  -25.5936  -46.9619 C.3       13 UNK         0.1400 
     76 CB          1.3324  -25.3192  -46.4822 C.3       13 UNK        -0.1800 
     77 C          -0.1656  -25.6875  -48.4979 C.2       13 UNK         0.5000 
     78 O          -0.4614  -26.7585  -49.0288 O.2       13 UNK        -0.5000 
     79 N           0.1570  -24.5844  -49.1850 N.am      14 UNK        -0.5000 
     80 CA          0.4311  -24.5653  -50.6226 C.3       14 UNK         0.1400 
     81 CB          1.4628  -23.4669  -50.9226 C.3       14 UNK        -0.1800 
     82 C          -0.8236  -24.3675  -51.4857 C.2       14 UNK         0.5000 
     83 O          -0.9034  -24.9536  -52.5659 O.2       14 UNK        -0.5000 
     84 N          -1.7734  -23.5538  -51.0085 N.am      15 UNK        -0.5000 
     85 CA         -3.0072  -23.2245  -51.7270 C.3       15 UNK         0.1400 
     86 CB         -3.2614  -21.7115  -51.6283 C.3       15 UNK        -0.1800 
     87 C          -4.2208  -24.0076  -51.2015 C.2       15 UNK         0.5000 
     88 O          -5.3282  -23.7789  -51.6858 O.2       15 UNK        -0.5000 
     89 N          -4.0133  -24.8726  -50.1964 N.am      16 UNK        -0.5000 
     90 CA         -5.0317  -25.6440  -49.4743 C.3       16 UNK         0.1400 
     91 CB         -5.5963  -26.7656  -50.3692 C.3       16 UNK        -0.1800 
     92 C          -6.1260  -24.7468  -48.8526 C.2       16 UNK         0.5000 
     93 O          -7.3089  -25.0871  -48.9017 O.2       16 UNK        -0.5000 
     94 N          -5.6915  -23.6035  -48.3004 N.am      17 UNK        -0.5000 
     95 CA         -6.4977  -22.5153  -47.7420 C.3       17 UNK         0.1400 
     96 CB         -7.3457  -22.9896  -46.5430 C.3       17 UNK        -0.1800 
     97 C          -7.3085  -21.7892  -48.8340 C.2       17 UNK         0.5000 
     98 O          -8.5281  -21.6520  -48.7233 O.2       17 UNK        -0.5000 
     99 N          -6.5848  -21.3263  -49.8637 N.am      18 UNK        -0.5000 
    100 CA        -7.0555  -20.5197  -50.9948 C.3       18 UNK         0.1400 
    101 CB        -7.5647  -19.1429  -50.5171 C.3       18 UNK        -0.1800 
    102 C         -8.0640  -21.2500  -51.9060 C.2       18 UNK         0.5000 
    103 O         -9.0080  -20.6329  -52.4043 O.2       18 UNK        -0.5000 
    104 N         -7.8286  -22.5434  -52.1569 N.am      19 UNK        -0.5000 
    105 CA        -8.6014  -23.3747  -53.0794 C.3       19 UNK         0.1400 
    106 CB        -8.4646  -24.8472  -52.6556 C.3       19 UNK        -0.1800 
    107 C         -8.1375  -23.1261  -54.5292 C.2       19 UNK         0.5000 
    108 O         -7.4665  -23.9729  -55.1207 O.2       19 UNK        -0.5000 
    109 N         -8.4812  -21.9393  -55.0514 N.am      20 UNK        -0.5000 
    110 CA        -8.0713  -21.3809  -56.3474 C.3       20 UNK         0.1400 
    111 CB        -8.5676  -22.2485  -57.5239 C.3       20 UNK        -0.1800 
    112 C         -6.5595  -21.0657  -56.4096 C.2       20 UNK         0.5000 
    113 O         -5.9348  -21.2171  -57.4616 O.2       20 UNK        -0.5000 
    114 N         -6.0176  -20.6022  -55.2726 N.am      21 UNK        -0.5000 
    115 CA        -4.6211  -20.2223  -55.0323 C.3       21 UNK         0.1400 
    116 CB        -4.2338  -18.9988  -55.8934 C.3       21 UNK        -0.1800 
    117 C         -3.6330  -21.4044  -55.1667 C.2       21 UNK         0.5000 
    118 O         -4.0369  -22.5651  -55.0828 O.2       21 UNK        -0.5000 
    119 N         -2.3435  -21.0836  -55.3215 N.am      22 UNK        -0.5000 
    120 CA        -1.2317  -22.0460  -55.4268 C.3       22 UNK         0.1400 
    121 C         -1.0955  -22.7248  -56.8239 C.2       22 UNK         0.5000 
    122 N         -1.8958  -22.3744  -57.8236 N.am      22 UNK        -0.7600 
    123 O         -0.2478  -23.5944  -57.0055 O.2       22 UNK        -0.5000 
    124 C124        0.1130  -21.4084  -54.9835 C.3       23 UNK        -0.0398 
    125 S125        0.1153  -20.9050  -53.2293 S.3       23 UNK        -0.2404 
    126 C126       -0.1739  -19.1149  -53.3597 C.3       23 UNK        -0.0205 
    127 H127        7.2858  -14.9691  -45.6002 H         1 UNK         0.0600 
    128 H128        6.4615  -15.8162  -44.2878 H         1 UNK         0.0600 
    129 H129        6.8161  -14.0915  -44.1424 H         1 UNK         0.0600 
    130 H130        5.8574  -14.8886  -47.3135 H         1 UNK         0.3000 
    131 H131        2.9878  -14.7382  -46.9941 H         1 UNK         0.0600 
    132 H132        4.5276  -14.5965  -49.6220 H         1 UNK         0.0800 
    133 H133        4.2701  -16.0892  -48.7788 H         1 UNK         0.0800 
    134 H134        1.5411  -16.9877  -48.1482 H         1 UNK         0.0800 
    135 H135        2.5973  -17.6249  -49.3907 H         1 UNK         0.0800 
    136 H136        1.7229  -18.1718  -51.6496 H         1 UNK         0.1150 
    137 H137       -2.5206  -18.6509  -52.0387 H         1 UNK         0.1150 
    138 H138       -0.8804  -16.7996  -48.5354 H         1 UNK         0.1150 
    139 H139       -3.2724  -16.7137  -48.9320 H         1 UNK         0.0800 
    140 H140       -3.9149  -17.1730  -50.4858 H         1 UNK         0.0800 
    141 H141       -3.4401  -19.4690  -46.6413 H         1 UNK         0.0800 
    142 H142       -2.2922  -18.3986  -47.3668 H         1 UNK         0.0800 
    143 H143       -1.6275  -20.5093  -48.8679 H         1 UNK         0.0600 
    144 H144       -0.5253  -19.5459  -46.4719 H         1 UNK         0.3000 
    145 H145        2.2773  -21.8033  -46.3567 H         1 UNK         0.0600 
    146 H146        3.4864  -19.6779  -46.3246 H         1 UNK         0.0600 
    147 H147        2.8102  -19.9022  -47.9323 H         1 UNK         0.0600 
    148 H148        2.0461  -18.7889  -46.8017 H         1 UNK         0.0600 
    149 H149        1.5281  -19.7029  -44.6036 H         1 UNK         0.3000 
    150 H150       -0.5656  -21.6651  -42.4212 H         1 UNK         0.0600 
    151 H151        1.7744  -21.9308  -41.6619 H         1 UNK         0.0600 
    152 H152        1.0230  -20.5796  -40.8252 H         1 UNK         0.0600 
    153 H153        2.1564  -20.2846  -42.1427 H         1 UNK         0.0600 
    154 H154        0.0377  -18.8855  -42.4152 H         1 UNK         0.3000 
    155 H155       -2.6318  -17.8028  -44.5335 H         1 UNK         0.0600 
    156 H156       -2.1415  -17.5435  -41.5173 H         1 UNK         0.0600 
    157 H157       -3.6346  -18.0713  -42.2793 H         1 UNK         0.0600 
    158 H158       -3.0721  -16.4232  -42.5107 H         1 UNK         0.0600 
    159 H159       -0.5225  -16.4652  -43.0976 H         1 UNK         0.3000 
    160 H160        1.8229  -16.4234  -45.7941 H         1 UNK         0.0600 
    161 H161       -0.0606  -14.3053  -44.6204 H         1 UNK         0.0600 
    162 H162        0.3401  -14.5508  -46.3157 H         1 UNK         0.0600 
    163 H163        1.5596  -13.9599  -45.1949 H         1 UNK         0.0600 
    164 H164        1.8291  -15.3235  -43.1540 H         1 UNK         0.3000 
    165 H165        3.1358  -18.1795  -41.4787 H         1 UNK         0.0600 
    166 H166        5.1203  -16.7814  -41.0057 H         1 UNK         0.0600 
    167 H167        5.2014  -17.3756  -42.6566 H         1 UNK         0.0600 
    168 H168        4.7273  -15.7082  -42.3489 H         1 UNK         0.0600 
    169 H169        2.9619  -15.4749  -40.6595 H         1 UNK         0.3000 
    170 H170       -0.4437  -15.0517  -40.2229 H         1 UNK         0.0600 
    171 H171       -0.1173  -16.4953  -38.2075 H         1 UNK         0.0600 
    172 H172        1.4399  -15.7357  -37.9006 H         1 UNK         0.0600 
    173 H173       -0.0468  -14.7921  -37.7866 H         1 UNK         0.0600 
    174 H174        1.7317  -13.5987  -39.1321 H         1 UNK         0.3000 
    175 H175        2.2578  -11.5625  -40.0969 H         1 UNK         0.0600 
    176 H176        4.0852  -12.9987  -42.1098 H         1 UNK         0.0600 
    177 H177        4.5545  -11.6411  -41.0870 H         1 UNK         0.0600 
    178 H178        4.1486  -13.1861  -40.3615 H         1 UNK         0.0600 
    179 H179        2.8316  -11.0250  -42.8521 H         1 UNK         0.3000 
    180 H180       -0.0426   -9.4703  -43.8577 H         1 UNK         0.0600 
    181 H181        2.1122   -7.7562  -42.5090 H         1 UNK         0.0600 
    182 H182        0.3823   -7.6603  -42.2031 H         1 UNK         0.0600 
    183 H183        1.0135   -7.2193  -43.7807 H         1 UNK         0.0600 
    184 H184        2.7897   -9.0801  -44.4510 H         1 UNK         0.3000 
    185 H185        2.6515  -10.3579  -47.3514 H         1 UNK         0.0600 
    186 H186        4.1465   -8.9530  -45.9426 H         1 UNK         0.0600 
    187 H187        4.6696  -10.3727  -45.0298 H         1 UNK         0.0600 
    188 H188        5.0832  -10.2039  -46.7309 H         1 UNK         0.0600 
    189 H189        3.1840  -12.7472  -45.7066 H         1 UNK         0.3000 
    190 H190       -2.2175  -21.5865  -45.4879 H         1 UNK         0.3000 
    191 H191       -4.1236  -23.5950  -46.0500 H         1 UNK         0.0600 
    192 H192       -2.0854  -23.4204  -43.7758 H         1 UNK         0.0600 
    193 H193       -3.5046  -24.4592  -43.8024 H         1 UNK         0.0600 
    194 H194       -3.6988  -22.7128  -43.7821 H         1 UNK         0.0600 
    195 H195       -0.5630  -23.7144  -46.0965 H         1 UNK         0.3000 
    196 H196       -0.4028  -26.5634  -46.5590 H         1 UNK         0.0600 
    197 H197        2.0261  -26.0633  -46.8754 H         1 UNK         0.0600 
    198 H198        1.3955  -25.3578  -45.3945 H         1 UNK         0.0600 
    199 H199        1.6872  -24.3378  -46.7987 H         1 UNK         0.0600 
    200 H200        0.3369  -23.7152  -48.6827 H         1 UNK         0.3000 
    201 H201        0.8788  -25.5199  -50.9082 H         1 UNK         0.0600 
    202 H202        2.3806  -23.6204  -50.3549 H         1 UNK         0.0600 
    203 H203        1.0793  -22.4757  -50.6774 H         1 UNK         0.0600 
    204 H204        1.7301  -23.4604  -51.9801 H         1 UNK         0.0600 
    205 H205       -1.6593  -23.1342  -50.0943 H         1 UNK         0.3000 
    206 H206       -2.9085  -23.4740  -52.7844 H         1 UNK         0.0600 
    207 H207       -2.4375  -21.1438  -52.0525 H         1 UNK         0.0600 
    208 H208       -4.1588  -21.4314  -52.1770 H         1 UNK         0.0600 
    209 H209       -3.3939  -21.3828  -50.6011 H         1 UNK         0.0600 
    210 H210       -3.0687  -24.9566  -49.8490 H         1 UNK         0.3000 
    211 H211       -4.5225  -26.1237  -48.6390 H         1 UNK         0.0600 
    212 H212       -6.1481  -26.3665  -51.2188 H         1 UNK         0.0600 
    213 H213       -6.2763  -27.4088  -49.8096 H         1 UNK         0.0600 
    214 H214       -4.7978  -27.3982  -50.7566 H         1 UNK         0.0600 
    215 H215       -4.6957  -23.4062  -48.3667 H         1 UNK         0.3000 
    216 H216       -5.7867  -21.7822  -47.3575 H         1 UNK         0.0600 
    217 H217       -7.8321  -22.1437  -46.0560 H         1 UNK         0.0600 
    218 H218       -6.7279  -23.4839  -45.7934 H         1 UNK         0.0600 
    219 H219       -8.1305  -23.6841  -46.8428 H         1 UNK         0.0600 
    220 H220       -5.5955  -21.5267  -49.8607 H         1 UNK         0.3000 
    221 H221       -6.1784  -20.3340  -51.6146 H         1 UNK         0.0600 
    222 H222       -8.4866  -19.2284  -49.9414 H         1 UNK         0.0600 
    223 H223       -6.8261  -18.6410  -49.8929 H         1 UNK         0.0600 
    224 H224       -7.7690  -18.4861  -51.3634 H         1 UNK         0.0600 
    225 H225       -6.9814  -22.9723  -51.7876 H         1 UNK         0.3000 
    226 H226       -9.6582  -23.1079  -53.0098 H         1 UNK         0.0600 
    227 H227       -8.7771  -24.9926  -51.6212 H         1 UNK         0.0600 
    228 H228       -9.0846  -25.4914  -53.2799 H         1 UNK         0.0600 
    229 H229       -7.4359  -25.1956  -52.7455 H         1 UNK         0.0600 
    230 H230       -9.0062  -21.3123  -54.4512 H         1 UNK         0.3000 
    231 H231       -8.5758  -20.4170  -56.4272 H         1 UNK         0.0600 
    232 H232       -9.6350  -22.4532  -57.4411 H         1 UNK         0.0600 
    233 H233       -8.0445  -23.2035  -57.5766 H         1 UNK         0.0600 
    234 H234       -8.4087  -21.7401  -58.4755 H         1 UNK         0.0600 
    235 H235       -6.6250  -20.5517  -54.4695 H         1 UNK         0.3000 
    236 H236       -4.5763  -19.9095  -53.9887 H         1 UNK         0.0600 
    237 H237       -4.1210  -19.2610  -56.9459 H         1 UNK         0.0600 
    238 H238       -4.9911  -18.2174  -55.8264 H         1 UNK         0.0600 
    239 H239       -3.2954  -18.5547  -55.5603 H         1 UNK         0.0600 
    240 H240       -2.0920  -20.1110  -55.4045 H         1 UNK         0.3000 
    241 H241       -1.4399  -22.8642  -54.7345 H         1 UNK         0.0600 
    242 H242       -1.7973  -22.8265  -58.7192 H         1 UNK         0.3800 
    243 H243       -2.6185  -21.6859  -57.6870 H         1 UNK         0.3800 
    244 H244        0.3657  -20.5566  -55.6167 H         1 UNK         0.0800 
    245 H245        0.9301  -22.1223  -55.1012 H         1 UNK         0.0800 
    246 H246       -1.0472  -18.9249  -53.9835 H         1 UNK         0.0800 
    247 H247        0.6733  -18.6476  -53.8642 H         1 UNK         0.0800 
@<TRIPOS>BOND
     1    1    2 1    
     2    1  127 1    
     3    1  128 1    
     4    1  129 1    
     5    2    3 2    
     6    2    4 am   BACKBONE|DICT|INTERRES
     7    4    5 1    
     8    4  130 1    
     9    5    6 1    
    10    5   65 1    
    11    5  131 1    
    12    6    7 1    
    13    6  132 1    
    14    6  133 1    
    15    7    8 1    
    16    8    9 1    
    17    8  134 1    
    18    8  135 1    
    19    9   10 ar   
    20    9   14 ar   
    21   10   11 ar   
    22   10  136 1    
    23   11   12 ar   
    24   11  126 1    
    25   12   13 ar   
    26   12  137 1    
    27   13   14 ar   
    28   13   15 1    
    29   14  138 1    
    30   15   16 1    
    31   15  139 1    
    32   15  140 1    
    33   16   17 1    
    34   17   18 1    
    35   17  141 1    
    36   17  142 1    
    37   18   19 1    
    38   18   67 1    
    39   18  143 1    
    40   19   20 am   BACKBONE|DICT|INTERRES
    41   19  144 1    
    42   20   21 2    
    43   20   22 1    
    44   22   23 1    
    45   22   24 1    
    46   22  145 1    
    47   23  146 1    
    48   23  147 1    
    49   23  148 1    
    50   24   25 am   BACKBONE|DICT|INTERRES
    51   24  149 1    
    52   25   26 2    
    53   25   27 1    
    54   27   28 1    
    55   27   29 1    
    56   27  150 1    
    57   28  151 1    
    58   28  152 1    
    59   28  153 1    
    60   29   30 am   BACKBONE|DICT|INTERRES
    61   29  154 1    
    62   30   31 2    
    63   30   32 1    
    64   32   33 1    
    65   32   34 1    
    66   32  155 1    
    67   33  156 1    
    68   33  157 1    
    69   33  158 1    
    70   34   35 am   BACKBONE|DICT|INTERRES
    71   34  159 1    
    72   35   36 2    
    73   35   37 1    
    74   37   38 1    
    75   37   39 1    
    76   37  160 1    
    77   38  161 1    
    78   38  162 1    
    79   38  163 1    
    80   39   40 am   BACKBONE|DICT|INTERRES
    81   39  164 1    
    82   40   41 2    
    83   40   42 1    
    84   42   43 1    
    85   42   44 1    
    86   42  165 1    
    87   43  166 1    
    88   43  167 1    
    89   43  168 1    
    90   44   45 am   BACKBONE|DICT|INTERRES
    91   44  169 1    
    92   45   46 2    
    93   45   47 1    
    94   47   48 1    
    95   47   49 1    
    96   47  170 1    
    97   48  171 1    
    98   48  172 1    
    99   48  173 1    
   100   49   50 am   BACKBONE|DICT|INTERRES
   101   49  174 1    
   102   50   51 2    
   103   50   52 1    
   104   52   53 1    
   105   52   54 1    
   106   52  175 1    
   107   53  176 1    
   108   53  177 1    
   109   53  178 1    
   110   54   55 am   BACKBONE|DICT|INTERRES
   111   54  179 1    
   112   55   56 2    
   113   55   57 1    
   114   57   58 1    
   115   57   59 1    
   116   57  180 1    
   117   58  181 1    
   118   58  182 1    
   119   58  183 1    
   120   59   60 am   BACKBONE|DICT|INTERRES
   121   59  184 1    
   122   60   61 2    
   123   60   62 1    
   124   62   63 1    
   125   62   64 1    
   126   62  185 1    
   127   63  186 1    
   128   63  187 1    
   129   63  188 1    
   130   64   65 am   BACKBONE|DICT|INTERRES
   131   64  189 1    
   132   65   66 2    
   133   67   68 2    
   134   67   69 am   BACKBONE|DICT|INTERRES
   135   69   70 1    
   136   69  190 1    
   137   70   71 1    
   138   70   72 1    
   139   70  191 1    
   140   71  192 1    
   141   71  193 1    
   142   71  194 1    
   143   72   73 2    
   144   72   74 am   BACKBONE|DICT|INTERRES
   145   74   75 1    
   146   74  195 1    
   147   75   76 1    
   148   75   77 1    
   149   75  196 1    
   150   76  197 1    
   151   76  198 1    
   152   76  199 1    
   153   77   78 2    
   154   77   79 am   BACKBONE|DICT|INTERRES
   155   79   80 1    
   156   79  200 1    
   157   80   81 1    
   158   80   82 1    
   159   80  201 1    
   160   81  202 1    
   161   81  203 1    
   162   81  204 1    
   163   82   83 2    
   164   82   84 am   BACKBONE|DICT|INTERRES
   165   84   85 1    
   166   84  205 1    
   167   85   86 1    
   168   85   87 1    
   169   85  206 1    
   170   86  207 1    
   171   86  208 1    
   172   86  209 1    
   173   87   88 2    
   174   87   89 am   BACKBONE|DICT|INTERRES
   175   89   90 1    
   176   89  210 1    
   177   90   91 1    
   178   90   92 1    
   179   90  211 1    
   180   91  212 1    
   181   91  213 1    
   182   91  214 1    
   183   92   93 2    
   184   92   94 am   BACKBONE|DICT|INTERRES
   185   94   95 1    
   186   94  215 1    
   187   95   96 1    
   188   95   97 1    
   189   95  216 1    
   190   96  217 1    
   191   96  218 1    
   192   96  219 1    
   193   97   98 2    
   194   97   99 am   BACKBONE|DICT|INTERRES
   195   99  100 1    
   196   99  220 1    
   197  100  101 1    
   198  100  102 1    
   199  100  221 1    
   200  101  222 1    
   201  101  223 1    
   202  101  224 1    
   203  102  103 2    
   204  102  104 am   BACKBONE|DICT|INTERRES
   205  104  105 1    
   206  104  225 1    
   207  105  106 1    
   208  105  107 1    
   209  105  226 1    
   210  106  227 1    
   211  106  228 1    
   212  106  229 1    
   213  107  108 2    
   214  107  109 am   BACKBONE|DICT|INTERRES
   215  109  110 1    
   216  109  230 1    
   217  110  111 1    
   218  110  112 1    
   219  110  231 1    
   220  111  232 1    
   221  111  233 1    
   222  111  234 1    
   223  112  113 2    
   224  112  114 am   BACKBONE|DICT|INTERRES
   225  114  115 1    
   226  114  235 1    
   227  115  116 1    
   228  115  117 1    
   229  115  236 1    
   230  116  237 1    
   231  116  238 1    
   232  116  239 1    
   233  117  118 2    
   234  117  119 am   BACKBONE|DICT|INTERRES
   235  119  120 1    
   236  119  240 1    
   237  120  121 1    
   238  120  124 1    
   239  120  241 1    
   240  121  122 am   BACKBONE|DICT|INTERRES
   241  121  123 2    
   242  122  242 1    
   243  122  243 1    
   244  124  125 1    
   245  124  244 1    
   246  124  245 1    
   247  125  126 1    
   248  126  246 1    
   249  126  247 1    
@<TRIPOS>SUBSTRUCTURE
     1 UNK         1 GROUP             0       ****    0 ROOT    
