@<TRIPOS>MOLECULE
3R540
247   249    1
SMALL
USER_CHARGES


@<TRIPOS>ATOM
      1 CA         -7.1492  -12.8004  -47.8043 C.3       0 UNK        -0.1800 
      2 C          -5.6834  -12.4982  -47.5254 C.2       0 UNK         0.5000 
      3 O          -5.2513  -11.3567  -47.6890 O.2       0 UNK        -0.5000 
      4 N          -4.9180  -13.5164  -47.1149 N.am      1 UNK        -0.5000 
      5 CA         -3.5013  -13.4141  -46.7550 C.3       1 UNK         0.1400 
      6 C6         -2.8571  -14.8081  -46.5511 C.3       23 UNK        -0.0398 
      7 S7         -2.7319  -15.7630  -48.0972 S.3       23 UNK        -0.2404 
      8 C8         -0.9245  -15.7926  -48.3321 C.3       23 UNK        -0.0205 
      9 C9         -0.5276  -16.6727  -49.5069 C.ar      23 UNK        -0.0193 
     10 C10        -0.9558  -16.3501  -50.7974 C.ar      23 UNK        -0.1150 
     11 C11        -0.6332  -17.1735  -51.8774 C.ar      23 UNK        -0.0193 
     12 C12         0.1491  -18.3125  -51.6651 C.ar      23 UNK        -0.1150 
     13 C13         0.5997  -18.6389  -50.3827 C.ar      23 UNK        -0.0193 
     14 C14         0.2598  -17.8116  -49.3067 C.ar      23 UNK        -0.1150 
     15 C15         1.4557  -19.8813  -50.1751 C.3       23 UNK        -0.0205 
     16 S16         0.4629  -21.3345  -49.6995 S.3       23 UNK        -0.2404 
     17 C17         0.5382  -21.2091  -47.8836 C.3       23 UNK        -0.0398 
     18 CA         -0.5265  -22.0339  -47.1224 C.3       11 UNK         0.1400 
     19 N          -0.1824  -22.1247  -45.6986 N.am      11 UNK        -0.5000 
     20 C          -0.8544  -22.8191  -44.7693 C.2       10 UNK         0.5000 
     21 O          -1.8399  -23.5139  -45.0103 O.2       10 UNK        -0.5000 
     22 CA         -0.3755  -22.6704  -43.3143 C.3       10 UNK         0.1400 
     23 CB          0.8458  -23.5622  -43.0471 C.3       10 UNK        -0.1800 
     24 N          -0.0665  -21.2831  -42.9617 N.am      10 UNK        -0.5000 
     25 C          -0.9659  -20.2884  -42.9372 C.2       9 UNK         0.5000 
     26 O          -2.1631  -20.4475  -43.1680 O.2       9 UNK        -0.5000 
     27 CA         -0.4369  -18.8693  -42.6634 C.3       9 UNK         0.1400 
     28 CB         -0.1891  -18.6508  -41.1638 C.3       9 UNK        -0.1800 
     29 N           0.7830  -18.5772  -43.4139 N.am      9 UNK        -0.5000 
     30 C           0.8578  -18.5307  -44.7517 C.2       8 UNK         0.5000 
     31 O          -0.1101  -18.6673  -45.5001 O.2       8 UNK        -0.5000 
     32 CA          2.2617  -18.3561  -45.3548 C.3       8 UNK         0.1400 
     33 CB          2.6717  -16.8776  -45.3831 C.3       8 UNK        -0.1800 
     34 N           3.2696  -19.1326  -44.6327 N.am      8 UNK        -0.5000 
     35 C           3.3344  -20.4715  -44.6391 C.2       7 UNK         0.5000 
     36 O           2.5584  -21.1902  -45.2673 O.2       7 UNK        -0.5000 
     37 CA          4.4218  -21.1134  -43.7604 C.3       7 UNK         0.1400 
     38 CB          5.7847  -21.0781  -44.4677 C.3       7 UNK        -0.1800 
     39 N           4.5335  -20.4678  -42.4523 N.am      7 UNK        -0.5000 
     40 C           3.5775  -20.4942  -41.5131 C.2       6 UNK         0.5000 
     41 O           2.5072  -21.0866  -41.6422 O.2       6 UNK        -0.5000 
     42 CA          3.8447  -19.6837  -40.2329 C.3       6 UNK         0.1400 
     43 CB          4.6413  -20.5197  -39.2202 C.3       6 UNK        -0.1800 
     44 N           4.5458  -18.4212  -40.4828 N.am      6 UNK        -0.5000 
     45 C           4.0508  -17.4114  -41.2085 C.2       5 UNK         0.5000 
     46 O           2.9645  -17.4502  -41.7951 O.2       5 UNK        -0.5000 
     47 CA          4.9213  -16.1564  -41.3229 C.3       5 UNK         0.1400 
     48 CB          5.7934  -16.2114  -42.5897 C.3       5 UNK        -0.1800 
     49 N           4.0245  -15.0117  -41.3745 N.am      5 UNK        -0.5000 
     50 C           4.3328  -13.7383  -41.1081 C.2       4 UNK         0.5000 
     51 O           5.4636  -13.3670  -40.7888 O.2       4 UNK        -0.5000 
     52 CA          3.1752  -12.7156  -41.1840 C.3       4 UNK         0.1400 
     53 CB          3.6426  -11.3180  -41.6423 C.3       4 UNK        -0.1800 
     54 N           2.0283  -13.1761  -41.9801 N.am      4 UNK        -0.5000 
     55 C           2.0022  -13.4424  -43.2941 C.2       3 UNK         0.5000 
     56 O           2.9602  -13.2901  -44.0516 O.2       3 UNK        -0.5000 
     57 CA          0.6841  -13.9957  -43.8624 C.3       3 UNK         0.1400 
     58 CB         -0.0110  -15.0128  -42.9320 C.3       3 UNK        -0.1800 
     59 N          -0.2306  -12.9365  -44.2855 N.am      3 UNK        -0.5000 
     60 C          -0.8345  -11.9960  -43.5408 C.2       2 UNK         0.5000 
     61 O          -0.7026  -11.8810  -42.3223 O.2       2 UNK        -0.5000 
     62 CA         -1.7723  -11.0339  -44.3005 C.3       2 UNK         0.1400 
     63 CB         -1.0209   -9.7559  -44.7031 C.3       2 UNK        -0.1800 
     64 N          -2.3317  -11.6650  -45.5005 N.am      2 UNK        -0.5000 
     65 C          -3.3087  -12.5814  -45.4724 C.2       1 UNK         0.5000 
     66 O          -3.9844  -12.8359  -44.4725 O.2       1 UNK        -0.5000 
     67 C          -1.9528  -21.4809  -47.3411 C.2       11 UNK         0.5000 
     68 O          -2.7017  -22.0199  -48.1599 O.2       11 UNK        -0.5000 
     69 N          -2.3124  -20.4466  -46.5687 N.am      12 UNK        -0.5000 
     70 CA         -3.6497  -19.8640  -46.5342 C.3       12 UNK         0.1400 
     71 CB         -3.6027  -18.5341  -45.7661 C.3       12 UNK        -0.1800 
     72 C          -4.6840  -20.8228  -45.9155 C.2       12 UNK         0.5000 
     73 O          -5.7173  -21.0785  -46.5336 O.2       12 UNK        -0.5000 
     74 N          -4.3839  -21.3444  -44.7167 N.am      13 UNK        -0.5000 
     75 CA         -5.2690  -22.1990  -43.9194 C.3       13 UNK         0.1400 
     76 CB         -4.6474  -22.4296  -42.5339 C.3       13 UNK        -0.1800 
     77 C          -5.6093  -23.5444  -44.5839 C.2       13 UNK         0.5000 
     78 O          -6.7521  -23.9939  -44.4906 O.2       13 UNK        -0.5000 
     79 N          -4.6261  -24.1514  -45.2609 N.am      14 UNK        -0.5000 
     80 CA         -4.7868  -25.3924  -46.0220 C.3       14 UNK         0.1400 
     81 CB         -3.4010  -26.0222  -46.2387 C.3       14 UNK        -0.1800 
     82 C          -5.4937  -25.1906  -47.3774 C.2       14 UNK         0.5000 
     83 O          -5.8228  -26.1808  -48.0309 O.2       14 UNK        -0.5000 
     84 N          -5.6721  -23.9263  -47.7933 N.am      15 UNK        -0.5000 
     85 CA         -6.1731  -23.4708  -49.0948 C.3       15 UNK         0.1400 
     86 CB         -7.6252  -23.9297  -49.3376 C.3       15 UNK        -0.1800 
     87 C          -5.2334  -23.8224  -50.2670 C.2       15 UNK         0.5000 
     88 O          -5.6531  -23.7745  -51.4246 O.2       15 UNK        -0.5000 
     89 N          -3.9619  -24.1164  -49.9574 N.am      16 UNK        -0.5000 
     90 CA         -2.8932  -24.3748  -50.9218 C.3       16 UNK         0.1400 
     91 CB         -1.6332  -24.8395  -50.1782 C.3       16 UNK        -0.1800 
     92 C          -2.5957  -23.1404  -51.7884 C.2       16 UNK         0.5000 
     93 O          -2.3256  -23.2863  -52.9795 O.2       16 UNK        -0.5000 
     94 N          -2.7284  -21.9526  -51.1808 N.am      17 UNK        -0.5000 
     95 CA         -2.6642  -20.6409  -51.8215 C.3       17 UNK         0.1400 
     96 CB         -2.9570  -19.5690  -50.7579 C.3       17 UNK        -0.1800 
     97 C          -3.6448  -20.5018  -53.0003 C.2       17 UNK         0.5000 
     98 O          -3.2495  -20.0677  -54.0839 O.2       17 UNK        -0.5000 
     99 N          -4.8995  -20.9061  -52.7608 N.am      18 UNK        -0.5000 
    100 CA        -5.9795  -20.8984  -53.7421 C.3       18 UNK         0.1400 
    101 CB        -7.3304  -20.9841  -53.0150 C.3       18 UNK        -0.1800 
    102 C         -5.8356  -22.0338  -54.7672 C.2       18 UNK         0.5000 
    103 O         -6.0206  -21.7916  -55.9595 O.2       18 UNK        -0.5000 
    104 N         -5.4865  -23.2401  -54.2958 N.am      19 UNK        -0.5000 
    105 CA        -5.3178  -24.4412  -55.1189 C.3       19 UNK         0.1400 
    106 CB        -5.0941  -25.6594  -54.2115 C.3       19 UNK        -0.1800 
    107 C         -4.1829  -24.3192  -56.1528 C.2       19 UNK         0.5000 
    108 O         -4.3512  -24.7521  -57.2933 O.2       19 UNK        -0.5000 
    109 N         -3.0639  -23.7039  -55.7482 N.am      20 UNK        -0.5000 
    110 CA        -1.9259  -23.3977  -56.6168 C.3       20 UNK         0.1400 
    111 CB        -0.6665  -23.2499  -55.7475 C.3       20 UNK        -0.1800 
    112 C         -2.1343  -22.1250  -57.4611 C.2       20 UNK         0.5000 
    113 O         -1.3055  -21.8441  -58.3284 O.2       20 UNK        -0.5000 
    114 N         -3.1901  -21.3492  -57.1643 N.am      21 UNK        -0.5000 
    115 CA        -3.5312  -20.0418  -57.7428 C.3       21 UNK         0.1400 
    116 CB        -4.0122  -20.2086  -59.1983 C.3       21 UNK        -0.1800 
    117 C         -2.3915  -19.0075  -57.6002 C.2       21 UNK         0.5000 
    118 O         -2.1949  -18.1666  -58.4792 O.2       21 UNK        -0.5000 
    119 N         -1.6403  -19.1227  -56.4982 N.am      22 UNK        -0.5000 
    120 CA        -0.3927  -18.4038  -56.2046 C.3       22 UNK         0.1400 
    121 C          0.8062  -18.7183  -57.1548 C.2       22 UNK         0.5000 
    122 N          0.7615  -19.7692  -57.9662 N.am      22 UNK        -0.7600 
    123 O          1.8149  -18.0182  -57.1381 O.2       22 UNK        -0.5000 
    124 C124       -0.6257  -16.8796  -55.9733 C.3       23 UNK        -0.0398 
    125 S125        0.1168  -16.3206  -54.4057 S.3       23 UNK        -0.2404 
    126 C126       -1.1834  -16.8742  -53.2606 C.3       23 UNK        -0.0205 
    127 H127       -7.7862  -12.1941  -47.1603 H         1 UNK         0.0600 
    128 H128       -7.3898  -12.5668  -48.8415 H         1 UNK         0.0600 
    129 H129       -7.3878  -13.8496  -47.6280 H         1 UNK         0.0600 
    130 H130       -5.3320  -14.4293  -46.9951 H         1 UNK         0.3000 
    131 H131       -2.9844  -12.9112  -47.5755 H         1 UNK         0.0600 
    132 H132       -3.4346  -15.3938  -45.8335 H         1 UNK         0.0800 
    133 H133       -1.8597  -14.7175  -46.1175 H         1 UNK         0.0800 
    134 H134       -0.4510  -16.1505  -47.4161 H         1 UNK         0.0800 
    135 H135       -0.5611  -14.7781  -48.5014 H         1 UNK         0.0800 
    136 H136       -1.5702  -15.4741  -50.9517 H         1 UNK         0.1150 
    137 H137        0.3953  -18.9528  -52.5004 H         1 UNK         0.1150 
    138 H138        0.6009  -18.0535  -48.3112 H         1 UNK         0.1150 
    139 H139        1.9897  -20.1170  -51.0968 H         1 UNK         0.0800 
    140 H140        2.2257  -19.6884  -49.4265 H         1 UNK         0.0800 
    141 H141        1.5339  -21.5518  -47.6019 H         1 UNK         0.0800 
    142 H142        0.4860  -20.1637  -47.5864 H         1 UNK         0.0800 
    143 H143       -0.5085  -23.0541  -47.5086 H         1 UNK         0.0600 
    144 H144        0.6511  -21.6214  -45.4093 H         1 UNK         0.3000 
    145 H145       -1.1853  -23.0058  -42.6636 H         1 UNK         0.0600 
    146 H146        1.7095  -23.2522  -43.6358 H         1 UNK         0.0600 
    147 H147        1.1312  -23.5328  -41.9955 H         1 UNK         0.0600 
    148 H148        0.6327  -24.6022  -43.2972 H         1 UNK         0.0600 
    149 H149        0.8958  -21.0843  -42.7025 H         1 UNK         0.3000 
    150 H150       -1.2032  -18.1616  -42.9869 H         1 UNK         0.0600 
    151 H151        0.1324  -17.6292  -40.9608 H         1 UNK         0.0600 
    152 H152        0.5768  -19.3237  -40.7790 H         1 UNK         0.0600 
    153 H153       -1.0993  -18.8263  -40.5892 H         1 UNK         0.0600 
    154 H154        1.6237  -18.4091  -42.8697 H         1 UNK         0.3000 
    155 H155        2.2306  -18.7174  -46.3848 H         1 UNK         0.0600 
    156 H156        1.9693  -16.2951  -45.9798 H         1 UNK         0.0600 
    157 H157        3.6572  -16.7497  -45.8310 H         1 UNK         0.0600 
    158 H158        2.7006  -16.4448  -44.3827 H         1 UNK         0.0600 
    159 H159        3.9136  -18.6179  -44.0516 H         1 UNK         0.3000 
    160 H160        4.1469  -22.1583  -43.6010 H         1 UNK         0.0600 
    161 H161        6.1311  -20.0565  -44.6294 H         1 UNK         0.0600 
    162 H162        5.7305  -21.5648  -45.4424 H         1 UNK         0.0600 
    163 H163        6.5436  -21.6018  -43.8863 H         1 UNK         0.0600 
    164 H164        5.3821  -19.9557  -42.2626 H         1 UNK         0.3000 
    165 H165        2.8768  -19.4441  -39.7880 H         1 UNK         0.0600 
    166 H166        5.6364  -20.7656  -39.5930 H         1 UNK         0.0600 
    167 H167        4.7579  -19.9888  -38.2753 H         1 UNK         0.0600 
    168 H168        4.1308  -21.4589  -39.0024 H         1 UNK         0.0600 
    169 H169        5.4478  -18.3133  -40.0413 H         1 UNK         0.3000 
    170 H170        5.5557  -16.0783  -40.4376 H         1 UNK         0.0600 
    171 H171        6.4442  -17.0864  -42.5810 H         1 UNK         0.0600 
    172 H172        5.1854  -16.2599  -43.4939 H         1 UNK         0.0600 
    173 H173        6.4341  -15.3329  -42.6674 H         1 UNK         0.0600 
    174 H174        3.0678  -15.2515  -41.5995 H         1 UNK         0.3000 
    175 H175        2.8049  -12.6140  -40.1631 H         1 UNK         0.0600 
    176 H176        2.8074  -10.6191  -41.6893 H         1 UNK         0.0600 
    177 H177        4.3729  -10.9023  -40.9472 H         1 UNK         0.0600 
    178 H178        4.1115  -11.3481  -42.6260 H         1 UNK         0.0600 
    179 H179        1.1614  -13.2846  -41.4704 H         1 UNK         0.3000 
    180 H180        0.9491  -14.5330  -44.7730 H         1 UNK         0.0600 
    181 H181       -0.8330  -15.5106  -43.4466 H         1 UNK         0.0600 
    182 H182        0.6868  -15.7887  -42.6157 H         1 UNK         0.0600 
    183 H183       -0.4174  -14.5511  -42.0324 H         1 UNK         0.0600 
    184 H184       -0.3817  -12.8855  -45.2812 H         1 UNK         0.3000 
    185 H185       -2.5873  -10.7556  -43.6287 H         1 UNK         0.0600 
    186 H186       -1.6847   -9.0491  -45.2014 H         1 UNK         0.0600 
    187 H187       -0.6111   -9.2527  -43.8262 H         1 UNK         0.0600 
    188 H188       -0.1900   -9.9694  -45.3766 H         1 UNK         0.0600 
    189 H189       -1.8604  -11.4711  -46.3727 H         1 UNK         0.3000 
    190 H190       -1.6225  -20.0352  -45.9495 H         1 UNK         0.3000 
    191 H191       -3.9493  -19.6519  -47.5627 H         1 UNK         0.0600 
    192 H192       -4.5441  -17.9931  -45.8660 H         1 UNK         0.0600 
    193 H193       -2.8101  -17.8921  -46.1470 H         1 UNK         0.0600 
    194 H194       -3.4176  -18.6787  -44.7020 H         1 UNK         0.0600 
    195 H195       -3.5112  -21.0688  -44.2705 H         1 UNK         0.3000 
    196 H196       -6.2069  -21.6573  -43.7819 H         1 UNK         0.0600 
    197 H197       -5.2930  -23.0511  -41.9121 H         1 UNK         0.0600 
    198 H198       -4.4988  -21.4871  -42.0066 H         1 UNK         0.0600 
    199 H199       -3.6806  -22.9286  -42.6073 H         1 UNK         0.0600 
    200 H200       -3.6921  -23.7462  -45.2474 H         1 UNK         0.3000 
    201 H201       -5.3905  -26.0884  -45.4359 H         1 UNK         0.0600 
    202 H202       -2.8973  -26.2040  -45.2892 H         1 UNK         0.0600 
    203 H203       -2.7578  -25.3794  -46.8413 H         1 UNK         0.0600 
    204 H204       -3.4800  -26.9812  -46.7523 H         1 UNK         0.0600 
    205 H205       -5.3854  -23.1828  -47.1679 H         1 UNK         0.3000 
    206 H206       -6.1813  -22.3813  -49.0413 H         1 UNK         0.0600 
    207 H207       -8.2654  -23.6751  -48.4930 H         1 UNK         0.0600 
    208 H208       -8.0450  -23.4444  -50.2195 H         1 UNK         0.0600 
    209 H209       -7.6912  -25.0059  -49.4986 H         1 UNK         0.0600 
    210 H210       -3.6869  -24.0456  -48.9880 H         1 UNK         0.3000 
    211 H211       -3.2204  -25.1821  -51.5779 H         1 UNK         0.0600 
    212 H212       -0.8345  -25.0811  -50.8805 H         1 UNK         0.0600 
    213 H213       -1.8297  -25.7337  -49.5864 H         1 UNK         0.0600 
    214 H214       -1.2559  -24.0682  -49.5077 H         1 UNK         0.0600 
    215 H215       -2.8986  -21.9560  -50.1802 H         1 UNK         0.3000 
    216 H216       -1.6521  -20.5009  -52.2037 H         1 UNK         0.0600 
    217 H217       -2.9885  -18.5724  -51.1980 H         1 UNK         0.0600 
    218 H218       -2.1890  -19.5596  -49.9846 H         1 UNK         0.0600 
    219 H219       -3.9160  -19.7363  -50.2665 H         1 UNK         0.0600 
    220 H220       -5.1130  -21.3020  -51.8578 H         1 UNK         0.3000 
    221 H221       -5.9461  -19.9506  -54.2840 H         1 UNK         0.0600 
    222 H222       -7.4243  -21.9056  -52.4394 H         1 UNK         0.0600 
    223 H223       -7.4630  -20.1464  -52.3302 H         1 UNK         0.0600 
    224 H224       -8.1573  -20.9564  -53.7258 H         1 UNK         0.0600 
    225 H225       -5.3917  -23.3625  -53.2911 H         1 UNK         0.3000 
    226 H226       -6.2494  -24.5951  -55.6672 H         1 UNK         0.0600 
    227 H227       -5.0439  -26.5777  -54.7976 H         1 UNK         0.0600 
    228 H228       -4.1618  -25.5760  -53.6542 H         1 UNK         0.0600 
    229 H229       -5.9067  -25.7745  -53.4938 H         1 UNK         0.0600 
    230 H230       -2.9756  -23.4234  -54.7740 H         1 UNK         0.3000 
    231 H231       -1.7684  -24.2296  -57.3063 H         1 UNK         0.0600 
    232 H232        0.2198  -23.0891  -56.3627 H         1 UNK         0.0600 
    233 H233       -0.4901  -24.1459  -55.1521 H         1 UNK         0.0600 
    234 H234       -0.7483  -22.4041  -55.0634 H         1 UNK         0.0600 
    235 H235       -3.8194  -21.6730  -56.4415 H         1 UNK         0.3000 
    236 H236       -4.3670  -19.6566  -57.1570 H         1 UNK         0.0600 
    237 H237       -3.2083  -20.5452  -59.8537 H         1 UNK         0.0600 
    238 H238       -4.8235  -20.9337  -59.2624 H         1 UNK         0.0600 
    239 H239       -4.3884  -19.2662  -59.5976 H         1 UNK         0.0600 
    240 H240       -1.9337  -19.7987  -55.8027 H         1 UNK         0.3000 
    241 H241       -0.0781  -18.8504  -55.2609 H         1 UNK         0.0600 
    242 H242        1.5506  -19.9590  -58.5632 H         1 UNK         0.3800 
    243 H243       -0.0517  -20.3749  -58.0134 H         1 UNK         0.3800 
    244 H244       -1.6901  -16.6418  -55.9409 H         1 UNK         0.0800 
    245 H245       -0.2268  -16.2793  -56.7926 H         1 UNK         0.0800 
    246 H246       -1.9651  -16.1144  -53.2155 H         1 UNK         0.0800 
    247 H247       -1.6618  -17.7780  -53.6403 H         1 UNK         0.0800 
@<TRIPOS>BOND
     1    1    2 1    
     2    1  127 1    
     3    1  128 1    
     4    1  129 1    
     5    2    3 2    
     6    2    4 am   BACKBONE|DICT|INTERRES
     7    4    5 1    
     8    4  130 1    
     9    5    6 1    
    10    5   65 1    
    11    5  131 1    
    12    6    7 1    
    13    6  132 1    
    14    6  133 1    
    15    7    8 1    
    16    8    9 1    
    17    8  134 1    
    18    8  135 1    
    19    9   10 ar   
    20    9   14 ar   
    21   10   11 ar   
    22   10  136 1    
    23   11   12 ar   
    24   11  126 1    
    25   12   13 ar   
    26   12  137 1    
    27   13   14 ar   
    28   13   15 1    
    29   14  138 1    
    30   15   16 1    
    31   15  139 1    
    32   15  140 1    
    33   16   17 1    
    34   17   18 1    
    35   17  141 1    
    36   17  142 1    
    37   18   19 1    
    38   18   67 1    
    39   18  143 1    
    40   19   20 am   BACKBONE|DICT|INTERRES
    41   19  144 1    
    42   20   21 2    
    43   20   22 1    
    44   22   23 1    
    45   22   24 1    
    46   22  145 1    
    47   23  146 1    
    48   23  147 1    
    49   23  148 1    
    50   24   25 am   BACKBONE|DICT|INTERRES
    51   24  149 1    
    52   25   26 2    
    53   25   27 1    
    54   27   28 1    
    55   27   29 1    
    56   27  150 1    
    57   28  151 1    
    58   28  152 1    
    59   28  153 1    
    60   29   30 am   BACKBONE|DICT|INTERRES
    61   29  154 1    
    62   30   31 2    
    63   30   32 1    
    64   32   33 1    
    65   32   34 1    
    66   32  155 1    
    67   33  156 1    
    68   33  157 1    
    69   33  158 1    
    70   34   35 am   BACKBONE|DICT|INTERRES
    71   34  159 1    
    72   35   36 2    
    73   35   37 1    
    74   37   38 1    
    75   37   39 1    
    76   37  160 1    
    77   38  161 1    
    78   38  162 1    
    79   38  163 1    
    80   39   40 am   BACKBONE|DICT|INTERRES
    81   39  164 1    
    82   40   41 2    
    83   40   42 1    
    84   42   43 1    
    85   42   44 1    
    86   42  165 1    
    87   43  166 1    
    88   43  167 1    
    89   43  168 1    
    90   44   45 am   BACKBONE|DICT|INTERRES
    91   44  169 1    
    92   45   46 2    
    93   45   47 1    
    94   47   48 1    
    95   47   49 1    
    96   47  170 1    
    97   48  171 1    
    98   48  172 1    
    99   48  173 1    
   100   49   50 am   BACKBONE|DICT|INTERRES
   101   49  174 1    
   102   50   51 2    
   103   50   52 1    
   104   52   53 1    
   105   52   54 1    
   106   52  175 1    
   107   53  176 1    
   108   53  177 1    
   109   53  178 1    
   110   54   55 am   BACKBONE|DICT|INTERRES
   111   54  179 1    
   112   55   56 2    
   113   55   57 1    
   114   57   58 1    
   115   57   59 1    
   116   57  180 1    
   117   58  181 1    
   118   58  182 1    
   119   58  183 1    
   120   59   60 am   BACKBONE|DICT|INTERRES
   121   59  184 1    
   122   60   61 2    
   123   60   62 1    
   124   62   63 1    
   125   62   64 1    
   126   62  185 1    
   127   63  186 1    
   128   63  187 1    
   129   63  188 1    
   130   64   65 am   BACKBONE|DICT|INTERRES
   131   64  189 1    
   132   65   66 2    
   133   67   68 2    
   134   67   69 am   BACKBONE|DICT|INTERRES
   135   69   70 1    
   136   69  190 1    
   137   70   71 1    
   138   70   72 1    
   139   70  191 1    
   140   71  192 1    
   141   71  193 1    
   142   71  194 1    
   143   72   73 2    
   144   72   74 am   BACKBONE|DICT|INTERRES
   145   74   75 1    
   146   74  195 1    
   147   75   76 1    
   148   75   77 1    
   149   75  196 1    
   150   76  197 1    
   151   76  198 1    
   152   76  199 1    
   153   77   78 2    
   154   77   79 am   BACKBONE|DICT|INTERRES
   155   79   80 1    
   156   79  200 1    
   157   80   81 1    
   158   80   82 1    
   159   80  201 1    
   160   81  202 1    
   161   81  203 1    
   162   81  204 1    
   163   82   83 2    
   164   82   84 am   BACKBONE|DICT|INTERRES
   165   84   85 1    
   166   84  205 1    
   167   85   86 1    
   168   85   87 1    
   169   85  206 1    
   170   86  207 1    
   171   86  208 1    
   172   86  209 1    
   173   87   88 2    
   174   87   89 am   BACKBONE|DICT|INTERRES
   175   89   90 1    
   176   89  210 1    
   177   90   91 1    
   178   90   92 1    
   179   90  211 1    
   180   91  212 1    
   181   91  213 1    
   182   91  214 1    
   183   92   93 2    
   184   92   94 am   BACKBONE|DICT|INTERRES
   185   94   95 1    
   186   94  215 1    
   187   95   96 1    
   188   95   97 1    
   189   95  216 1    
   190   96  217 1    
   191   96  218 1    
   192   96  219 1    
   193   97   98 2    
   194   97   99 am   BACKBONE|DICT|INTERRES
   195   99  100 1    
   196   99  220 1    
   197  100  101 1    
   198  100  102 1    
   199  100  221 1    
   200  101  222 1    
   201  101  223 1    
   202  101  224 1    
   203  102  103 2    
   204  102  104 am   BACKBONE|DICT|INTERRES
   205  104  105 1    
   206  104  225 1    
   207  105  106 1    
   208  105  107 1    
   209  105  226 1    
   210  106  227 1    
   211  106  228 1    
   212  106  229 1    
   213  107  108 2    
   214  107  109 am   BACKBONE|DICT|INTERRES
   215  109  110 1    
   216  109  230 1    
   217  110  111 1    
   218  110  112 1    
   219  110  231 1    
   220  111  232 1    
   221  111  233 1    
   222  111  234 1    
   223  112  113 2    
   224  112  114 am   BACKBONE|DICT|INTERRES
   225  114  115 1    
   226  114  235 1    
   227  115  116 1    
   228  115  117 1    
   229  115  236 1    
   230  116  237 1    
   231  116  238 1    
   232  116  239 1    
   233  117  118 2    
   234  117  119 am   BACKBONE|DICT|INTERRES
   235  119  120 1    
   236  119  240 1    
   237  120  121 1    
   238  120  124 1    
   239  120  241 1    
   240  121  122 am   BACKBONE|DICT|INTERRES
   241  121  123 2    
   242  122  242 1    
   243  122  243 1    
   244  124  125 1    
   245  124  244 1    
   246  124  245 1    
   247  125  126 1    
   248  126  246 1    
   249  126  247 1    
@<TRIPOS>SUBSTRUCTURE
     1 UNK         1 GROUP             0       ****    0 ROOT    
