@<TRIPOS>MOLECULE
3R540
247   249    1
SMALL
USER_CHARGES


@<TRIPOS>ATOM
      1 CA          2.0414  -12.5881  -53.2235 C.3       0 UNK        -0.1800 
      2 C           1.6055  -12.5757  -51.7649 C.2       0 UNK         0.5000 
      3 O           1.2891  -11.5140  -51.2272 O.2       0 UNK        -0.5000 
      4 N           1.5977  -13.7501  -51.1246 N.am      1 UNK        -0.5000 
      5 CA          1.1394  -13.9581  -49.7478 C.3       1 UNK         0.1400 
      6 C6          1.5009  -15.3713  -49.2151 C.3       23 UNK        -0.0398 
      7 S7          3.2918  -15.7130  -49.2146 S.3       23 UNK        -0.2404 
      8 C8          3.4670  -16.8300  -50.6428 C.3       23 UNK        -0.0205 
      9 C9          3.0503  -18.2606  -50.3282 C.ar      23 UNK        -0.0193 
     10 C10         1.7874  -18.7328  -50.7018 C.ar      23 UNK        -0.1150 
     11 C11         1.4300  -20.0644  -50.4720 C.ar      23 UNK        -0.0193 
     12 C12         2.3480  -20.9237  -49.8672 C.ar      23 UNK        -0.1150 
     13 C13         3.6017  -20.4610  -49.4590 C.ar      23 UNK        -0.0193 
     14 C14         3.9477  -19.1272  -49.6956 C.ar      23 UNK        -0.1150 
     15 C15         4.5845  -21.4050  -48.7788 C.3       23 UNK        -0.0205 
     16 S16         4.3643  -21.4353  -46.9692 S.3       23 UNK        -0.2404 
     17 C17         2.7499  -22.2732  -46.8079 C.3       23 UNK        -0.0398 
     18 CA          2.6973  -23.3324  -45.6824 C.3       11 UNK         0.1400 
     19 N           3.0260  -22.7637  -44.3770 N.am      11 UNK        -0.5000 
     20 C           3.4766  -23.4674  -43.3319 C.2       10 UNK         0.5000 
     21 O           3.7728  -24.6625  -43.3972 O.2       10 UNK        -0.5000 
     22 CA          3.5851  -22.7212  -41.9870 C.3       10 UNK         0.1400 
     23 CB          4.6150  -23.3468  -41.0225 C.3       10 UNK        -0.1800 
     24 N           3.7981  -21.2790  -42.1369 N.am      10 UNK        -0.5000 
     25 C           4.8813  -20.6472  -42.6156 C.2       9 UNK         0.5000 
     26 O           5.9007  -21.2280  -42.9905 O.2       9 UNK        -0.5000 
     27 CA          4.8303  -19.1041  -42.6898 C.3       9 UNK         0.1400 
     28 CB          4.9805  -18.6202  -44.1419 C.3       9 UNK        -0.1800 
     29 N           3.6076  -18.5283  -42.1236 N.am      9 UNK        -0.5000 
     30 C           3.3313  -18.4195  -40.8171 C.2       8 UNK         0.5000 
     31 O           4.1270  -18.7129  -39.9244 O.2       8 UNK        -0.5000 
     32 CA          1.9090  -17.9548  -40.4453 C.3       8 UNK         0.1400 
     33 CB          1.8531  -16.4252  -40.3206 C.3       8 UNK        -0.1800 
     34 N           0.8854  -18.4119  -41.3921 N.am      8 UNK        -0.5000 
     35 C           0.5557  -19.6959  -41.5990 C.2       7 UNK         0.5000 
     36 O           1.0582  -20.6330  -40.9795 O.2       7 UNK        -0.5000 
     37 CA         -0.4613  -19.9930  -42.7178 C.3       7 UNK         0.1400 
     38 CB         -1.8992  -19.7641  -42.2304 C.3       7 UNK        -0.1800 
     39 N          -0.2146  -19.2073  -43.9275 N.am      7 UNK        -0.5000 
     40 C           0.8846  -19.3210  -44.6877 C.2       6 UNK         0.5000 
     41 O           1.7810  -20.1345  -44.4654 O.2       6 UNK        -0.5000 
     42 CA          1.0363  -18.3207  -45.8508 C.3       6 UNK         0.1400 
     43 CB          0.2185  -18.7515  -47.0787 C.3       6 UNK        -0.1800 
     44 N           0.6520  -16.9646  -45.4598 N.am      6 UNK        -0.5000 
     45 C           1.2694  -16.2439  -44.5131 C.2       5 UNK         0.5000 
     46 O           2.2814  -16.6148  -43.9210 O.2       5 UNK        -0.5000 
     47 CA          0.6109  -14.9119  -44.1197 C.3       5 UNK         0.1400 
     48 CB          0.9961  -13.7947  -45.1012 C.3       5 UNK        -0.1800 
     49 N          -0.8462  -15.0308  -44.0361 N.am      5 UNK        -0.5000 
     50 C          -1.4917  -15.6926  -43.0647 C.2       4 UNK         0.5000 
     51 O          -0.9216  -16.2463  -42.1261 O.2       4 UNK        -0.5000 
     52 CA         -3.0266  -15.7751  -43.1694 C.3       4 UNK         0.1400 
     53 CB         -3.6761  -14.5418  -42.5246 C.3       4 UNK        -0.1800 
     54 N          -3.4987  -15.9030  -44.5481 N.am      4 UNK        -0.5000 
     55 C          -3.2923  -16.9759  -45.3254 C.2       3 UNK         0.5000 
     56 O          -2.7162  -17.9935  -44.9440 O.2       3 UNK        -0.5000 
     57 CA         -3.7365  -16.8510  -46.7980 C.3       3 UNK         0.1400 
     58 CB         -5.2175  -17.2239  -46.9583 C.3       3 UNK        -0.1800 
     59 N          -3.4997  -15.5103  -47.3505 N.am      3 UNK        -0.5000 
     60 C          -2.2821  -14.9597  -47.4382 C.2       2 UNK         0.5000 
     61 O          -1.2578  -15.5309  -47.0547 O.2       2 UNK        -0.5000 
     62 CA         -2.1836  -13.5163  -47.9680 C.3       2 UNK         0.1400 
     63 CB         -2.4810  -12.5139  -46.8419 C.3       2 UNK        -0.1800 
     64 N          -0.8264  -13.2846  -48.4597 N.am      2 UNK        -0.5000 
     65 C          -0.3853  -13.7551  -49.6310 C.2       1 UNK         0.5000 
     66 O          -1.1295  -14.0985  -50.5516 O.2       1 UNK        -0.5000 
     67 C           1.2927  -23.9713  -45.6367 C.2       11 UNK         0.5000 
     68 O           0.4837  -23.6429  -44.7627 O.2       11 UNK        -0.5000 
     69 N           0.9968  -24.8314  -46.6201 N.am      12 UNK        -0.5000 
     70 CA         -0.3111  -25.4559  -46.8385 C.3       12 UNK         0.1400 
     71 CB         -0.1220  -26.7046  -47.7189 C.3       12 UNK        -0.1800 
     72 C          -1.3342  -24.4635  -47.4357 C.2       12 UNK         0.5000 
     73 O          -1.8484  -24.6810  -48.5334 O.2       12 UNK        -0.5000 
     74 N          -1.6139  -23.3803  -46.6991 N.am      13 UNK        -0.5000 
     75 CA         -2.4960  -22.2747  -47.0876 C.3       13 UNK         0.1400 
     76 CB         -2.4798  -21.2148  -45.9804 C.3       13 UNK        -0.1800 
     77 C          -3.9439  -22.6967  -47.3981 C.2       13 UNK         0.5000 
     78 O          -4.6017  -22.0496  -48.2122 O.2       13 UNK        -0.5000 
     79 N          -4.3976  -23.7996  -46.7876 N.am      14 UNK        -0.5000 
     80 CA         -5.6973  -24.4268  -47.0313 C.3       14 UNK         0.1400 
     81 CB         -5.9088  -25.5467  -46.0014 C.3       14 UNK        -0.1800 
     82 C          -5.8700  -24.9724  -48.4642 C.2       14 UNK         0.5000 
     83 O          -7.0066  -25.0941  -48.9214 O.2       14 UNK        -0.5000 
     84 N          -4.7591  -25.2772  -49.1540 N.am      15 UNK        -0.5000 
     85 CA         -4.7609  -25.6878  -50.5595 C.3       15 UNK         0.1400 
     86 CB         -3.4384  -26.3959  -50.8917 C.3       15 UNK        -0.1800 
     87 C          -4.9925  -24.4992  -51.5116 C.2       15 UNK         0.5000 
     88 O          -5.5495  -24.6931  -52.5927 O.2       15 UNK        -0.5000 
     89 N          -4.5722  -23.2966  -51.0938 N.am      16 UNK        -0.5000 
     90 CA         -4.8159  -22.0464  -51.8075 C.3       16 UNK         0.1400 
     91 CB         -3.7406  -21.0155  -51.4293 C.3       16 UNK        -0.1800 
     92 C          -6.2153  -21.5049  -51.4884 C.2       16 UNK         0.5000 
     93 O          -6.9727  -21.1921  -52.4076 O.2       16 UNK        -0.5000 
     94 N          -6.5221  -21.3975  -50.1866 N.am      17 UNK        -0.5000 
     95 CA         -7.7456  -20.8367  -49.6126 C.3       17 UNK         0.1400 
     96 CB         -8.9226  -21.8182  -49.8063 C.3       17 UNK        -0.1800 
     97 C          -8.0044  -19.4137  -50.1511 C.2       17 UNK         0.5000 
     98 O          -7.2024  -18.5164  -49.8866 O.2       17 UNK        -0.5000 
     99 N          -9.0738  -19.2444  -50.9393 N.am      18 UNK        -0.5000 
    100 CA        -9.4583  -17.9954  -51.5982 C.3       18 UNK         0.1400 
    101 CB       -10.8405  -18.1825  -52.2426 C.3       18 UNK        -0.1800 
    102 C         -8.4434  -17.4806  -52.6408 C.2       18 UNK         0.5000 
    103 O         -8.4538  -16.2847  -52.9355 O.2       18 UNK        -0.5000 
    104 N         -7.5844  -18.3633  -53.1770 N.am      19 UNK        -0.5000 
    105 CA        -6.5162  -17.9923  -54.1105 C.3       19 UNK         0.1400 
    106 CB        -5.9938  -19.2442  -54.8330 C.3       19 UNK        -0.1800 
    107 C         -5.3517  -17.2532  -53.4248 C.2       19 UNK         0.5000 
    108 O         -4.6468  -16.5009  -54.0978 O.2       19 UNK        -0.5000 
    109 N         -5.1694  -17.4870  -52.1146 N.am      20 UNK        -0.5000 
    110 CA        -4.1796  -16.9152  -51.1901 C.3       20 UNK         0.1400 
    111 CB        -4.3930  -15.4002  -51.0321 C.3       20 UNK        -0.1800 
    112 C         -2.7022  -17.2401  -51.4997 C.2       20 UNK         0.5000 
    113 O         -1.9645  -17.5965  -50.5817 O.2       20 UNK        -0.5000 
    114 N         -2.3011  -17.1382  -52.7699 N.am      21 UNK        -0.5000 
    115 CA        -0.9622  -17.4069  -53.2741 C.3       21 UNK         0.1400 
    116 CB        -0.0612  -16.1760  -53.0718 C.3       21 UNK        -0.1800 
    117 C         -1.0669  -17.8154  -54.7527 C.2       21 UNK         0.5000 
    118 O         -1.1029  -16.9353  -55.6117 O.2       21 UNK        -0.5000 
    119 N         -1.1510  -19.1080  -55.0859 N.am      22 UNK        -0.5000 
    120 CA        -1.2347  -20.2913  -54.2193 C.3       22 UNK         0.1400 
    121 C         -2.0253  -21.4226  -54.9457 C.2       22 UNK         0.5000 
    122 N         -2.1743  -22.5889  -54.3357 N.am      22 UNK        -0.7600 
    123 O         -2.5190  -21.2532  -56.0593 O.2       22 UNK        -0.5000 
    124 C124        0.1641  -20.7333  -53.6887 C.3       23 UNK        -0.0398 
    125 S125        0.0852  -21.7897  -52.1982 S.3       23 UNK        -0.2404 
    126 C126        0.0467  -20.5837  -50.8338 C.3       23 UNK        -0.0205 
    127 H127        2.2898  -13.5936  -53.5643 H         1 UNK         0.0600 
    128 H128        2.9191  -11.9562  -53.3589 H         1 UNK         0.0600 
    129 H129        1.2416  -12.2039  -53.8565 H         1 UNK         0.0600 
    130 H130        1.8619  -14.5831  -51.6256 H         1 UNK         0.3000 
    131 H131        1.6351  -13.2158  -49.1182 H         1 UNK         0.0600 
    132 H132        1.1668  -15.4817  -48.1824 H         1 UNK         0.0800 
    133 H133        0.9744  -16.1453  -49.7740 H         1 UNK         0.0800 
    134 H134        4.5118  -16.8251  -50.9569 H         1 UNK         0.0800 
    135 H135        2.9006  -16.4438  -51.4908 H         1 UNK         0.0800 
    136 H136        1.0840  -18.0621  -51.1682 H         1 UNK         0.1150 
    137 H137        2.0727  -21.9565  -49.7160 H         1 UNK         0.1150 
    138 H138        4.9208  -18.7642  -49.3956 H         1 UNK         0.1150 
    139 H139        4.4836  -22.4141  -49.1810 H         1 UNK         0.0800 
    140 H140        5.6065  -21.0940  -49.0003 H         1 UNK         0.0800 
    141 H141        2.5242  -22.7649  -47.7522 H         1 UNK         0.0800 
    142 H142        1.9828  -21.5111  -46.6713 H         1 UNK         0.0800 
    143 H143        3.4204  -24.1166  -45.9168 H         1 UNK         0.0600 
    144 H144        2.7517  -21.7943  -44.2425 H         1 UNK         0.3000 
    145 H145        2.6056  -22.8253  -41.5191 H         1 UNK         0.0600 
    146 H146        4.6659  -22.7916  -40.0859 H         1 UNK         0.0600 
    147 H147        4.3436  -24.3735  -40.7748 H         1 UNK         0.0600 
    148 H148        5.6156  -23.3714  -41.4546 H         1 UNK         0.0600 
    149 H149        3.0036  -20.7093  -41.8719 H         1 UNK         0.3000 
    150 H150        5.6819  -18.7274  -42.1199 H         1 UNK         0.0600 
    151 H151        5.9117  -18.9785  -44.5821 H         1 UNK         0.0600 
    152 H152        4.9937  -17.5316  -44.1966 H         1 UNK         0.0600 
    153 H153        4.1656  -18.9765  -44.7717 H         1 UNK         0.0600 
    154 H154        2.9200  -18.1938  -42.7909 H         1 UNK         0.3000 
    155 H155        1.6699  -18.3815  -39.4691 H         1 UNK         0.0600 
    156 H156        2.5877  -16.0648  -39.5996 H         1 UNK         0.0600 
    157 H157        0.8728  -16.0928  -39.9789 H         1 UNK         0.0600 
    158 H158        2.0602  -15.9359  -41.2723 H         1 UNK         0.0600 
    159 H159        0.3833  -17.6888  -41.8988 H         1 UNK         0.3000 
    160 H160       -0.3609  -21.0476  -42.9846 H         1 UNK         0.0600 
    161 H161       -2.0738  -18.7226  -41.9621 H         1 UNK         0.0600 
    162 H162       -2.1134  -20.3706  -41.3497 H         1 UNK         0.0600 
    163 H163       -2.6238  -20.0372  -42.9975 H         1 UNK         0.0600 
    164 H164       -0.9412  -18.5549  -44.2046 H         1 UNK         0.3000 
    165 H165        2.0900  -18.3028  -46.1374 H         1 UNK         0.0600 
    166 H166        0.4146  -18.0980  -47.9291 H         1 UNK         0.0600 
    167 H167        0.4718  -19.7659  -47.3871 H         1 UNK         0.0600 
    168 H168       -0.8530  -18.7228  -46.8815 H         1 UNK         0.0600 
    169 H169       -0.1542  -16.5616  -45.9306 H         1 UNK         0.3000 
    170 H170        0.9856  -14.6320  -43.1329 H         1 UNK         0.0600 
    171 H171        2.0767  -13.6472  -45.1122 H         1 UNK         0.0600 
    172 H172        0.6918  -14.0269  -46.1201 H         1 UNK         0.0600 
    173 H173        0.5416  -12.8452  -44.8185 H         1 UNK         0.0600 
    174 H174       -1.3782  -14.6672  -44.8114 H         1 UNK         0.3000 
    175 H175       -3.3506  -16.6593  -42.6167 H         1 UNK         0.0600 
    176 H176       -3.3576  -14.4311  -41.4871 H         1 UNK         0.0600 
    177 H177       -3.4096  -13.6237  -43.0497 H         1 UNK         0.0600 
    178 H178       -4.7631  -14.6245  -42.5222 H         1 UNK         0.0600 
    179 H179       -3.9793  -15.1082  -44.9421 H         1 UNK         0.3000 
    180 H180       -3.1440  -17.5595  -47.3813 H         1 UNK         0.0600 
    181 H181       -5.4067  -18.2329  -46.5891 H         1 UNK         0.0600 
    182 H182       -5.8679  -16.5440  -46.4070 H         1 UNK         0.0600 
    183 H183       -5.5203  -17.2024  -48.0051 H         1 UNK         0.0600 
    184 H184       -4.3098  -14.9909  -47.6560 H         1 UNK         0.3000 
    185 H185       -2.9042  -13.3705  -48.7745 H         1 UNK         0.0600 
    186 H186       -3.4956  -12.6392  -46.4620 H         1 UNK         0.0600 
    187 H187       -1.7981  -12.6318  -45.9999 H         1 UNK         0.0600 
    188 H188       -2.3952  -11.4873  -47.1987 H         1 UNK         0.0600 
    189 H189       -0.1482  -13.0283  -47.7586 H         1 UNK         0.3000 
    190 H190        1.7006  -25.0419  -47.3131 H         1 UNK         0.3000 
    191 H191       -0.7067  -25.7869  -45.8760 H         1 UNK         0.0600 
    192 H192        0.2809  -26.4496  -48.7000 H         1 UNK         0.0600 
    193 H193       -1.0707  -27.2192  -47.8775 H         1 UNK         0.0600 
    194 H194        0.5575  -27.4176  -47.2517 H         1 UNK         0.0600 
    195 H195       -1.1166  -23.2816  -45.8186 H         1 UNK         0.3000 
    196 H196       -2.0842  -21.8300  -47.9958 H         1 UNK         0.0600 
    197 H197       -3.0740  -20.3450  -46.2631 H         1 UNK         0.0600 
    198 H198       -1.4663  -20.8691  -45.7870 H         1 UNK         0.0600 
    199 H199       -2.8843  -21.6012  -45.0442 H         1 UNK         0.0600 
    200 H200       -3.7846  -24.2666  -46.1360 H         1 UNK         0.3000 
    201 H201       -6.4677  -23.6681  -46.8775 H         1 UNK         0.0600 
    202 H202       -6.8831  -26.0197  -46.1324 H         1 UNK         0.0600 
    203 H203       -5.1507  -26.3256  -46.0932 H         1 UNK         0.0600 
    204 H204       -5.8723  -25.1592  -44.9831 H         1 UNK         0.0600 
    205 H205       -3.8493  -25.1370  -48.7275 H         1 UNK         0.3000 
    206 H206       -5.5722  -26.4029  -50.7120 H         1 UNK         0.0600 
    207 H207       -3.2486  -27.2239  -50.2086 H         1 UNK         0.0600 
    208 H208       -3.4619  -26.8053  -51.9023 H         1 UNK         0.0600 
    209 H209       -2.5894  -25.7139  -50.8381 H         1 UNK         0.0600 
    210 H210       -4.1649  -23.2222  -50.1723 H         1 UNK         0.3000 
    211 H211       -4.7512  -22.2250  -52.8831 H         1 UNK         0.0600 
    212 H212       -3.8475  -20.1106  -52.0270 H         1 UNK         0.0600 
    213 H213       -2.7444  -21.4135  -51.6062 H         1 UNK         0.0600 
    214 H214       -3.7933  -20.7210  -50.3810 H         1 UNK         0.0600 
    215 H215       -5.8072  -21.6485  -49.5060 H         1 UNK         0.3000 
    216 H216       -7.5690  -20.7335  -48.5410 H         1 UNK         0.0600 
    217 H217       -9.8354  -21.4364  -49.3472 H         1 UNK         0.0600 
    218 H218       -8.7053  -22.7766  -49.3343 H         1 UNK         0.0600 
    219 H219       -9.1311  -22.0145  -50.8585 H         1 UNK         0.0600 
    220 H220       -9.6503  -20.0496  -51.1355 H         1 UNK         0.3000 
    221 H221       -9.5428  -17.2280  -50.8260 H         1 UNK         0.0600 
    222 H222      -10.8246  -18.9590  -53.0084 H         1 UNK         0.0600 
    223 H223      -11.5893  -18.4575  -51.4994 H         1 UNK         0.0600 
    224 H224      -11.1799  -17.2606  -52.7169 H         1 UNK         0.0600 
    225 H225       -7.6230  -19.3368  -52.8900 H         1 UNK         0.3000 
    226 H226       -6.9376  -17.3225  -54.8632 H         1 UNK         0.0600 
    227 H227       -6.8063  -19.8062  -55.2937 H         1 UNK         0.0600 
    228 H228       -5.2965  -18.9709  -55.6260 H         1 UNK         0.0600 
    229 H229       -5.4623  -19.9129  -54.1562 H         1 UNK         0.0600 
    230 H230       -5.8395  -18.1006  -51.6679 H         1 UNK         0.3000 
    231 H231       -4.3942  -17.3735  -50.2234 H         1 UNK         0.0600 
    232 H232       -5.4097  -15.1764  -50.7090 H         1 UNK         0.0600 
    233 H233       -4.2074  -14.8625  -51.9622 H         1 UNK         0.0600 
    234 H234       -3.7148  -14.9933  -50.2842 H         1 UNK         0.0600 
    235 H235       -2.9905  -16.8436  -53.4602 H         1 UNK         0.3000 
    236 H236       -0.5261  -18.2230  -52.7082 H         1 UNK         0.0600 
    237 H237        0.0777  -15.9743  -52.0120 H         1 UNK         0.0600 
    238 H238        0.9261  -16.3353  -53.5068 H         1 UNK         0.0600 
    239 H239       -0.4866  -15.2808  -53.5269 H         1 UNK         0.0600 
    240 H240       -1.2870  -19.3384  -56.0614 H         1 UNK         0.3000 
    241 H241       -1.8609  -20.0121  -53.3732 H         1 UNK         0.0600 
    242 H242       -1.7310  -22.7681  -53.4467 H         1 UNK         0.3800 
    243 H243       -2.6824  -23.3248  -54.8001 H         1 UNK         0.3800 
    244 H244        0.7044  -21.2765  -54.4657 H         1 UNK         0.0800 
    245 H245        0.7937  -19.8745  -53.4574 H         1 UNK         0.0800 
    246 H246       -0.6357  -19.7707  -51.0718 H         1 UNK         0.0800 
    247 H247       -0.3773  -21.0740  -49.9562 H         1 UNK         0.0800 
@<TRIPOS>BOND
     1    1    2 1    
     2    1  127 1    
     3    1  128 1    
     4    1  129 1    
     5    2    3 2    
     6    2    4 am   BACKBONE|DICT|INTERRES
     7    4    5 1    
     8    4  130 1    
     9    5    6 1    
    10    5   65 1    
    11    5  131 1    
    12    6    7 1    
    13    6  132 1    
    14    6  133 1    
    15    7    8 1    
    16    8    9 1    
    17    8  134 1    
    18    8  135 1    
    19    9   10 ar   
    20    9   14 ar   
    21   10   11 ar   
    22   10  136 1    
    23   11   12 ar   
    24   11  126 1    
    25   12   13 ar   
    26   12  137 1    
    27   13   14 ar   
    28   13   15 1    
    29   14  138 1    
    30   15   16 1    
    31   15  139 1    
    32   15  140 1    
    33   16   17 1    
    34   17   18 1    
    35   17  141 1    
    36   17  142 1    
    37   18   19 1    
    38   18   67 1    
    39   18  143 1    
    40   19   20 am   BACKBONE|DICT|INTERRES
    41   19  144 1    
    42   20   21 2    
    43   20   22 1    
    44   22   23 1    
    45   22   24 1    
    46   22  145 1    
    47   23  146 1    
    48   23  147 1    
    49   23  148 1    
    50   24   25 am   BACKBONE|DICT|INTERRES
    51   24  149 1    
    52   25   26 2    
    53   25   27 1    
    54   27   28 1    
    55   27   29 1    
    56   27  150 1    
    57   28  151 1    
    58   28  152 1    
    59   28  153 1    
    60   29   30 am   BACKBONE|DICT|INTERRES
    61   29  154 1    
    62   30   31 2    
    63   30   32 1    
    64   32   33 1    
    65   32   34 1    
    66   32  155 1    
    67   33  156 1    
    68   33  157 1    
    69   33  158 1    
    70   34   35 am   BACKBONE|DICT|INTERRES
    71   34  159 1    
    72   35   36 2    
    73   35   37 1    
    74   37   38 1    
    75   37   39 1    
    76   37  160 1    
    77   38  161 1    
    78   38  162 1    
    79   38  163 1    
    80   39   40 am   BACKBONE|DICT|INTERRES
    81   39  164 1    
    82   40   41 2    
    83   40   42 1    
    84   42   43 1    
    85   42   44 1    
    86   42  165 1    
    87   43  166 1    
    88   43  167 1    
    89   43  168 1    
    90   44   45 am   BACKBONE|DICT|INTERRES
    91   44  169 1    
    92   45   46 2    
    93   45   47 1    
    94   47   48 1    
    95   47   49 1    
    96   47  170 1    
    97   48  171 1    
    98   48  172 1    
    99   48  173 1    
   100   49   50 am   BACKBONE|DICT|INTERRES
   101   49  174 1    
   102   50   51 2    
   103   50   52 1    
   104   52   53 1    
   105   52   54 1    
   106   52  175 1    
   107   53  176 1    
   108   53  177 1    
   109   53  178 1    
   110   54   55 am   BACKBONE|DICT|INTERRES
   111   54  179 1    
   112   55   56 2    
   113   55   57 1    
   114   57   58 1    
   115   57   59 1    
   116   57  180 1    
   117   58  181 1    
   118   58  182 1    
   119   58  183 1    
   120   59   60 am   BACKBONE|DICT|INTERRES
   121   59  184 1    
   122   60   61 2    
   123   60   62 1    
   124   62   63 1    
   125   62   64 1    
   126   62  185 1    
   127   63  186 1    
   128   63  187 1    
   129   63  188 1    
   130   64   65 am   BACKBONE|DICT|INTERRES
   131   64  189 1    
   132   65   66 2    
   133   67   68 2    
   134   67   69 am   BACKBONE|DICT|INTERRES
   135   69   70 1    
   136   69  190 1    
   137   70   71 1    
   138   70   72 1    
   139   70  191 1    
   140   71  192 1    
   141   71  193 1    
   142   71  194 1    
   143   72   73 2    
   144   72   74 am   BACKBONE|DICT|INTERRES
   145   74   75 1    
   146   74  195 1    
   147   75   76 1    
   148   75   77 1    
   149   75  196 1    
   150   76  197 1    
   151   76  198 1    
   152   76  199 1    
   153   77   78 2    
   154   77   79 am   BACKBONE|DICT|INTERRES
   155   79   80 1    
   156   79  200 1    
   157   80   81 1    
   158   80   82 1    
   159   80  201 1    
   160   81  202 1    
   161   81  203 1    
   162   81  204 1    
   163   82   83 2    
   164   82   84 am   BACKBONE|DICT|INTERRES
   165   84   85 1    
   166   84  205 1    
   167   85   86 1    
   168   85   87 1    
   169   85  206 1    
   170   86  207 1    
   171   86  208 1    
   172   86  209 1    
   173   87   88 2    
   174   87   89 am   BACKBONE|DICT|INTERRES
   175   89   90 1    
   176   89  210 1    
   177   90   91 1    
   178   90   92 1    
   179   90  211 1    
   180   91  212 1    
   181   91  213 1    
   182   91  214 1    
   183   92   93 2    
   184   92   94 am   BACKBONE|DICT|INTERRES
   185   94   95 1    
   186   94  215 1    
   187   95   96 1    
   188   95   97 1    
   189   95  216 1    
   190   96  217 1    
   191   96  218 1    
   192   96  219 1    
   193   97   98 2    
   194   97   99 am   BACKBONE|DICT|INTERRES
   195   99  100 1    
   196   99  220 1    
   197  100  101 1    
   198  100  102 1    
   199  100  221 1    
   200  101  222 1    
   201  101  223 1    
   202  101  224 1    
   203  102  103 2    
   204  102  104 am   BACKBONE|DICT|INTERRES
   205  104  105 1    
   206  104  225 1    
   207  105  106 1    
   208  105  107 1    
   209  105  226 1    
   210  106  227 1    
   211  106  228 1    
   212  106  229 1    
   213  107  108 2    
   214  107  109 am   BACKBONE|DICT|INTERRES
   215  109  110 1    
   216  109  230 1    
   217  110  111 1    
   218  110  112 1    
   219  110  231 1    
   220  111  232 1    
   221  111  233 1    
   222  111  234 1    
   223  112  113 2    
   224  112  114 am   BACKBONE|DICT|INTERRES
   225  114  115 1    
   226  114  235 1    
   227  115  116 1    
   228  115  117 1    
   229  115  236 1    
   230  116  237 1    
   231  116  238 1    
   232  116  239 1    
   233  117  118 2    
   234  117  119 am   BACKBONE|DICT|INTERRES
   235  119  120 1    
   236  119  240 1    
   237  120  121 1    
   238  120  124 1    
   239  120  241 1    
   240  121  122 am   BACKBONE|DICT|INTERRES
   241  121  123 2    
   242  122  242 1    
   243  122  243 1    
   244  124  125 1    
   245  124  244 1    
   246  124  245 1    
   247  125  126 1    
   248  126  246 1    
   249  126  247 1    
@<TRIPOS>SUBSTRUCTURE
     1 UNK         1 GROUP             0       ****    0 ROOT    
