@<TRIPOS>MOLECULE
3R540
247   249    1
SMALL
USER_CHARGES


@<TRIPOS>ATOM
      1 CA         -0.2320  -12.2530  -46.6677 C.3       0 UNK        -0.1800 
      2 C           1.1510  -11.8099  -47.1214 C.2       0 UNK         0.5000 
      3 O           1.3346  -10.6480  -47.4862 O.2       0 UNK        -0.5000 
      4 N           2.1255  -12.7264  -47.0891 N.am      1 UNK        -0.5000 
      5 CA          3.5282  -12.4931  -47.4484 C.3       1 UNK         0.1400 
      6 C6          4.3185  -13.8195  -47.5494 C.3       23 UNK        -0.0398 
      7 S7          3.9412  -14.7277  -49.0831 S.3       23 UNK        -0.2404 
      8 C8          2.5387  -15.7780  -48.5924 C.3       23 UNK        -0.0205 
      9 C9          2.1687  -16.7223  -49.7230 C.ar      23 UNK        -0.0193 
     10 C10         1.4856  -16.2401  -50.8436 C.ar      23 UNK        -0.1150 
     11 C11         1.1952  -17.0880  -51.9156 C.ar      23 UNK        -0.0193 
     12 C12         1.5771  -18.4318  -51.8517 C.ar      23 UNK        -0.1150 
     13 C13         2.2489  -18.9292  -50.7307 C.ar      23 UNK        -0.0193 
     14 C14         2.5400  -18.0687  -49.6678 C.ar      23 UNK        -0.1150 
     15 C15         2.6922  -20.3863  -50.6816 C.3       23 UNK        -0.0205 
     16 S16         1.2896  -21.5427  -50.5755 S.3       23 UNK        -0.2404 
     17 C17         0.5139  -21.0409  -49.0033 C.3       23 UNK        -0.0398 
     18 CA          0.1175  -22.2567  -48.1325 C.3       11 UNK         0.1400 
     19 N           0.1405  -21.9387  -46.7032 N.am      11 UNK        -0.5000 
     20 C           0.0187  -22.8399  -45.7181 C.2       10 UNK         0.5000 
     21 O          -0.0652  -24.0537  -45.9052 O.2       10 UNK        -0.5000 
     22 CA         -0.0850  -22.2852  -44.2862 C.3       10 UNK         0.1400 
     23 CB          1.3069  -21.9750  -43.7164 C.3       10 UNK        -0.1800 
     24 N          -0.9297  -21.0914  -44.2171 N.am      10 UNK        -0.5000 
     25 C          -2.2412  -21.0824  -44.4953 C.2       9 UNK         0.5000 
     26 O          -2.8853  -22.0993  -44.7511 O.2       9 UNK        -0.5000 
     27 CA         -2.9412  -19.7115  -44.5463 C.3       9 UNK         0.1400 
     28 CB         -3.3513  -19.2581  -43.1384 C.3       9 UNK        -0.1800 
     29 N          -2.1224  -18.6773  -45.1826 N.am      9 UNK        -0.5000 
     30 C          -1.7366  -18.6901  -46.4672 C.2       8 UNK         0.5000 
     31 O          -2.0673  -19.5624  -47.2686 O.2       8 UNK        -0.5000 
     32 CA         -0.7738  -17.5767  -46.9195 C.3       8 UNK         0.1400 
     33 CB         -1.5330  -16.2922  -47.2825 C.3       8 UNK        -0.1800 
     34 N           0.2348  -17.2837  -45.9013 N.am      8 UNK        -0.5000 
     35 C           1.2223  -18.1245  -45.5628 C.2       7 UNK         0.5000 
     36 O           1.4216  -19.2039  -46.1200 O.2       7 UNK        -0.5000 
     37 CA          2.0996  -17.7081  -44.3693 C.3       7 UNK         0.1400 
     38 CB          3.2027  -16.7349  -44.8095 C.3       7 UNK        -0.1800 
     39 N           1.3098  -17.1019  -43.2962 N.am      7 UNK        -0.5000 
     40 C           0.4705  -17.7919  -42.5087 C.2       6 UNK         0.5000 
     41 O           0.3002  -19.0064  -42.6007 O.2       6 UNK        -0.5000 
     42 CA         -0.3440  -16.9985  -41.4681 C.3       6 UNK         0.1400 
     43 CB          0.4295  -16.9025  -40.1450 C.3       6 UNK        -0.1800 
     44 N          -0.7048  -15.6520  -41.9097 N.am      6 UNK        -0.5000 
     45 C          -1.4381  -15.3581  -42.9929 C.2       5 UNK         0.5000 
     46 O          -1.9462  -16.2071  -43.7239 O.2       5 UNK        -0.5000 
     47 CA         -1.5745  -13.8661  -43.3537 C.3       5 UNK         0.1400 
     48 CB         -2.8857  -13.2942  -42.7968 C.3       5 UNK        -0.1800 
     49 N          -0.4525  -13.0441  -42.8866 N.am      5 UNK        -0.5000 
     50 C           0.8272  -13.2124  -43.2444 C.2       4 UNK         0.5000 
     51 O           1.2010  -14.0646  -44.0538 O.2       4 UNK        -0.5000 
     52 CA          1.8427  -12.2622  -42.5900 C.3       4 UNK         0.1400 
     53 CB          3.2057  -12.9405  -42.3676 C.3       4 UNK        -0.1800 
     54 N           2.0001  -11.0696  -43.4199 N.am      4 UNK        -0.5000 
     55 C           1.1591  -10.0233  -43.3956 C.2       3 UNK         0.5000 
     56 O           0.2135   -9.9493  -42.6087 O.2       3 UNK        -0.5000 
     57 CA          1.3530   -8.8917  -44.4291 C.3       3 UNK         0.1400 
     58 CB          1.2370   -7.4892  -43.7962 C.3       3 UNK        -0.1800 
     59 N           2.5585   -9.0179  -45.2539 N.am      3 UNK        -0.5000 
     60 C           3.8407   -8.8475  -44.8945 C.2       2 UNK         0.5000 
     61 O           4.2014   -8.4824  -43.7749 O.2       2 UNK        -0.5000 
     62 CA          4.8892   -9.1863  -45.9812 C.3       2 UNK         0.1400 
     63 CB          6.2997   -9.4307  -45.4045 C.3       2 UNK        -0.1800 
     64 N           4.4704  -10.3097  -46.8335 N.am      2 UNK        -0.5000 
     65 C           4.1618  -11.5462  -46.4147 C.2       1 UNK         0.5000 
     66 O           4.2876  -11.9264  -45.2516 O.2       1 UNK        -0.5000 
     67 C          -1.2387  -22.8572  -48.5628 C.2       11 UNK         0.5000 
     68 O          -1.2579  -23.8806  -49.2442 O.2       11 UNK        -0.5000 
     69 N          -2.3449  -22.2507  -48.1054 N.am      12 UNK        -0.5000 
     70 CA         -3.7146  -22.7292  -48.3047 C.3       12 UNK         0.1400 
     71 CB         -4.7104  -21.7271  -47.6992 C.3       12 UNK        -0.1800 
     72 C          -3.9453  -24.1333  -47.7242 C.2       12 UNK         0.5000 
     73 O          -4.5212  -24.9805  -48.4061 O.2       12 UNK        -0.5000 
     74 N          -3.4623  -24.3638  -46.4956 N.am      13 UNK        -0.5000 
     75 CA         -3.5078  -25.6561  -45.8125 C.3       13 UNK         0.1400 
     76 CB         -3.0285  -25.4933  -44.3624 C.3       13 UNK        -0.1800 
     77 C          -2.6985  -26.7407  -46.5459 C.2       13 UNK         0.5000 
     78 O          -3.2167  -27.8367  -46.7628 O.2       13 UNK        -0.5000 
     79 N          -1.4688  -26.4033  -46.9623 N.am      14 UNK        -0.5000 
     80 CA         -0.5853  -27.2711  -47.7482 C.3       14 UNK         0.1400 
     81 CB          0.7914  -26.6047  -47.8896 C.3       14 UNK        -0.1800 
     82 C          -1.1611  -27.6288  -49.1327 C.2       14 UNK         0.5000 
     83 O          -0.9770  -28.7532  -49.5993 O.2       14 UNK        -0.5000 
     84 N          -1.8833  -26.6798  -49.7401 N.am      15 UNK        -0.5000 
     85 CA         -2.6032  -26.8274  -51.0048 C.3       15 UNK         0.1400 
     86 CB         -2.7370  -25.4397  -51.6477 C.3       15 UNK        -0.1800 
     87 C          -3.9797  -27.5166  -50.8663 C.2       15 UNK         0.5000 
     88 O          -4.7028  -27.6001  -51.8595 O.2       15 UNK        -0.5000 
     89 N          -4.3185  -28.0011  -49.6615 N.am      16 UNK        -0.5000 
     90 CA         -5.5412  -28.7261  -49.3035 C.3       16 UNK         0.1400 
     91 CB         -5.6426  -30.0633  -50.0685 C.3       16 UNK        -0.1800 
     92 C          -6.8087  -27.8550  -49.4152 C.2       16 UNK         0.5000 
     93 O          -7.7939  -28.2600  -50.0352 O.2       16 UNK        -0.5000 
     94 N          -6.7501  -26.6760  -48.7822 N.am      17 UNK        -0.5000 
     95 CA         -7.8079  -25.6696  -48.6531 C.3       17 UNK         0.1400 
     96 CB         -9.0631  -26.2434  -47.9610 C.3       17 UNK        -0.1800 
     97 C          -8.1105  -24.9333  -49.9724 C.2       17 UNK         0.5000 
     98 O          -9.2635  -24.5901  -50.2429 O.2       17 UNK        -0.5000 
     99 N          -7.0571  -24.6671  -50.7551 N.am      18 UNK        -0.5000 
    100 CA        -7.0904  -23.7430  -51.8901 C.3       18 UNK         0.1400 
    101 CB        -5.8867  -24.0307  -52.8013 C.3       18 UNK        -0.1800 
    102 C         -7.0429  -22.2836  -51.3974 C.2       18 UNK         0.5000 
    103 O         -6.7079  -22.0348  -50.2370 O.2       18 UNK        -0.5000 
    104 N         -7.3064  -21.3272  -52.2970 N.am      19 UNK        -0.5000 
    105 CA        -7.2122  -19.8819  -52.0480 C.3       19 UNK         0.1400 
    106 CB        -8.0516  -19.1435  -53.1060 C.3       19 UNK        -0.1800 
    107 C         -5.7439  -19.3961  -52.0075 C.2       19 UNK         0.5000 
    108 O         -5.3399  -18.5599  -52.8169 O.2       19 UNK        -0.5000 
    109 N         -4.9543  -20.0003  -51.1080 N.am      20 UNK        -0.5000 
    110 CA        -3.5078  -19.8455  -50.8960 C.3       20 UNK         0.1400 
    111 CB        -3.1736  -18.4239  -50.4037 C.3       20 UNK        -0.1800 
    112 C         -2.6260  -20.2921  -52.0841 C.2       20 UNK         0.5000 
    113 O         -1.4093  -20.1424  -52.0151 O.2       20 UNK        -0.5000 
    114 N         -3.2448  -20.8471  -53.1392 N.am      21 UNK        -0.5000 
    115 CA        -2.6433  -21.3237  -54.3917 C.3       21 UNK         0.1400 
    116 CB        -1.7535  -22.5557  -54.1285 C.3       21 UNK        -0.1800 
    117 C         -1.9180  -20.2269  -55.2063 C.2       21 UNK         0.5000 
    118 O         -1.0726  -20.5467  -56.0445 O.2       21 UNK        -0.5000 
    119 N         -2.2566  -18.9571  -54.9530 N.am      22 UNK        -0.5000 
    120 CA        -1.6497  -17.7819  -55.5916 C.3       22 UNK         0.1400 
    121 C         -2.1554  -17.5621  -57.0438 C.2       22 UNK         0.5000 
    122 N         -1.3319  -16.9910  -57.9126 N.am      22 UNK        -0.7600 
    123 O         -3.2971  -17.8665  -57.3834 O.2       22 UNK        -0.5000 
    124 C124       -1.8374  -16.4967  -54.7417 C.3       23 UNK        -0.0398 
    125 S125       -1.3077  -16.6900  -53.0048 S.3       23 UNK        -0.2404 
    126 C126        0.4973  -16.5497  -53.1548 C.3       23 UNK        -0.0205 
    127 H127       -0.9643  -12.0610  -47.4517 H         1 UNK         0.0600 
    128 H128       -0.5299  -11.7004  -45.7768 H         1 UNK         0.0600 
    129 H129       -0.2564  -13.3176  -46.4345 H         1 UNK         0.0600 
    130 H130        1.9246  -13.6323  -46.6925 H         1 UNK         0.3000 
    131 H131        3.5531  -12.0010  -48.4233 H         1 UNK         0.0600 
    132 H132        5.3922  -13.6228  -47.5665 H         1 UNK         0.0800 
    133 H133        4.1469  -14.4542  -46.6792 H         1 UNK         0.0800 
    134 H134        1.6766  -15.1601  -48.3406 H         1 UNK         0.0800 
    135 H135        2.7979  -16.3418  -47.6966 H         1 UNK         0.0800 
    136 H136        1.2032  -15.1977  -50.8913 H         1 UNK         0.1150 
    137 H137        1.3475  -19.0950  -52.6743 H         1 UNK         0.1150 
    138 H138        3.0706  -18.4428  -48.8032 H         1 UNK         0.1150 
    139 H139        3.2661  -20.6128  -51.5810 H         1 UNK         0.0800 
    140 H140        3.3637  -20.5614  -49.8396 H         1 UNK         0.0800 
    141 H141       -0.3362  -20.3894  -49.2148 H         1 UNK         0.0800 
    142 H142        1.2301  -20.4238  -48.4611 H         1 UNK         0.0800 
    143 H143        0.8716  -23.0343  -48.2735 H         1 UNK         0.0600 
    144 H144        0.2406  -20.9611  -46.4562 H         1 UNK         0.3000 
    145 H145       -0.5421  -23.0566  -43.6631 H         1 UNK         0.0600 
    146 H146        1.2440  -21.6614  -42.6743 H         1 UNK         0.0600 
    147 H147        1.9487  -22.8561  -43.7525 H         1 UNK         0.0600 
    148 H148        1.8050  -21.1820  -44.2743 H         1 UNK         0.0600 
    149 H149       -0.4781  -20.2278  -43.9324 H         1 UNK         0.3000 
    150 H150       -3.8495  -19.8223  -45.1413 H         1 UNK         0.0600 
    151 H151       -4.0296  -19.9791  -42.6806 H         1 UNK         0.0600 
    152 H152       -3.8659  -18.2974  -43.1652 H         1 UNK         0.0600 
    153 H153       -2.4882  -19.1597  -42.4814 H         1 UNK         0.0600 
    154 H154       -1.8641  -17.8817  -44.6053 H         1 UNK         0.3000 
    155 H155       -0.2604  -17.9276  -47.8178 H         1 UNK         0.0600 
    156 H156       -2.2806  -16.4875  -48.0522 H         1 UNK         0.0600 
    157 H157       -0.8563  -15.5334  -47.6753 H         1 UNK         0.0600 
    158 H158       -2.0512  -15.8685  -46.4220 H         1 UNK         0.0600 
    159 H159        0.1116  -16.4394  -45.3612 H         1 UNK         0.3000 
    160 H160        2.5796  -18.6076  -43.9776 H         1 UNK         0.0600 
    161 H161        2.7874  -15.8174  -45.2254 H         1 UNK         0.0600 
    162 H162        3.8391  -17.1855  -45.5720 H         1 UNK         0.0600 
    163 H163        3.8440  -16.4602  -43.9719 H         1 UNK         0.0600 
    164 H164        1.3619  -16.0948  -43.2062 H         1 UNK         0.3000 
    165 H165       -1.2701  -17.5446  -41.2822 H         1 UNK         0.0600 
    166 H166       -0.1681  -16.4188  -39.3721 H         1 UNK         0.0600 
    167 H167        0.6948  -17.8940  -39.7752 H         1 UNK         0.0600 
    168 H168        1.3548  -16.3362  -40.2592 H         1 UNK         0.0600 
    169 H169       -0.3331  -14.8856  -41.3691 H         1 UNK         0.3000 
    170 H170       -1.6086  -13.7991  -44.4423 H         1 UNK         0.0600 
    171 H171       -3.7433  -13.8707  -43.1466 H         1 UNK         0.0600 
    172 H172       -2.9011  -13.3106  -41.7063 H         1 UNK         0.0600 
    173 H173       -3.0349  -12.2637  -43.1200 H         1 UNK         0.0600 
    174 H174       -0.6801  -12.2827  -42.2612 H         1 UNK         0.3000 
    175 H175        1.4670  -11.9708  -41.6067 H         1 UNK         0.0600 
    176 H176        3.6094  -13.3723  -43.2829 H         1 UNK         0.0600 
    177 H177        3.9400  -12.2354  -41.9779 H         1 UNK         0.0600 
    178 H178        3.1170  -13.7523  -41.6449 H         1 UNK         0.0600 
    179 H179        2.7512  -11.0984  -44.1003 H         1 UNK         0.3000 
    180 H180        0.5208   -8.9954  -45.1268 H         1 UNK         0.0600 
    181 H181        1.9716   -7.3357  -43.0056 H         1 UNK         0.0600 
    182 H182        0.2517   -7.3423  -43.3526 H         1 UNK         0.0600 
    183 H183        1.3746   -6.7060  -44.5417 H         1 UNK         0.0600 
    184 H184        2.3808   -9.3643  -46.1913 H         1 UNK         0.3000 
    185 H185        4.9457   -8.3111  -46.6299 H         1 UNK         0.0600 
    186 H186        6.6696   -8.5439  -44.8887 H         1 UNK         0.0600 
    187 H187        6.3097  -10.2523  -44.6876 H         1 UNK         0.0600 
    188 H188        7.0130   -9.6661  -46.1943 H         1 UNK         0.0600 
    189 H189        4.3015  -10.0769  -47.8028 H         1 UNK         0.3000 
    190 H190       -2.2402  -21.3798  -47.5896 H         1 UNK         0.3000 
    191 H191       -3.8954  -22.7856  -49.3799 H         1 UNK         0.0600 
    192 H192       -4.5586  -21.5986  -46.6297 H         1 UNK         0.0600 
    193 H193       -5.7372  -22.0680  -47.8321 H         1 UNK         0.0600 
    194 H194       -4.6287  -20.7453  -48.1640 H         1 UNK         0.0600 
    195 H195       -3.0482  -23.5906  -45.9822 H         1 UNK         0.3000 
    196 H196       -4.5502  -25.9803  -45.7886 H         1 UNK         0.0600 
    197 H197       -3.0789  -26.4414  -43.8256 H         1 UNK         0.0600 
    198 H198       -3.6491  -24.7789  -43.8212 H         1 UNK         0.0600 
    199 H199       -1.9977  -25.1422  -44.3136 H         1 UNK         0.0600 
    200 H200       -1.1027  -25.4868  -46.7185 H         1 UNK         0.3000 
    201 H201       -0.4573  -28.2029  -47.1937 H         1 UNK         0.0600 
    202 H202        1.2419  -26.4202  -46.9142 H         1 UNK         0.0600 
    203 H203        0.7241  -25.6500  -48.4121 H         1 UNK         0.0600 
    204 H204        1.4781  -27.2395  -48.4508 H         1 UNK         0.0600 
    205 H205       -1.9209  -25.7586  -49.3137 H         1 UNK         0.3000 
    206 H206       -2.0055  -27.4487  -51.6746 H         1 UNK         0.0600 
    207 H207       -1.7589  -24.9833  -51.8011 H         1 UNK         0.0600 
    208 H208       -3.2213  -25.4997  -52.6227 H         1 UNK         0.0600 
    209 H209       -3.3222  -24.7676  -51.0201 H         1 UNK         0.0600 
    210 H210       -3.6726  -27.8497  -48.8961 H         1 UNK         0.3000 
    211 H211       -5.4410  -28.9719  -48.2452 H         1 UNK         0.0600 
    212 H212       -5.7978  -29.9135  -51.1371 H         1 UNK         0.0600 
    213 H213       -6.4784  -30.6589  -49.6997 H         1 UNK         0.0600 
    214 H214       -4.7390  -30.6594  -49.9407 H         1 UNK         0.0600 
    215 H215       -5.8504  -26.3837  -48.4106 H         1 UNK         0.3000 
    216 H216       -7.4011  -24.9077  -47.9865 H         1 UNK         0.0600 
    217 H217       -9.7680  -25.4488  -47.7139 H         1 UNK         0.0600 
    218 H218       -8.8050  -26.7470  -47.0294 H         1 UNK         0.0600 
    219 H219       -9.5895  -26.9568  -48.5953 H         1 UNK         0.0600 
    220 H220       -6.1451  -24.9555  -50.4302 H         1 UNK         0.3000 
    221 H221       -8.0112  -23.8993  -52.4559 H         1 UNK         0.0600 
    222 H222       -4.9502  -23.7240  -52.3362 H         1 UNK         0.0600 
    223 H223       -5.8141  -25.0915  -53.0436 H         1 UNK         0.0600 
    224 H224       -5.9706  -23.4893  -53.7441 H         1 UNK         0.0600 
    225 H225       -7.5500  -21.5986  -53.2388 H         1 UNK         0.3000 
    226 H226       -7.6487  -19.6651  -51.0706 H         1 UNK         0.0600 
    227 H227       -9.0942  -19.4603  -53.0732 H         1 UNK         0.0600 
    228 H228       -8.0365  -18.0662  -52.9357 H         1 UNK         0.0600 
    229 H229       -7.6779  -19.3225  -54.1150 H         1 UNK         0.0600 
    230 H230       -5.4066  -20.7086  -50.5342 H         1 UNK         0.3000 
    231 H231       -3.2463  -20.5251  -50.0878 H         1 UNK         0.0600 
    232 H232       -3.7103  -18.1945  -49.4833 H         1 UNK         0.0600 
    233 H233       -3.4339  -17.6659  -51.1416 H         1 UNK         0.0600 
    234 H234       -2.1090  -18.3205  -50.1884 H         1 UNK         0.0600 
    235 H235       -4.2520  -20.8905  -53.1003 H         1 UNK         0.3000 
    236 H236       -3.4753  -21.6511  -55.0165 H         1 UNK         0.0600 
    237 H237       -1.4085  -23.0008  -55.0623 H         1 UNK         0.0600 
    238 H238       -0.8706  -22.3011  -53.5411 H         1 UNK         0.0600 
    239 H239       -2.3045  -23.3255  -53.5903 H         1 UNK         0.0600 
    240 H240       -2.9659  -18.7731  -54.2579 H         1 UNK         0.3000 
    241 H241       -0.5780  -17.9769  -55.6573 H         1 UNK         0.0600 
    242 H242       -1.6518  -16.8294  -58.8554 H         1 UNK         0.3800 
    243 H243       -0.3918  -16.7269  -57.6604 H         1 UNK         0.3800 
    244 H244       -1.2916  -15.6602  -55.1816 H         1 UNK         0.0800 
    245 H245       -2.8885  -16.2023  -54.7331 H         1 UNK         0.0800 
    246 H246        0.7670  -15.5056  -53.3201 H         1 UNK         0.0800 
    247 H247        0.8438  -17.0993  -54.0303 H         1 UNK         0.0800 
@<TRIPOS>BOND
     1    1    2 1    
     2    1  127 1    
     3    1  128 1    
     4    1  129 1    
     5    2    3 2    
     6    2    4 am   BACKBONE|DICT|INTERRES
     7    4    5 1    
     8    4  130 1    
     9    5    6 1    
    10    5   65 1    
    11    5  131 1    
    12    6    7 1    
    13    6  132 1    
    14    6  133 1    
    15    7    8 1    
    16    8    9 1    
    17    8  134 1    
    18    8  135 1    
    19    9   10 ar   
    20    9   14 ar   
    21   10   11 ar   
    22   10  136 1    
    23   11   12 ar   
    24   11  126 1    
    25   12   13 ar   
    26   12  137 1    
    27   13   14 ar   
    28   13   15 1    
    29   14  138 1    
    30   15   16 1    
    31   15  139 1    
    32   15  140 1    
    33   16   17 1    
    34   17   18 1    
    35   17  141 1    
    36   17  142 1    
    37   18   19 1    
    38   18   67 1    
    39   18  143 1    
    40   19   20 am   BACKBONE|DICT|INTERRES
    41   19  144 1    
    42   20   21 2    
    43   20   22 1    
    44   22   23 1    
    45   22   24 1    
    46   22  145 1    
    47   23  146 1    
    48   23  147 1    
    49   23  148 1    
    50   24   25 am   BACKBONE|DICT|INTERRES
    51   24  149 1    
    52   25   26 2    
    53   25   27 1    
    54   27   28 1    
    55   27   29 1    
    56   27  150 1    
    57   28  151 1    
    58   28  152 1    
    59   28  153 1    
    60   29   30 am   BACKBONE|DICT|INTERRES
    61   29  154 1    
    62   30   31 2    
    63   30   32 1    
    64   32   33 1    
    65   32   34 1    
    66   32  155 1    
    67   33  156 1    
    68   33  157 1    
    69   33  158 1    
    70   34   35 am   BACKBONE|DICT|INTERRES
    71   34  159 1    
    72   35   36 2    
    73   35   37 1    
    74   37   38 1    
    75   37   39 1    
    76   37  160 1    
    77   38  161 1    
    78   38  162 1    
    79   38  163 1    
    80   39   40 am   BACKBONE|DICT|INTERRES
    81   39  164 1    
    82   40   41 2    
    83   40   42 1    
    84   42   43 1    
    85   42   44 1    
    86   42  165 1    
    87   43  166 1    
    88   43  167 1    
    89   43  168 1    
    90   44   45 am   BACKBONE|DICT|INTERRES
    91   44  169 1    
    92   45   46 2    
    93   45   47 1    
    94   47   48 1    
    95   47   49 1    
    96   47  170 1    
    97   48  171 1    
    98   48  172 1    
    99   48  173 1    
   100   49   50 am   BACKBONE|DICT|INTERRES
   101   49  174 1    
   102   50   51 2    
   103   50   52 1    
   104   52   53 1    
   105   52   54 1    
   106   52  175 1    
   107   53  176 1    
   108   53  177 1    
   109   53  178 1    
   110   54   55 am   BACKBONE|DICT|INTERRES
   111   54  179 1    
   112   55   56 2    
   113   55   57 1    
   114   57   58 1    
   115   57   59 1    
   116   57  180 1    
   117   58  181 1    
   118   58  182 1    
   119   58  183 1    
   120   59   60 am   BACKBONE|DICT|INTERRES
   121   59  184 1    
   122   60   61 2    
   123   60   62 1    
   124   62   63 1    
   125   62   64 1    
   126   62  185 1    
   127   63  186 1    
   128   63  187 1    
   129   63  188 1    
   130   64   65 am   BACKBONE|DICT|INTERRES
   131   64  189 1    
   132   65   66 2    
   133   67   68 2    
   134   67   69 am   BACKBONE|DICT|INTERRES
   135   69   70 1    
   136   69  190 1    
   137   70   71 1    
   138   70   72 1    
   139   70  191 1    
   140   71  192 1    
   141   71  193 1    
   142   71  194 1    
   143   72   73 2    
   144   72   74 am   BACKBONE|DICT|INTERRES
   145   74   75 1    
   146   74  195 1    
   147   75   76 1    
   148   75   77 1    
   149   75  196 1    
   150   76  197 1    
   151   76  198 1    
   152   76  199 1    
   153   77   78 2    
   154   77   79 am   BACKBONE|DICT|INTERRES
   155   79   80 1    
   156   79  200 1    
   157   80   81 1    
   158   80   82 1    
   159   80  201 1    
   160   81  202 1    
   161   81  203 1    
   162   81  204 1    
   163   82   83 2    
   164   82   84 am   BACKBONE|DICT|INTERRES
   165   84   85 1    
   166   84  205 1    
   167   85   86 1    
   168   85   87 1    
   169   85  206 1    
   170   86  207 1    
   171   86  208 1    
   172   86  209 1    
   173   87   88 2    
   174   87   89 am   BACKBONE|DICT|INTERRES
   175   89   90 1    
   176   89  210 1    
   177   90   91 1    
   178   90   92 1    
   179   90  211 1    
   180   91  212 1    
   181   91  213 1    
   182   91  214 1    
   183   92   93 2    
   184   92   94 am   BACKBONE|DICT|INTERRES
   185   94   95 1    
   186   94  215 1    
   187   95   96 1    
   188   95   97 1    
   189   95  216 1    
   190   96  217 1    
   191   96  218 1    
   192   96  219 1    
   193   97   98 2    
   194   97   99 am   BACKBONE|DICT|INTERRES
   195   99  100 1    
   196   99  220 1    
   197  100  101 1    
   198  100  102 1    
   199  100  221 1    
   200  101  222 1    
   201  101  223 1    
   202  101  224 1    
   203  102  103 2    
   204  102  104 am   BACKBONE|DICT|INTERRES
   205  104  105 1    
   206  104  225 1    
   207  105  106 1    
   208  105  107 1    
   209  105  226 1    
   210  106  227 1    
   211  106  228 1    
   212  106  229 1    
   213  107  108 2    
   214  107  109 am   BACKBONE|DICT|INTERRES
   215  109  110 1    
   216  109  230 1    
   217  110  111 1    
   218  110  112 1    
   219  110  231 1    
   220  111  232 1    
   221  111  233 1    
   222  111  234 1    
   223  112  113 2    
   224  112  114 am   BACKBONE|DICT|INTERRES
   225  114  115 1    
   226  114  235 1    
   227  115  116 1    
   228  115  117 1    
   229  115  236 1    
   230  116  237 1    
   231  116  238 1    
   232  116  239 1    
   233  117  118 2    
   234  117  119 am   BACKBONE|DICT|INTERRES
   235  119  120 1    
   236  119  240 1    
   237  120  121 1    
   238  120  124 1    
   239  120  241 1    
   240  121  122 am   BACKBONE|DICT|INTERRES
   241  121  123 2    
   242  122  242 1    
   243  122  243 1    
   244  124  125 1    
   245  124  244 1    
   246  124  245 1    
   247  125  126 1    
   248  126  246 1    
   249  126  247 1    
@<TRIPOS>SUBSTRUCTURE
     1 UNK         1 GROUP             0       ****    0 ROOT    
