@<TRIPOS>MOLECULE
3R540
247   249    1
SMALL
USER_CHARGES


@<TRIPOS>ATOM
      1 CA          6.4777  -15.2557  -50.3217 C.3       0 UNK        -0.1800 
      2 C           5.6602  -14.9453  -49.0763 C.2       0 UNK         0.5000 
      3 O           5.2518  -15.8640  -48.3673 O.2       0 UNK        -0.5000 
      4 N           5.4229  -13.6552  -48.8063 N.am      1 UNK        -0.5000 
      5 CA          4.6234  -13.1766  -47.6702 C.3       1 UNK         0.1400 
      6 C6          3.9612  -11.8043  -47.9427 C.3       23 UNK        -0.0398 
      7 S7          2.8934  -11.8125  -49.4277 S.3       23 UNK        -0.2404 
      8 C8          1.3163  -12.4472  -48.7685 C.3       23 UNK        -0.0205 
      9 C9          0.9170  -13.7541  -49.4399 C.ar      23 UNK        -0.0193 
     10 C10        -0.0379  -13.7692  -50.4620 C.ar      23 UNK        -0.1150 
     11 C11        -0.4228  -14.9764  -51.0545 C.ar      23 UNK        -0.0193 
     12 C12         0.1825  -16.1636  -50.6383 C.ar      23 UNK        -0.1150 
     13 C13         1.1301  -16.1727  -49.6096 C.ar      23 UNK        -0.0193 
     14 C14         1.4790  -14.9603  -49.0151 C.ar      23 UNK        -0.1150 
     15 C15         1.7720  -17.4519  -49.0652 C.3       23 UNK        -0.0205 
     16 S16         1.5962  -18.9492  -50.0945 S.3       23 UNK        -0.2404 
     17 C17        -0.1297  -19.4359  -49.7622 C.3       23 UNK        -0.0398 
     18 CA         -0.2363  -20.5163  -48.6536 C.3       11 UNK         0.1400 
     19 N          -0.7087  -19.9516  -47.3849 N.am      11 UNK        -0.5000 
     20 C          -0.8289  -20.6284  -46.2342 C.2       10 UNK         0.5000 
     21 O          -0.4955  -21.8038  -46.0866 O.2       10 UNK        -0.5000 
     22 CA         -1.5003  -19.8804  -45.0710 C.3       10 UNK         0.1400 
     23 CB         -0.5070  -18.9404  -44.3671 C.3       10 UNK        -0.1800 
     24 N          -2.6839  -19.1413  -45.5196 N.am      10 UNK        -0.5000 
     25 C          -3.8192  -19.7301  -45.9277 C.2       9 UNK         0.5000 
     26 O          -3.9976  -20.9461  -45.9137 O.2       9 UNK        -0.5000 
     27 CA         -4.9233  -18.8257  -46.5003 C.3       9 UNK         0.1400 
     28 CB         -5.8762  -18.3416  -45.3999 C.3       9 UNK        -0.1800 
     29 N          -4.3796  -17.6821  -47.2300 N.am      9 UNK        -0.5000 
     30 C          -3.7951  -17.7853  -48.4316 C.2       8 UNK         0.5000 
     31 O          -3.6854  -18.8465  -49.0443 O.2       8 UNK        -0.5000 
     32 CA         -3.2026  -16.5029  -49.0379 C.3       8 UNK         0.1400 
     33 CB         -4.2731  -15.7381  -49.8286 C.3       8 UNK        -0.1800 
     34 N          -2.6141  -15.6009  -48.0503 N.am      8 UNK        -0.5000 
     35 C          -1.6188  -15.9057  -47.2080 C.2       7 UNK         0.5000 
     36 O          -1.0881  -17.0166  -47.1524 O.2       7 UNK        -0.5000 
     37 CA         -1.1646  -14.7998  -46.2325 C.3       7 UNK         0.1400 
     38 CB         -1.7337  -13.4010  -46.5569 C.3       7 UNK        -0.1800 
     39 N          -1.4432  -15.1351  -44.8322 N.am      7 UNK        -0.5000 
     40 C          -2.6087  -15.5445  -44.3026 C.2       6 UNK         0.5000 
     41 O          -3.6270  -15.7393  -44.9681 O.2       6 UNK        -0.5000 
     42 CA         -2.6479  -15.7849  -42.7793 C.3       6 UNK         0.1400 
     43 CB         -3.4868  -17.0198  -42.4045 C.3       6 UNK        -0.1800 
     44 N          -1.3026  -15.9304  -42.2176 N.am      6 UNK        -0.5000 
     45 C          -0.7715  -15.1382  -41.2785 C.2       5 UNK         0.5000 
     46 O          -1.3811  -14.2206  -40.7274 O.2       5 UNK        -0.5000 
     47 CA          0.6998  -15.3988  -40.8941 C.3       5 UNK         0.1400 
     48 CB          0.7737  -16.3092  -39.6588 C.3       5 UNK        -0.1800 
     49 N           1.5451  -15.9689  -41.9513 N.am      5 UNK        -0.5000 
     50 C           1.7466  -15.4492  -43.1695 C.2       4 UNK         0.5000 
     51 O           1.1333  -14.4755  -43.6087 O.2       4 UNK        -0.5000 
     52 CA          2.8527  -16.1084  -44.0116 C.3       4 UNK         0.1400 
     53 CB          2.6719  -15.8527  -45.5171 C.3       4 UNK        -0.1800 
     54 N           4.1507  -15.5891  -43.5809 N.am      4 UNK        -0.5000 
     55 C           4.8501  -16.0688  -42.5416 C.2       3 UNK         0.5000 
     56 O           4.4847  -17.0484  -41.8884 O.2       3 UNK        -0.5000 
     57 CA          6.1374  -15.3201  -42.1254 C.3       3 UNK         0.1400 
     58 CB          7.2355  -16.2737  -41.6081 C.3       3 UNK        -0.1800 
     59 N           6.6679  -14.4024  -43.1415 N.am      3 UNK        -0.5000 
     60 C           7.1861  -14.7161  -44.3370 C.2       2 UNK         0.5000 
     61 O           7.3096  -15.8651  -44.7649 O.2       2 UNK        -0.5000 
     62 CA          7.6009  -13.5238  -45.2219 C.3       2 UNK         0.1400 
     63 CB          9.0530  -13.6651  -45.7064 C.3       2 UNK        -0.1800 
     64 N           6.7207  -13.3856  -46.3817 N.am      2 UNK        -0.5000 
     65 C           5.3961  -13.1825  -46.3342 C.2       1 UNK         0.5000 
     66 O           4.7734  -13.0223  -45.2828 O.2       1 UNK        -0.5000 
     67 C          -1.1182  -21.6933  -49.1137 C.2       11 UNK         0.5000 
     68 O          -0.5959  -22.7696  -49.4044 O.2       11 UNK        -0.5000 
     69 N          -2.4404  -21.4804  -49.1381 N.am      12 UNK        -0.5000 
     70 CA         -3.4155  -22.4880  -49.5445 C.3       12 UNK         0.1400 
     71 CB         -4.7866  -21.8316  -49.7092 C.3       12 UNK        -0.1800 
     72 C          -3.5002  -23.6879  -48.5864 C.2       12 UNK         0.5000 
     73 O          -3.7486  -24.8007  -49.0523 O.2       12 UNK        -0.5000 
     74 N          -3.2921  -23.4566  -47.2831 N.am      13 UNK        -0.5000 
     75 CA         -3.2028  -24.5046  -46.2667 C.3       13 UNK         0.1400 
     76 CB         -3.2996  -23.8910  -44.8625 C.3       13 UNK        -0.1800 
     77 C          -1.9186  -25.3377  -46.4114 C.2       13 UNK         0.5000 
     78 O          -1.9892  -26.5643  -46.3446 O.2       13 UNK        -0.5000 
     79 N          -0.7806  -24.6698  -46.6544 N.am      14 UNK        -0.5000 
     80 CA          0.5178  -25.3016  -46.9091 C.3       14 UNK         0.1400 
     81 CB          1.6168  -24.2288  -46.9381 C.3       14 UNK        -0.1800 
     82 C           0.5324  -26.1361  -48.2043 C.2       14 UNK         0.5000 
     83 O           1.1314  -27.2116  -48.2307 O.2       14 UNK        -0.5000 
     84 N          -0.1655  -25.6463  -49.2377 N.am      15 UNK        -0.5000 
     85 CA         -0.4032  -26.3466  -50.5015 C.3       15 UNK         0.1400 
     86 CB         -0.8760  -25.3232  -51.5464 C.3       15 UNK        -0.1800 
     87 C          -1.4261  -27.4973  -50.3887 C.2       15 UNK         0.5000 
     88 O          -1.5238  -28.3004  -51.3171 O.2       15 UNK        -0.5000 
     89 N          -2.1827  -27.5393  -49.2802 N.am      16 UNK        -0.5000 
     90 CA         -3.2943  -28.4503  -48.9807 C.3       16 UNK         0.1400 
     91 CB         -2.7983  -29.9053  -48.8516 C.3       16 UNK        -0.1800 
     92 C          -4.4821  -28.2977  -49.9567 C.2       16 UNK         0.5000 
     93 O          -5.2156  -29.2585  -50.1970 O.2       16 UNK        -0.5000 
     94 N          -4.6475  -27.0856  -50.4989 N.am      17 UNK        -0.5000 
     95 CA         -5.7028  -26.7152  -51.4370 C.3       17 UNK         0.1400 
     96 CB         -5.1262  -25.7259  -52.4632 C.3       17 UNK        -0.1800 
     97 C          -6.9016  -26.0860  -50.7110 C.2       17 UNK         0.5000 
     98 O          -8.0419  -26.3316  -51.1035 O.2       17 UNK        -0.5000 
     99 N          -6.6150  -25.2692  -49.6830 N.am      18 UNK        -0.5000 
    100 CA        -7.5603  -24.5152  -48.8433 C.3       18 UNK         0.1400 
    101 CB        -8.4077  -25.4792  -47.9886 C.3       18 UNK        -0.1800 
    102 C         -8.4306  -23.4847  -49.6067 C.2       18 UNK         0.5000 
    103 O         -9.4425  -23.0249  -49.0764 O.2       18 UNK        -0.5000 
    104 N         -8.0169  -23.1238  -50.8297 N.am      19 UNK        -0.5000 
    105 CA        -8.7258  -22.2215  -51.7409 C.3       19 UNK         0.1400 
    106 CB        -8.2107  -22.4799  -53.1663 C.3       19 UNK        -0.1800 
    107 C         -8.5875  -20.7256  -51.3907 C.2       19 UNK         0.5000 
    108 O         -9.3519  -19.9193  -51.9213 O.2       19 UNK        -0.5000 
    109 N         -7.6136  -20.3861  -50.5317 N.am      20 UNK        -0.5000 
    110 CA        -7.2102  -19.0339  -50.1269 C.3       20 UNK         0.1400 
    111 CB        -8.3117  -18.3495  -49.2922 C.3       20 UNK        -0.1800 
    112 C         -6.7355  -18.1916  -51.3295 C.2       20 UNK         0.5000 
    113 O         -7.3126  -17.1464  -51.6344 O.2       20 UNK        -0.5000 
    114 N         -5.6878  -18.6844  -51.9973 N.am      21 UNK        -0.5000 
    115 CA        -5.0326  -18.0698  -53.1474 C.3       21 UNK         0.1400 
    116 CB        -5.6444  -18.6369  -54.4395 C.3       21 UNK        -0.1800 
    117 C         -3.5271  -18.3654  -53.0658 C.2       21 UNK         0.5000 
    118 O         -3.1221  -19.2527  -52.3099 O.2       21 UNK        -0.5000 
    119 N         -2.7211  -17.6247  -53.8392 N.am      22 UNK        -0.5000 
    120 CA        -1.2517  -17.7616  -53.8466 C.3       22 UNK         0.1400 
    121 C         -0.7153  -19.0439  -54.5540 C.2       22 UNK         0.5000 
    122 N         -1.5319  -19.8015  -55.2761 N.am      22 UNK        -0.7600 
    123 O          0.4662  -19.3578  -54.4429 O.2       22 UNK        -0.5000 
    124 C124       -0.5136  -16.5028  -54.3891 C.3       23 UNK        -0.0398 
    125 S125       -1.0054  -14.8371  -53.7963 S.3       23 UNK        -0.2404 
    126 C126       -1.5571  -15.0133  -52.0704 C.3       23 UNK        -0.0205 
    127 H127        6.7699  -14.3489  -50.8519 H         1 UNK         0.0600 
    128 H128        5.8975  -15.8766  -51.0043 H         1 UNK         0.0600 
    129 H129        7.3830  -15.7988  -50.0505 H         1 UNK         0.0600 
    130 H130        5.7676  -12.9419  -49.4334 H         1 UNK         0.3000 
    131 H131        3.8169  -13.8853  -47.5140 H         1 UNK         0.0600 
    132 H132        3.3674  -11.4786  -47.0865 H         1 UNK         0.0800 
    133 H133        4.7268  -11.0395  -48.0828 H         1 UNK         0.0800 
    134 H134        1.3792  -12.5982  -47.6900 H         1 UNK         0.0800 
    135 H135        0.5436  -11.6924  -48.9216 H         1 UNK         0.0800 
    136 H136       -0.5010  -12.8451  -50.7785 H         1 UNK         0.1150 
    137 H137       -0.1208  -17.0865  -51.0931 H         1 UNK         0.1150 
    138 H138        2.1877  -14.9700  -48.2060 H         1 UNK         0.1150 
    139 H139        2.8401  -17.2731  -48.9317 H         1 UNK         0.0800 
    140 H140        1.3719  -17.6566  -48.0715 H         1 UNK         0.0800 
    141 H141       -0.5354  -19.7783  -50.7173 H         1 UNK         0.0800 
    142 H142       -0.7272  -18.5626  -49.5024 H         1 UNK         0.0800 
    143 H143        0.7526  -20.9379  -48.4605 H         1 UNK         0.0600 
    144 H144       -0.9775  -18.9721  -47.3922 H         1 UNK         0.3000 
    145 H145       -1.8227  -20.6280  -44.3428 H         1 UNK         0.0600 
    146 H146       -0.9388  -18.5230  -43.4598 H         1 UNK         0.0600 
    147 H147        0.3933  -19.4805  -44.0710 H         1 UNK         0.0600 
    148 H148       -0.1937  -18.1153  -45.0054 H         1 UNK         0.0600 
    149 H149       -2.5874  -18.1428  -45.6393 H         1 UNK         0.3000 
    150 H150       -5.5088  -19.4298  -47.1961 H         1 UNK         0.0600 
    151 H151       -6.3135  -19.1849  -44.8640 H         1 UNK         0.0600 
    152 H152       -6.6979  -17.7606  -45.8189 H         1 UNK         0.0600 
    153 H153       -5.3649  -17.7187  -44.6684 H         1 UNK         0.0600 
    154 H154       -4.3679  -16.7919  -46.7451 H         1 UNK         0.3000 
    155 H155       -2.4110  -16.8036  -49.7236 H         1 UNK         0.0600 
    156 H156       -5.1503  -15.5206  -49.2177 H         1 UNK         0.0600 
    157 H157       -4.6045  -16.3164  -50.6890 H         1 UNK         0.0600 
    158 H158       -3.8913  -14.7906  -50.2072 H         1 UNK         0.0600 
    159 H159       -3.0103  -14.6743  -47.9974 H         1 UNK         0.3000 
    160 H160       -0.0803  -14.7409  -46.3295 H         1 UNK         0.0600 
    161 H161       -2.8148  -13.3544  -46.4205 H         1 UNK         0.0600 
    162 H162       -1.5095  -13.1082  -47.5835 H         1 UNK         0.0600 
    163 H163       -1.2898  -12.6457  -45.9083 H         1 UNK         0.0600 
    164 H164       -0.6633  -14.9747  -44.2019 H         1 UNK         0.3000 
    165 H165       -3.1425  -14.9096  -42.3543 H         1 UNK         0.0600 
    166 H166       -3.4448  -17.2138  -41.3327 H         1 UNK         0.0600 
    167 H167       -4.5358  -16.8670  -42.6580 H         1 UNK         0.0600 
    168 H168       -3.1497  -17.9180  -42.9207 H         1 UNK         0.0600 
    169 H169       -0.7230  -16.6576  -42.6094 H         1 UNK         0.3000 
    170 H170        1.1332  -14.4326  -40.6284 H         1 UNK         0.0600 
    171 H171        0.1831  -15.9037  -38.8361 H         1 UNK         0.0600 
    172 H172        0.3942  -17.3089  -39.8741 H         1 UNK         0.0600 
    173 H173        1.7990  -16.4084  -39.3016 H         1 UNK         0.0600 
    174 H174        2.1344  -16.7433  -41.6734 H         1 UNK         0.3000 
    175 H175        2.8137  -17.1887  -43.8551 H         1 UNK         0.0600 
    176 H176        2.6201  -14.7876  -45.7414 H         1 UNK         0.0600 
    177 H177        3.4938  -16.2783  -46.0934 H         1 UNK         0.0600 
    178 H178        1.7505  -16.3106  -45.8785 H         1 UNK         0.0600 
    179 H179        4.4777  -14.7493  -44.0453 H         1 UNK         0.3000 
    180 H180        5.8431  -14.6872  -41.2871 H         1 UNK         0.0600 
    181 H181        8.1279  -15.7237  -41.3096 H         1 UNK         0.0600 
    182 H182        7.5274  -17.0050  -42.3621 H         1 UNK         0.0600 
    183 H183        6.8925  -16.8288  -40.7343 H         1 UNK         0.0600 
    184 H184        6.5751  -13.4214  -42.9152 H         1 UNK         0.3000 
    185 H185        7.5300  -12.6046  -44.6368 H         1 UNK         0.0600 
    186 H186        9.7365  -13.7690  -44.8628 H         1 UNK         0.0600 
    187 H187        9.1831  -14.5406  -46.3441 H         1 UNK         0.0600 
    188 H188        9.3674  -12.7882  -46.2726 H         1 UNK         0.0600 
    189 H189        7.1394  -13.5448  -47.2860 H         1 UNK         0.3000 
    190 H190       -2.8031  -20.5530  -48.9334 H         1 UNK         0.3000 
    191 H191       -3.1089  -22.8696  -50.5206 H         1 UNK         0.0600 
    192 H192       -4.7377  -21.0178  -50.4318 H         1 UNK         0.0600 
    193 H193       -5.5068  -22.5558  -50.0810 H         1 UNK         0.0600 
    194 H194       -5.1590  -21.4317  -48.7652 H         1 UNK         0.0600 
    195 H195       -3.1790  -22.5019  -46.9601 H         1 UNK         0.3000 
    196 H196       -4.0527  -25.1783  -46.3972 H         1 UNK         0.0600 
    197 H197       -3.2182  -24.6595  -44.0929 H         1 UNK         0.0600 
    198 H198       -4.2566  -23.3895  -44.7188 H         1 UNK         0.0600 
    199 H199       -2.5090  -23.1616  -44.6847 H         1 UNK         0.0600 
    200 H200       -0.7958  -23.6536  -46.6556 H         1 UNK         0.3000 
    201 H201        0.7270  -25.9785  -46.0782 H         1 UNK         0.0600 
    202 H202        1.6659  -23.6904  -45.9915 H         1 UNK         0.0600 
    203 H203        1.4463  -23.4976  -47.7288 H         1 UNK         0.0600 
    204 H204        2.5965  -24.6765  -47.1093 H         1 UNK         0.0600 
    205 H205       -0.5498  -24.7087  -49.1591 H         1 UNK         0.3000 
    206 H206        0.5409  -26.7761  -50.8426 H         1 UNK         0.0600 
    207 H207       -0.1466  -24.5232  -51.6748 H         1 UNK         0.0600 
    208 H208       -1.0181  -25.7927  -52.5206 H         1 UNK         0.0600 
    209 H209       -1.8249  -24.8685  -51.2605 H         1 UNK         0.0600 
    210 H210       -2.0105  -26.8364  -48.5732 H         1 UNK         0.3000 
    211 H211       -3.6731  -28.1469  -48.0039 H         1 UNK         0.0600 
    212 H212       -2.4720  -30.3103  -49.8098 H         1 UNK         0.0600 
    213 H213       -3.5885  -30.5558  -48.4750 H         1 UNK         0.0600 
    214 H214       -1.9630  -29.9752  -48.1548 H         1 UNK         0.0600 
    215 H215       -4.0382  -26.3394  -50.1782 H         1 UNK         0.3000 
    216 H216       -6.0540  -27.5989  -51.9741 H         1 UNK         0.0600 
    217 H217       -4.3069  -26.1772  -53.0233 H         1 UNK         0.0600 
    218 H218       -4.7440  -24.8220  -51.9867 H         1 UNK         0.0600 
    219 H219       -5.8856  -25.4231  -53.1855 H         1 UNK         0.0600 
    220 H220       -5.6360  -25.1601  -49.4380 H         1 UNK         0.3000 
    221 H221       -6.9456  -23.9298  -48.1579 H         1 UNK         0.0600 
    222 H222       -9.0988  -26.0605  -48.5995 H         1 UNK         0.0600 
    223 H223       -7.7758  -26.1777  -47.4401 H         1 UNK         0.0600 
    224 H224       -9.0009  -24.9354  -47.2525 H         1 UNK         0.0600 
    225 H225       -7.1946  -23.5753  -51.1993 H         1 UNK         0.3000 
    226 H226       -9.7895  -22.4669  -51.7118 H         1 UNK         0.0600 
    227 H227       -8.3594  -23.5201  -53.4574 H         1 UNK         0.0600 
    228 H228       -8.7405  -21.8625  -53.8930 H         1 UNK         0.0600 
    229 H229       -7.1475  -22.2533  -53.2577 H         1 UNK         0.0600 
    230 H230       -7.0561  -21.1389  -50.1592 H         1 UNK         0.3000 
    231 H231       -6.3455  -19.1534  -49.4752 H         1 UNK         0.0600 
    232 H232       -7.9680  -17.3862  -48.9134 H         1 UNK         0.0600 
    233 H233       -8.5861  -18.9577  -48.4303 H         1 UNK         0.0600 
    234 H234       -9.2146  -18.1679  -49.8756 H         1 UNK         0.0600 
    235 H235       -5.1993  -19.4956  -51.6404 H         1 UNK         0.3000 
    236 H236       -5.1674  -16.9864  -53.1206 H         1 UNK         0.0600 
    237 H237       -6.7140  -18.4315  -54.4902 H         1 UNK         0.0600 
    238 H238       -5.1871  -18.1904  -55.3230 H         1 UNK         0.0600 
    239 H239       -5.5098  -19.7173  -54.5067 H         1 UNK         0.0600 
    240 H240       -3.1101  -16.9218  -54.4513 H         1 UNK         0.3000 
    241 H241       -0.9509  -17.8923  -52.8113 H         1 UNK         0.0600 
    242 H242       -1.1721  -20.6287  -55.7255 H         1 UNK         0.3800 
    243 H243       -2.5042  -19.5598  -55.3751 H         1 UNK         0.3800 
    244 H244        0.5550  -16.5988  -54.1882 H         1 UNK         0.0800 
    245 H245       -0.6021  -16.4748  -55.4765 H         1 UNK         0.0800 
    246 H246       -2.2403  -14.1889  -51.8628 H         1 UNK         0.0800 
    247 H247       -2.1497  -15.9152  -51.9400 H         1 UNK         0.0800 
@<TRIPOS>BOND
     1    1    2 1    
     2    1  127 1    
     3    1  128 1    
     4    1  129 1    
     5    2    3 2    
     6    2    4 am   BACKBONE|DICT|INTERRES
     7    4    5 1    
     8    4  130 1    
     9    5    6 1    
    10    5   65 1    
    11    5  131 1    
    12    6    7 1    
    13    6  132 1    
    14    6  133 1    
    15    7    8 1    
    16    8    9 1    
    17    8  134 1    
    18    8  135 1    
    19    9   10 ar   
    20    9   14 ar   
    21   10   11 ar   
    22   10  136 1    
    23   11   12 ar   
    24   11  126 1    
    25   12   13 ar   
    26   12  137 1    
    27   13   14 ar   
    28   13   15 1    
    29   14  138 1    
    30   15   16 1    
    31   15  139 1    
    32   15  140 1    
    33   16   17 1    
    34   17   18 1    
    35   17  141 1    
    36   17  142 1    
    37   18   19 1    
    38   18   67 1    
    39   18  143 1    
    40   19   20 am   BACKBONE|DICT|INTERRES
    41   19  144 1    
    42   20   21 2    
    43   20   22 1    
    44   22   23 1    
    45   22   24 1    
    46   22  145 1    
    47   23  146 1    
    48   23  147 1    
    49   23  148 1    
    50   24   25 am   BACKBONE|DICT|INTERRES
    51   24  149 1    
    52   25   26 2    
    53   25   27 1    
    54   27   28 1    
    55   27   29 1    
    56   27  150 1    
    57   28  151 1    
    58   28  152 1    
    59   28  153 1    
    60   29   30 am   BACKBONE|DICT|INTERRES
    61   29  154 1    
    62   30   31 2    
    63   30   32 1    
    64   32   33 1    
    65   32   34 1    
    66   32  155 1    
    67   33  156 1    
    68   33  157 1    
    69   33  158 1    
    70   34   35 am   BACKBONE|DICT|INTERRES
    71   34  159 1    
    72   35   36 2    
    73   35   37 1    
    74   37   38 1    
    75   37   39 1    
    76   37  160 1    
    77   38  161 1    
    78   38  162 1    
    79   38  163 1    
    80   39   40 am   BACKBONE|DICT|INTERRES
    81   39  164 1    
    82   40   41 2    
    83   40   42 1    
    84   42   43 1    
    85   42   44 1    
    86   42  165 1    
    87   43  166 1    
    88   43  167 1    
    89   43  168 1    
    90   44   45 am   BACKBONE|DICT|INTERRES
    91   44  169 1    
    92   45   46 2    
    93   45   47 1    
    94   47   48 1    
    95   47   49 1    
    96   47  170 1    
    97   48  171 1    
    98   48  172 1    
    99   48  173 1    
   100   49   50 am   BACKBONE|DICT|INTERRES
   101   49  174 1    
   102   50   51 2    
   103   50   52 1    
   104   52   53 1    
   105   52   54 1    
   106   52  175 1    
   107   53  176 1    
   108   53  177 1    
   109   53  178 1    
   110   54   55 am   BACKBONE|DICT|INTERRES
   111   54  179 1    
   112   55   56 2    
   113   55   57 1    
   114   57   58 1    
   115   57   59 1    
   116   57  180 1    
   117   58  181 1    
   118   58  182 1    
   119   58  183 1    
   120   59   60 am   BACKBONE|DICT|INTERRES
   121   59  184 1    
   122   60   61 2    
   123   60   62 1    
   124   62   63 1    
   125   62   64 1    
   126   62  185 1    
   127   63  186 1    
   128   63  187 1    
   129   63  188 1    
   130   64   65 am   BACKBONE|DICT|INTERRES
   131   64  189 1    
   132   65   66 2    
   133   67   68 2    
   134   67   69 am   BACKBONE|DICT|INTERRES
   135   69   70 1    
   136   69  190 1    
   137   70   71 1    
   138   70   72 1    
   139   70  191 1    
   140   71  192 1    
   141   71  193 1    
   142   71  194 1    
   143   72   73 2    
   144   72   74 am   BACKBONE|DICT|INTERRES
   145   74   75 1    
   146   74  195 1    
   147   75   76 1    
   148   75   77 1    
   149   75  196 1    
   150   76  197 1    
   151   76  198 1    
   152   76  199 1    
   153   77   78 2    
   154   77   79 am   BACKBONE|DICT|INTERRES
   155   79   80 1    
   156   79  200 1    
   157   80   81 1    
   158   80   82 1    
   159   80  201 1    
   160   81  202 1    
   161   81  203 1    
   162   81  204 1    
   163   82   83 2    
   164   82   84 am   BACKBONE|DICT|INTERRES
   165   84   85 1    
   166   84  205 1    
   167   85   86 1    
   168   85   87 1    
   169   85  206 1    
   170   86  207 1    
   171   86  208 1    
   172   86  209 1    
   173   87   88 2    
   174   87   89 am   BACKBONE|DICT|INTERRES
   175   89   90 1    
   176   89  210 1    
   177   90   91 1    
   178   90   92 1    
   179   90  211 1    
   180   91  212 1    
   181   91  213 1    
   182   91  214 1    
   183   92   93 2    
   184   92   94 am   BACKBONE|DICT|INTERRES
   185   94   95 1    
   186   94  215 1    
   187   95   96 1    
   188   95   97 1    
   189   95  216 1    
   190   96  217 1    
   191   96  218 1    
   192   96  219 1    
   193   97   98 2    
   194   97   99 am   BACKBONE|DICT|INTERRES
   195   99  100 1    
   196   99  220 1    
   197  100  101 1    
   198  100  102 1    
   199  100  221 1    
   200  101  222 1    
   201  101  223 1    
   202  101  224 1    
   203  102  103 2    
   204  102  104 am   BACKBONE|DICT|INTERRES
   205  104  105 1    
   206  104  225 1    
   207  105  106 1    
   208  105  107 1    
   209  105  226 1    
   210  106  227 1    
   211  106  228 1    
   212  106  229 1    
   213  107  108 2    
   214  107  109 am   BACKBONE|DICT|INTERRES
   215  109  110 1    
   216  109  230 1    
   217  110  111 1    
   218  110  112 1    
   219  110  231 1    
   220  111  232 1    
   221  111  233 1    
   222  111  234 1    
   223  112  113 2    
   224  112  114 am   BACKBONE|DICT|INTERRES
   225  114  115 1    
   226  114  235 1    
   227  115  116 1    
   228  115  117 1    
   229  115  236 1    
   230  116  237 1    
   231  116  238 1    
   232  116  239 1    
   233  117  118 2    
   234  117  119 am   BACKBONE|DICT|INTERRES
   235  119  120 1    
   236  119  240 1    
   237  120  121 1    
   238  120  124 1    
   239  120  241 1    
   240  121  122 am   BACKBONE|DICT|INTERRES
   241  121  123 2    
   242  122  242 1    
   243  122  243 1    
   244  124  125 1    
   245  124  244 1    
   246  124  245 1    
   247  125  126 1    
   248  126  246 1    
   249  126  247 1    
@<TRIPOS>SUBSTRUCTURE
     1 UNK         1 GROUP             0       ****    0 ROOT    
