@<TRIPOS>MOLECULE
3R540
247   249    1
SMALL
USER_CHARGES


@<TRIPOS>ATOM
      1 CA         -5.6909  -15.0261  -51.3402 C.3       0 UNK        -0.1800 
      2 C          -4.7333  -14.2195  -50.4754 C.2       0 UNK         0.5000 
      3 O          -4.9768  -13.0336  -50.2508 O.2       0 UNK        -0.5000 
      4 N          -3.6542  -14.8500  -49.9952 N.am      1 UNK        -0.5000 
      5 CA         -2.7141  -14.2765  -49.0287 C.3       1 UNK         0.1400 
      6 C6         -1.2316  -14.6740  -49.2948 C.3       23 UNK        -0.0398 
      7 S7         -0.9349  -16.4535  -49.5721 S.3       23 UNK        -0.2404 
      8 C8          0.8469  -16.5043  -49.9223 C.3       23 UNK        -0.0205 
      9 C9          1.3420  -17.9424  -50.0074 C.ar      23 UNK        -0.0193 
     10 C10         1.0409  -18.7241  -51.1276 C.ar      23 UNK        -0.1150 
     11 C11         1.4918  -20.0450  -51.2119 C.ar      23 UNK        -0.0193 
     12 C12         2.2531  -20.5796  -50.1717 C.ar      23 UNK        -0.1150 
     13 C13         2.5382  -19.8223  -49.0324 C.ar      23 UNK        -0.0193 
     14 C14         2.0908  -18.4982  -48.9642 C.ar      23 UNK        -0.1150 
     15 C15         3.3094  -20.4340  -47.8646 C.3       23 UNK        -0.0205 
     16 S16         2.7033  -22.0865  -47.3568 S.3       23 UNK        -0.2404 
     17 C17         0.8964  -21.8385  -47.3613 C.3       23 UNK        -0.0398 
     18 CA          0.1316  -22.7314  -46.3611 C.3       11 UNK         0.1400 
     19 N           0.5117  -22.4416  -44.9708 N.am      11 UNK        -0.5000 
     20 C           0.2289  -23.2057  -43.9063 C.2       10 UNK         0.5000 
     21 O          -0.3897  -24.2677  -43.9749 O.2       10 UNK        -0.5000 
     22 CA          0.6364  -22.6454  -42.5337 C.3       10 UNK         0.1400 
     23 CB          2.1293  -22.8848  -42.2594 C.3       10 UNK        -0.1800 
     24 N           0.3345  -21.2142  -42.4500 N.am      10 UNK        -0.5000 
     25 C          -0.8722  -20.7174  -42.1358 C.2       9 UNK         0.5000 
     26 O          -1.8239  -21.4184  -41.7936 O.2       9 UNK        -0.5000 
     27 CA         -1.0653  -19.1890  -42.2351 C.3       9 UNK         0.1400 
     28 CB         -0.8209  -18.5203  -40.8744 C.3       9 UNK        -0.1800 
     29 N          -0.2041  -18.5603  -43.2352 N.am      9 UNK        -0.5000 
     30 C          -0.3031  -18.7564  -44.5566 C.2       8 UNK         0.5000 
     31 O          -1.1837  -19.4311  -45.0835 O.2       8 UNK        -0.5000 
     32 CA          0.8087  -18.1514  -45.4309 C.3       8 UNK         0.1400 
     33 CB          0.3862  -16.7968  -46.0119 C.3       8 UNK        -0.1800 
     34 N           2.0771  -18.0104  -44.7175 N.am      8 UNK        -0.5000 
     35 C           2.8051  -19.0290  -44.2407 C.2       7 UNK         0.5000 
     36 O           2.4577  -20.2061  -44.3519 O.2       7 UNK        -0.5000 
     37 CA          4.0992  -18.6673  -43.4817 C.3       7 UNK         0.1400 
     38 CB          5.1171  -19.8262  -43.4616 C.3       7 UNK        -0.1800 
     39 N           4.7230  -17.4248  -43.9536 N.am      7 UNK        -0.5000 
     40 C           5.2123  -17.1699  -45.1757 C.2       6 UNK         0.5000 
     41 O           5.2196  -17.9864  -46.0981 O.2       6 UNK        -0.5000 
     42 CA          5.7479  -15.7401  -45.4006 C.3       6 UNK         0.1400 
     43 CB          6.3606  -15.5484  -46.8001 C.3       6 UNK        -0.1800 
     44 N           4.6931  -14.7426  -45.2134 N.am      6 UNK        -0.5000 
     45 C           4.2481  -14.2811  -44.0376 C.2       5 UNK         0.5000 
     46 O           4.7275  -14.6267  -42.9545 O.2       5 UNK        -0.5000 
     47 CA          3.0751  -13.2738  -44.0722 C.3       5 UNK         0.1400 
     48 CB          2.3190  -13.2435  -45.4202 C.3       5 UNK        -0.1800 
     49 N           2.1158  -13.4610  -42.9784 N.am      5 UNK        -0.5000 
     50 C           1.4533  -14.5828  -42.6604 C.2       4 UNK         0.5000 
     51 O           1.6385  -15.6718  -43.2021 O.2       4 UNK        -0.5000 
     52 CA          0.3801  -14.4834  -41.5603 C.3       4 UNK         0.1400 
     53 CB          0.6328  -13.3532  -40.5376 C.3       4 UNK        -0.1800 
     54 N          -0.9703  -14.3908  -42.1276 N.am      4 UNK        -0.5000 
     55 C          -1.4638  -13.4214  -42.9119 C.2       3 UNK         0.5000 
     56 O          -0.8150  -12.4501  -43.3053 O.2       3 UNK        -0.5000 
     57 CA         -2.9439  -13.5643  -43.3154 C.3       3 UNK         0.1400 
     58 CB         -3.6028  -12.2027  -43.5988 C.3       3 UNK        -0.1800 
     59 N          -3.1076  -14.4108  -44.4935 N.am      3 UNK        -0.5000 
     60 C          -3.0374  -15.7437  -44.5200 C.2       2 UNK         0.5000 
     61 O          -2.7778  -16.4185  -43.5237 O.2       2 UNK        -0.5000 
     62 CA         -3.3196  -16.4585  -45.8619 C.3       2 UNK         0.1400 
     63 CB         -4.8059  -16.8424  -45.9743 C.3       2 UNK        -0.1800 
     64 N          -2.8741  -15.7831  -47.0937 N.am      2 UNK        -0.5000 
     65 C          -3.2351  -14.6013  -47.6131 C.2       1 UNK         0.5000 
     66 O          -3.9753  -13.7974  -47.0452 O.2       1 UNK        -0.5000 
     67 C          -1.3943  -22.6485  -46.6238 C.2       11 UNK         0.5000 
     68 O          -1.8359  -22.9377  -47.7372 O.2       11 UNK        -0.5000 
     69 N          -2.1881  -22.2642  -45.6148 N.am      12 UNK        -0.5000 
     70 CA         -3.6476  -22.3487  -45.6192 C.3       12 UNK         0.1400 
     71 CB         -4.2025  -21.5567  -44.4276 C.3       12 UNK        -0.1800 
     72 C          -4.1530  -23.8060  -45.6013 C.2       12 UNK         0.5000 
     73 O          -5.2816  -24.0550  -46.0273 O.2       12 UNK        -0.5000 
     74 N          -3.3078  -24.7505  -45.1560 N.am      13 UNK        -0.5000 
     75 CA         -3.5146  -26.1903  -45.3077 C.3       13 UNK         0.1400 
     76 CB         -2.3844  -26.9464  -44.5940 C.3       13 UNK        -0.1800 
     77 C          -3.5743  -26.5703  -46.7996 C.2       13 UNK         0.5000 
     78 O          -2.6887  -26.1802  -47.5626 O.2       13 UNK        -0.5000 
     79 N          -4.6468  -27.2735  -47.1868 N.am      14 UNK        -0.5000 
     80 CA         -5.0349  -27.6059  -48.5657 C.3       14 UNK         0.1400 
     81 CB         -3.9700  -28.4832  -49.2579 C.3       14 UNK        -0.1800 
     82 C          -5.4398  -26.3788  -49.4179 C.2       14 UNK         0.5000 
     83 O          -5.5417  -26.4993  -50.6393 O.2       14 UNK        -0.5000 
     84 N          -5.6942  -25.2346  -48.7613 N.am      15 UNK        -0.5000 
     85 CA         -6.1962  -23.9696  -49.3084 C.3       15 UNK         0.1400 
     86 CB         -7.6283  -24.1496  -49.8554 C.3       15 UNK        -0.1800 
     87 C          -5.2651  -23.2773  -50.3263 C.2       15 UNK         0.5000 
     88 O          -5.7323  -22.4096  -51.0647 O.2       15 UNK        -0.5000 
     89 N          -3.9699  -23.6263  -50.3443 N.am      16 UNK        -0.5000 
     90 CA         -2.9917  -23.0952  -51.2998 C.3       16 UNK         0.1400 
     91 CB         -1.6644  -23.8563  -51.1702 C.3       16 UNK        -0.1800 
     92 C          -2.7813  -21.5769  -51.1612 C.2       16 UNK         0.5000 
     93 O          -2.7932  -20.8656  -52.1672 O.2       16 UNK        -0.5000 
     94 N          -2.6503  -21.1033  -49.9154 N.am      17 UNK        -0.5000 
     95 CA         -2.5664  -19.6792  -49.5904 C.3       17 UNK         0.1400 
     96 CB         -2.0423  -19.5097  -48.1628 C.3       17 UNK        -0.1800 
     97 C          -3.9070  -18.9426  -49.7384 C.2       17 UNK         0.5000 
     98 O          -3.9130  -17.7709  -50.1120 O.2       17 UNK        -0.5000 
     99 N          -5.0168  -19.6359  -49.4520 N.am      18 UNK        -0.5000 
    100 CA        -6.3740  -19.0931  -49.5469 C.3       18 UNK         0.1400 
    101 CB        -7.3526  -20.0341  -48.8292 C.3       18 UNK        -0.1800 
    102 C         -6.8073  -18.8466  -51.0037 C.2       18 UNK         0.5000 
    103 O         -7.4826  -17.8553  -51.2791 O.2       18 UNK        -0.5000 
    104 N         -6.3824  -19.7346  -51.9110 N.am      19 UNK        -0.5000 
    105 CA        -6.5480  -19.5923  -53.3567 C.3       19 UNK         0.1400 
    106 CB        -6.4638  -20.9882  -53.9946 C.3       19 UNK        -0.1800 
    107 C         -5.4949  -18.6617  -53.9911 C.2       19 UNK         0.5000 
    108 O         -5.7053  -18.2018  -55.1138 O.2       19 UNK        -0.5000 
    109 N         -4.3752  -18.4393  -53.2833 N.am      20 UNK        -0.5000 
    110 CA        -3.1382  -17.7969  -53.7424 C.3       20 UNK         0.1400 
    111 CB        -3.3339  -16.2874  -53.9872 C.3       20 UNK        -0.1800 
    112 C         -2.5320  -18.5378  -54.9518 C.2       20 UNK         0.5000 
    113 O         -2.1569  -17.9184  -55.9498 O.2       20 UNK        -0.5000 
    114 N         -2.4519  -19.8709  -54.8308 N.am      21 UNK        -0.5000 
    115 CA        -2.0172  -20.8100  -55.8712 C.3       21 UNK         0.1400 
    116 CB        -2.1965  -22.2406  -55.3391 C.3       21 UNK        -0.1800 
    117 C         -0.5697  -20.5936  -56.3573 C.2       21 UNK         0.5000 
    118 O         -0.2298  -20.9945  -57.4711 O.2       21 UNK        -0.5000 
    119 N          0.2419  -19.9531  -55.5117 N.am      22 UNK        -0.5000 
    120 CA         1.6264  -19.5463  -55.7788 C.3       22 UNK         0.1400 
    121 C          1.7467  -18.2205  -56.5882 C.2       22 UNK         0.5000 
    122 N          0.6668  -17.4976  -56.8668 N.am      22 UNK        -0.7600 
    123 O          2.8465  -17.8428  -56.9826 O.2       22 UNK        -0.5000 
    124 C124        2.4454  -19.4754  -54.4639 C.3       23 UNK        -0.0398 
    125 S125        2.5003  -21.0780  -53.5882 S.3       23 UNK        -0.2404 
    126 C126        1.1286  -20.9212  -52.3985 C.3       23 UNK        -0.0205 
    127 H127       -5.3534  -16.0530  -51.4739 H         1 UNK         0.0600 
    128 H128       -5.7864  -14.5702  -52.3255 H         1 UNK         0.0600 
    129 H129       -6.6783  -15.0552  -50.8797 H         1 UNK         0.0600 
    130 H130       -3.5513  -15.8480  -50.1649 H         1 UNK         0.3000 
    131 H131       -2.7423  -13.1878  -49.1113 H         1 UNK         0.0600 
    132 H132       -0.8838  -14.1472  -50.1844 H         1 UNK         0.0800 
    133 H133       -0.5917  -14.3295  -48.4803 H         1 UNK         0.0800 
    134 H134        1.3863  -15.9594  -49.1462 H         1 UNK         0.0800 
    135 H135        1.0476  -15.9895  -50.8629 H         1 UNK         0.0800 
    136 H136        0.4440  -18.3043  -51.9246 H         1 UNK         0.1150 
    137 H137        2.5983  -21.6019  -50.2362 H         1 UNK         0.1150 
    138 H138        2.3220  -17.9010  -48.0940 H         1 UNK         0.1150 
    139 H139        3.2695  -19.7730  -46.9997 H         1 UNK         0.0800 
    140 H140        4.3622  -20.5114  -48.1380 H         1 UNK         0.0800 
    141 H141        0.5500  -22.0117  -48.3820 H         1 UNK         0.0800 
    142 H142        0.6943  -20.7956  -47.1378 H         1 UNK         0.0800 
    143 H143        0.4097  -23.7677  -46.5637 H         1 UNK         0.0600 
    144 H144        1.0674  -21.6043  -44.8270 H         1 UNK         0.3000 
    145 H145        0.0687  -23.1785  -41.7679 H         1 UNK         0.0600 
    146 H146        2.3521  -23.9523  -42.2433 H         1 UNK         0.0600 
    147 H147        2.4233  -22.4767  -41.2923 H         1 UNK         0.0600 
    148 H148        2.7647  -22.4334  -43.0211 H         1 UNK         0.0600 
    149 H149        1.0544  -20.5850  -42.7808 H         1 UNK         0.3000 
    150 H150       -2.1032  -19.0084  -42.5235 H         1 UNK         0.0600 
    151 H151        0.2172  -18.6211  -40.5556 H         1 UNK         0.0600 
    152 H152       -1.4480  -18.9664  -40.1014 H         1 UNK         0.0600 
    153 H153       -1.0621  -17.4582  -40.9118 H         1 UNK         0.0600 
    154 H154        0.5351  -17.9590  -42.8999 H         1 UNK         0.3000 
    155 H155        0.9809  -18.8272  -46.2655 H         1 UNK         0.0600 
    156 H156        1.1966  -16.3332  -46.5732 H         1 UNK         0.0600 
    157 H157        0.0632  -16.0986  -45.2395 H         1 UNK         0.0600 
    158 H158       -0.4433  -16.9310  -46.7010 H         1 UNK         0.0600 
    159 H159        2.3447  -17.0647  -44.4672 H         1 UNK         0.3000 
    160 H160        3.7968  -18.4785  -42.4509 H         1 UNK         0.0600 
    161 H161        5.4015  -20.1330  -44.4687 H         1 UNK         0.0600 
    162 H162        4.7027  -20.7019  -42.9608 H         1 UNK         0.0600 
    163 H163        6.0240  -19.5468  -42.9257 H         1 UNK         0.0600 
    164 H164        4.7248  -16.6534  -43.2934 H         1 UNK         0.3000 
    165 H165        6.5378  -15.5682  -44.6663 H         1 UNK         0.0600 
    166 H166        7.1729  -16.2559  -46.9714 H         1 UNK         0.0600 
    167 H167        5.6219  -15.6981  -47.5887 H         1 UNK         0.0600 
    168 H168        6.7753  -14.5468  -46.9148 H         1 UNK         0.0600 
    169 H169        4.2295  -14.4286  -46.0534 H         1 UNK         0.3000 
    170 H170        3.5204  -12.2898  -43.9201 H         1 UNK         0.0600 
    171 H171        1.4887  -12.5376  -45.3840 H         1 UNK         0.0600 
    172 H172        1.9059  -14.2192  -45.6745 H         1 UNK         0.0600 
    173 H173        2.9663  -12.9261  -46.2384 H         1 UNK         0.0600 
    174 H174        1.8815  -12.6257  -42.4619 H         1 UNK         0.3000 
    175 H175        0.4206  -15.4264  -41.0135 H         1 UNK         0.0600 
    176 H176        1.6307  -13.4344  -40.1048 H         1 UNK         0.0600 
    177 H177        0.5431  -12.3598  -40.9774 H         1 UNK         0.0600 
    178 H178       -0.0791  -13.4112  -39.7142 H         1 UNK         0.0600 
    179 H179       -1.5677  -15.1907  -41.9600 H         1 UNK         0.3000 
    180 H180       -3.4792  -14.0194  -42.4792 H         1 UNK         0.0600 
    181 H181       -3.1594  -11.7114  -44.4661 H         1 UNK         0.0600 
    182 H182       -3.4939  -11.5303  -42.7469 H         1 UNK         0.0600 
    183 H183       -4.6702  -12.3149  -43.7899 H         1 UNK         0.0600 
    184 H184       -3.3598  -13.9452  -45.3624 H         1 UNK         0.3000 
    185 H185       -2.7573  -17.3908  -45.8222 H         1 UNK         0.0600 
    186 H186       -4.9870  -17.4557  -46.8573 H         1 UNK         0.0600 
    187 H187       -5.4474  -15.9631  -46.0385 H         1 UNK         0.0600 
    188 H188       -5.1269  -17.4205  -45.1068 H         1 UNK         0.0600 
    189 H189       -2.2539  -16.3345  -47.6723 H         1 UNK         0.3000 
    190 H190       -1.7538  -21.9575  -44.7568 H         1 UNK         0.3000 
    191 H191       -4.0147  -21.8857  -46.5371 H         1 UNK         0.0600 
    192 H192       -3.8611  -20.5211  -44.4485 H         1 UNK         0.0600 
    193 H193       -5.2930  -21.5413  -44.4437 H         1 UNK         0.0600 
    194 H194       -3.8943  -21.9936  -43.4774 H         1 UNK         0.0600 
    195 H195       -2.3882  -24.4655  -44.8404 H         1 UNK         0.3000 
    196 H196       -4.4608  -26.4478  -44.8276 H         1 UNK         0.0600 
    197 H197       -2.5313  -28.0248  -44.6639 H         1 UNK         0.0600 
    198 H198       -2.3445  -26.6897  -43.5353 H         1 UNK         0.0600 
    199 H199       -1.4106  -26.7179  -45.0296 H         1 UNK         0.0600 
    200 H200       -5.3206  -27.5383  -46.4810 H         1 UNK         0.3000 
    201 H201       -5.9393  -28.2095  -48.4775 H         1 UNK         0.0600 
    202 H202       -4.3473  -28.8844  -50.1991 H         1 UNK         0.0600 
    203 H203       -3.6912  -29.3326  -48.6343 H         1 UNK         0.0600 
    204 H204       -3.0641  -27.9219  -49.4873 H         1 UNK         0.0600 
    205 H205       -5.5548  -25.2243  -47.7570 H         1 UNK         0.3000 
    206 H206       -6.2589  -23.2848  -48.4621 H         1 UNK         0.0600 
    207 H207       -8.2806  -24.6038  -49.1095 H         1 UNK         0.0600 
    208 H208       -8.0730  -23.1926  -50.1296 H         1 UNK         0.0600 
    209 H209       -7.6451  -24.7798  -50.7449 H         1 UNK         0.0600 
    210 H210       -3.6403  -24.3175  -49.6846 H         1 UNK         0.3000 
    211 H211       -3.3836  -23.2779  -52.3027 H         1 UNK         0.0600 
    212 H212       -1.8096  -24.9272  -51.3130 H         1 UNK         0.0600 
    213 H213       -0.9515  -23.5235  -51.9249 H         1 UNK         0.0600 
    214 H214       -1.2028  -23.7093  -50.1937 H         1 UNK         0.0600 
    215 H215       -2.5838  -21.7650  -49.1472 H         1 UNK         0.3000 
    216 H216       -1.8552  -19.2117  -50.2742 H         1 UNK         0.0600 
    217 H217       -2.6395  -20.0636  -47.4398 H         1 UNK         0.0600 
    218 H218       -2.0575  -18.4675  -47.8529 H         1 UNK         0.0600 
    219 H219       -1.0116  -19.8429  -48.0943 H         1 UNK         0.0600 
    220 H220       -4.9262  -20.6048  -49.1895 H         1 UNK         0.3000 
    221 H221       -6.3898  -18.1307  -49.0306 H         1 UNK         0.0600 
    222 H222       -7.3905  -21.0140  -49.3034 H         1 UNK         0.0600 
    223 H223       -7.0725  -20.1749  -47.7851 H         1 UNK         0.0600 
    224 H224       -8.3639  -19.6258  -48.8423 H         1 UNK         0.0600 
    225 H225       -5.9165  -20.5798  -51.5905 H         1 UNK         0.3000 
    226 H226       -7.5354  -19.1758  -53.5664 H         1 UNK         0.0600 
    227 H227       -7.2269  -21.6533  -53.5898 H         1 UNK         0.0600 
    228 H228       -6.6142  -20.9375  -55.0737 H         1 UNK         0.0600 
    229 H229       -5.4912  -21.4508  -53.8189 H         1 UNK         0.0600 
    230 H230       -4.3159  -18.8796  -52.3760 H         1 UNK         0.3000 
    231 H231       -2.4179  -17.9037  -52.9295 H         1 UNK         0.0600 
    232 H232       -4.0854  -16.0886  -54.7512 H         1 UNK         0.0600 
    233 H233       -2.4039  -15.8205  -54.3138 H         1 UNK         0.0600 
    234 H234       -3.6344  -15.7796  -53.0736 H         1 UNK         0.0600 
    235 H235       -2.7333  -20.2828  -53.9434 H         1 UNK         0.3000 
    236 H236       -2.6743  -20.6755  -56.7326 H         1 UNK         0.0600 
    237 H237       -1.5768  -22.4211  -54.4596 H         1 UNK         0.0600 
    238 H238       -3.2335  -22.4322  -55.0627 H         1 UNK         0.0600 
    239 H239       -1.9197  -22.9778  -56.0939 H         1 UNK         0.0600 
    240 H240       -0.1478  -19.6509  -54.6336 H         1 UNK         0.3000 
    241 H241        2.0836  -20.3141  -56.4059 H         1 UNK         0.0600 
    242 H242       -0.2577  -17.7824  -56.5603 H         1 UNK         0.3800 
    243 H243        0.7694  -16.6471  -57.3974 H         1 UNK         0.3800 
    244 H244        3.4777  -19.1924  -54.6764 H         1 UNK         0.0800 
    245 H245        2.0535  -18.7015  -53.8034 H         1 UNK         0.0800 
    246 H246        0.2281  -20.5513  -52.8877 H         1 UNK         0.0800 
    247 H247        0.8769  -21.9182  -52.0356 H         1 UNK         0.0800 
@<TRIPOS>BOND
     1    1    2 1    
     2    1  127 1    
     3    1  128 1    
     4    1  129 1    
     5    2    3 2    
     6    2    4 am   BACKBONE|DICT|INTERRES
     7    4    5 1    
     8    4  130 1    
     9    5    6 1    
    10    5   65 1    
    11    5  131 1    
    12    6    7 1    
    13    6  132 1    
    14    6  133 1    
    15    7    8 1    
    16    8    9 1    
    17    8  134 1    
    18    8  135 1    
    19    9   10 ar   
    20    9   14 ar   
    21   10   11 ar   
    22   10  136 1    
    23   11   12 ar   
    24   11  126 1    
    25   12   13 ar   
    26   12  137 1    
    27   13   14 ar   
    28   13   15 1    
    29   14  138 1    
    30   15   16 1    
    31   15  139 1    
    32   15  140 1    
    33   16   17 1    
    34   17   18 1    
    35   17  141 1    
    36   17  142 1    
    37   18   19 1    
    38   18   67 1    
    39   18  143 1    
    40   19   20 am   BACKBONE|DICT|INTERRES
    41   19  144 1    
    42   20   21 2    
    43   20   22 1    
    44   22   23 1    
    45   22   24 1    
    46   22  145 1    
    47   23  146 1    
    48   23  147 1    
    49   23  148 1    
    50   24   25 am   BACKBONE|DICT|INTERRES
    51   24  149 1    
    52   25   26 2    
    53   25   27 1    
    54   27   28 1    
    55   27   29 1    
    56   27  150 1    
    57   28  151 1    
    58   28  152 1    
    59   28  153 1    
    60   29   30 am   BACKBONE|DICT|INTERRES
    61   29  154 1    
    62   30   31 2    
    63   30   32 1    
    64   32   33 1    
    65   32   34 1    
    66   32  155 1    
    67   33  156 1    
    68   33  157 1    
    69   33  158 1    
    70   34   35 am   BACKBONE|DICT|INTERRES
    71   34  159 1    
    72   35   36 2    
    73   35   37 1    
    74   37   38 1    
    75   37   39 1    
    76   37  160 1    
    77   38  161 1    
    78   38  162 1    
    79   38  163 1    
    80   39   40 am   BACKBONE|DICT|INTERRES
    81   39  164 1    
    82   40   41 2    
    83   40   42 1    
    84   42   43 1    
    85   42   44 1    
    86   42  165 1    
    87   43  166 1    
    88   43  167 1    
    89   43  168 1    
    90   44   45 am   BACKBONE|DICT|INTERRES
    91   44  169 1    
    92   45   46 2    
    93   45   47 1    
    94   47   48 1    
    95   47   49 1    
    96   47  170 1    
    97   48  171 1    
    98   48  172 1    
    99   48  173 1    
   100   49   50 am   BACKBONE|DICT|INTERRES
   101   49  174 1    
   102   50   51 2    
   103   50   52 1    
   104   52   53 1    
   105   52   54 1    
   106   52  175 1    
   107   53  176 1    
   108   53  177 1    
   109   53  178 1    
   110   54   55 am   BACKBONE|DICT|INTERRES
   111   54  179 1    
   112   55   56 2    
   113   55   57 1    
   114   57   58 1    
   115   57   59 1    
   116   57  180 1    
   117   58  181 1    
   118   58  182 1    
   119   58  183 1    
   120   59   60 am   BACKBONE|DICT|INTERRES
   121   59  184 1    
   122   60   61 2    
   123   60   62 1    
   124   62   63 1    
   125   62   64 1    
   126   62  185 1    
   127   63  186 1    
   128   63  187 1    
   129   63  188 1    
   130   64   65 am   BACKBONE|DICT|INTERRES
   131   64  189 1    
   132   65   66 2    
   133   67   68 2    
   134   67   69 am   BACKBONE|DICT|INTERRES
   135   69   70 1    
   136   69  190 1    
   137   70   71 1    
   138   70   72 1    
   139   70  191 1    
   140   71  192 1    
   141   71  193 1    
   142   71  194 1    
   143   72   73 2    
   144   72   74 am   BACKBONE|DICT|INTERRES
   145   74   75 1    
   146   74  195 1    
   147   75   76 1    
   148   75   77 1    
   149   75  196 1    
   150   76  197 1    
   151   76  198 1    
   152   76  199 1    
   153   77   78 2    
   154   77   79 am   BACKBONE|DICT|INTERRES
   155   79   80 1    
   156   79  200 1    
   157   80   81 1    
   158   80   82 1    
   159   80  201 1    
   160   81  202 1    
   161   81  203 1    
   162   81  204 1    
   163   82   83 2    
   164   82   84 am   BACKBONE|DICT|INTERRES
   165   84   85 1    
   166   84  205 1    
   167   85   86 1    
   168   85   87 1    
   169   85  206 1    
   170   86  207 1    
   171   86  208 1    
   172   86  209 1    
   173   87   88 2    
   174   87   89 am   BACKBONE|DICT|INTERRES
   175   89   90 1    
   176   89  210 1    
   177   90   91 1    
   178   90   92 1    
   179   90  211 1    
   180   91  212 1    
   181   91  213 1    
   182   91  214 1    
   183   92   93 2    
   184   92   94 am   BACKBONE|DICT|INTERRES
   185   94   95 1    
   186   94  215 1    
   187   95   96 1    
   188   95   97 1    
   189   95  216 1    
   190   96  217 1    
   191   96  218 1    
   192   96  219 1    
   193   97   98 2    
   194   97   99 am   BACKBONE|DICT|INTERRES
   195   99  100 1    
   196   99  220 1    
   197  100  101 1    
   198  100  102 1    
   199  100  221 1    
   200  101  222 1    
   201  101  223 1    
   202  101  224 1    
   203  102  103 2    
   204  102  104 am   BACKBONE|DICT|INTERRES
   205  104  105 1    
   206  104  225 1    
   207  105  106 1    
   208  105  107 1    
   209  105  226 1    
   210  106  227 1    
   211  106  228 1    
   212  106  229 1    
   213  107  108 2    
   214  107  109 am   BACKBONE|DICT|INTERRES
   215  109  110 1    
   216  109  230 1    
   217  110  111 1    
   218  110  112 1    
   219  110  231 1    
   220  111  232 1    
   221  111  233 1    
   222  111  234 1    
   223  112  113 2    
   224  112  114 am   BACKBONE|DICT|INTERRES
   225  114  115 1    
   226  114  235 1    
   227  115  116 1    
   228  115  117 1    
   229  115  236 1    
   230  116  237 1    
   231  116  238 1    
   232  116  239 1    
   233  117  118 2    
   234  117  119 am   BACKBONE|DICT|INTERRES
   235  119  120 1    
   236  119  240 1    
   237  120  121 1    
   238  120  124 1    
   239  120  241 1    
   240  121  122 am   BACKBONE|DICT|INTERRES
   241  121  123 2    
   242  122  242 1    
   243  122  243 1    
   244  124  125 1    
   245  124  244 1    
   246  124  245 1    
   247  125  126 1    
   248  126  246 1    
   249  126  247 1    
@<TRIPOS>SUBSTRUCTURE
     1 UNK         1 GROUP             0       ****    0 ROOT    
