@<TRIPOS>MOLECULE
3R540
247   249    1
SMALL
USER_CHARGES


@<TRIPOS>ATOM
      1 CA         -2.4519  -10.0793  -45.5441 C.3       0 UNK        -0.1800 
      2 C          -2.3749  -11.5923  -45.6882 C.2       0 UNK         0.5000 
      3 O          -2.3853  -12.1003  -46.8084 O.2       0 UNK        -0.5000 
      4 N          -2.3018  -12.3110  -44.5604 N.am      1 UNK        -0.5000 
      5 CA         -2.1806  -13.7753  -44.4969 C.3       1 UNK         0.1400 
      6 C6         -2.4600  -14.3184  -43.0733 C.3       23 UNK        -0.0398 
      7 S7         -4.1023  -13.8220  -42.4476 S.3       23 UNK        -0.2404 
      8 C8         -4.8371  -15.4237  -41.9745 C.3       23 UNK        -0.0205 
      9 C9         -4.9854  -16.4151  -43.1255 C.ar      23 UNK        -0.0193 
     10 C10        -5.4178  -16.0052  -44.3912 C.ar      23 UNK        -0.1150 
     11 C11        -5.5683  -16.9241  -45.4341 C.ar      23 UNK        -0.0193 
     12 C12        -5.3001  -18.2782  -45.1899 C.ar      23 UNK        -0.1150 
     13 C13        -4.8780  -18.7053  -43.9272 C.ar      23 UNK        -0.0193 
     14 C14        -4.7213  -17.7685  -42.9028 C.ar      23 UNK        -0.1150 
     15 C15        -4.6280  -20.1804  -43.6504 C.3       23 UNK        -0.0205 
     16 S16        -2.8645  -20.5247  -43.3680 S.3       23 UNK        -0.2404 
     17 C17        -2.9129  -22.3040  -42.9887 C.3       23 UNK        -0.0398 
     18 CA         -2.5250  -23.1722  -44.2079 C.3       11 UNK         0.1400 
     19 N          -1.1071  -23.0348  -44.5856 N.am      11 UNK        -0.5000 
     20 C          -0.5472  -23.5959  -45.6687 C.2       10 UNK         0.5000 
     21 O          -1.1830  -24.2969  -46.4591 O.2       10 UNK        -0.5000 
     22 CA          0.9566  -23.3773  -45.9103 C.3       10 UNK         0.1400 
     23 CB          1.2980  -23.3087  -47.4098 C.3       10 UNK        -0.1800 
     24 N           1.4738  -22.1795  -45.2496 N.am      10 UNK        -0.5000 
     25 C           2.6693  -22.1057  -44.6460 C.2       9 UNK         0.5000 
     26 O           3.3905  -23.0858  -44.4533 O.2       9 UNK        -0.5000 
     27 CA          3.1817  -20.7183  -44.2063 C.3       9 UNK         0.1400 
     28 CB          4.3626  -20.2793  -45.0875 C.3       9 UNK        -0.1800 
     29 N           2.1608  -19.6749  -44.2551 N.am      9 UNK        -0.5000 
     30 C           1.2256  -19.4776  -43.3178 C.2       8 UNK         0.5000 
     31 O           1.1448  -20.1423  -42.2846 O.2       8 UNK        -0.5000 
     32 CA          0.2003  -18.3569  -43.5832 C.3       8 UNK         0.1400 
     33 CB          0.6631  -17.0557  -42.9088 C.3       8 UNK        -0.1800 
     34 N          -0.0744  -18.0866  -44.9992 N.am      8 UNK        -0.5000 
     35 C          -0.4244  -18.9812  -45.9366 C.2       7 UNK         0.5000 
     36 O          -0.5259  -20.1909  -45.7426 O.2       7 UNK        -0.5000 
     37 CA         -0.6326  -18.4364  -47.3562 C.3       7 UNK         0.1400 
     38 CB         -2.0627  -17.9048  -47.5022 C.3       7 UNK        -0.1800 
     39 N           0.3384  -17.3994  -47.7197 N.am      7 UNK        -0.5000 
     40 C           1.6646  -17.5927  -47.7946 C.2       6 UNK         0.5000 
     41 O           2.2026  -18.6782  -47.5693 O.2       6 UNK        -0.5000 
     42 CA          2.5347  -16.3652  -48.1379 C.3       6 UNK         0.1400 
     43 CB          3.9326  -16.7413  -48.6722 C.3       6 UNK        -0.1800 
     44 N           1.8711  -15.4035  -49.0220 N.am      6 UNK        -0.5000 
     45 C           1.4993  -15.5878  -50.2973 C.2       5 UNK         0.5000 
     46 O           1.6911  -16.6203  -50.9386 O.2       5 UNK        -0.5000 
     47 CA          0.8404  -14.3782  -50.9818 C.3       5 UNK         0.1400 
     48 CB         -0.5796  -14.1382  -50.4469 C.3       5 UNK        -0.1800 
     49 N           1.6327  -13.1609  -50.8081 N.am      5 UNK        -0.5000 
     50 C           2.7905  -12.9093  -51.4368 C.2       4 UNK         0.5000 
     51 O           3.2987  -13.6707  -52.2606 O.2       4 UNK        -0.5000 
     52 CA          3.4961  -11.5763  -51.1145 C.3       4 UNK         0.1400 
     53 CB          3.2374  -10.5496  -52.2284 C.3       4 UNK        -0.1800 
     54 N           3.0783  -10.9987  -49.8359 N.am      4 UNK        -0.5000 
     55 C           3.4912  -11.4286  -48.6370 C.2       3 UNK         0.5000 
     56 O           4.3277  -12.3223  -48.4880 O.2       3 UNK        -0.5000 
     57 CA          2.8724  -10.7520  -47.3919 C.3       3 UNK         0.1400 
     58 CB          1.6142   -9.9042  -47.6934 C.3       3 UNK        -0.1800 
     59 N           2.5812  -11.7139  -46.3237 N.am      3 UNK        -0.5000 
     60 C           1.8007  -12.8005  -46.4136 C.2       2 UNK         0.5000 
     61 O           1.2251  -13.1462  -47.4470 O.2       2 UNK        -0.5000 
     62 CA          1.6080  -13.6385  -45.1364 C.3       2 UNK         0.1400 
     63 CB          2.5744  -13.2844  -43.9888 C.3       2 UNK        -0.1800 
     64 N           0.2387  -13.4527  -44.6753 N.am      2 UNK        -0.5000 
     65 C          -0.7934  -14.2495  -44.9786 C.2       1 UNK         0.5000 
     66 O          -0.6845  -15.3100  -45.5951 O.2       1 UNK        -0.5000 
     67 C          -2.9378  -24.6391  -43.9630 C.2       11 UNK         0.5000 
     68 O          -4.0550  -25.0194  -44.3141 O.2       11 UNK        -0.5000 
     69 N          -2.0106  -25.4518  -43.4353 N.am      12 UNK        -0.5000 
     70 CA         -2.1686  -26.8972  -43.2411 C.3       12 UNK         0.1400 
     71 CB         -0.9792  -27.4184  -42.4202 C.3       12 UNK        -0.1800 
     72 C          -2.3023  -27.6911  -44.5588 C.2       12 UNK         0.5000 
     73 O          -2.8253  -28.8056  -44.5423 O.2       12 UNK        -0.5000 
     74 N          -1.8467  -27.0979  -45.6696 N.am      13 UNK        -0.5000 
     75 CA         -1.9541  -27.6201  -47.0293 C.3       13 UNK         0.1400 
     76 CB         -0.5633  -27.5522  -47.6861 C.3       13 UNK        -0.1800 
     77 C          -3.0043  -26.8425  -47.8492 C.2       13 UNK         0.5000 
     78 O          -2.9721  -26.9133  -49.0771 O.2       13 UNK        -0.5000 
     79 N          -3.8980  -26.0973  -47.1773 N.am      14 UNK        -0.5000 
     80 CA         -4.9567  -25.2564  -47.7499 C.3       14 UNK         0.1400 
     81 CB         -6.0247  -26.1224  -48.4511 C.3       14 UNK        -0.1800 
     82 C          -4.3954  -24.1403  -48.6549 C.2       14 UNK         0.5000 
     83 O          -4.8328  -23.9834  -49.7961 O.2       14 UNK        -0.5000 
     84 N          -3.3949  -23.4170  -48.1309 N.am      15 UNK        -0.5000 
     85 CA         -2.6055  -22.3819  -48.8068 C.3       15 UNK         0.1400 
     86 CB         -3.4678  -21.1494  -49.1542 C.3       15 UNK        -0.1800 
     87 C          -1.8475  -22.9643  -50.0151 C.2       15 UNK         0.5000 
     88 O          -1.8994  -22.4035  -51.1107 O.2       15 UNK        -0.5000 
     89 N          -1.1866  -24.1088  -49.7817 N.am      16 UNK        -0.5000 
     90 CA         -0.4273  -24.9068  -50.7515 C.3       16 UNK         0.1400 
     91 CB          0.8461  -24.1503  -51.1878 C.3       16 UNK        -0.1800 
     92 C          -1.2965  -25.3524  -51.9458 C.2       16 UNK         0.5000 
     93 O          -0.9515  -25.0834  -53.0958 O.2       16 UNK        -0.5000 
     94 N          -2.4441  -25.9771  -51.6446 N.am      17 UNK        -0.5000 
     95 CA         -3.5047  -26.3710  -52.5809 C.3       17 UNK         0.1400 
     96 CB         -3.0360  -27.5359  -53.4770 C.3       17 UNK        -0.1800 
     97 C          -4.0513  -25.1684  -53.3815 C.2       17 UNK         0.5000 
     98 O          -4.2575  -25.2609  -54.5928 O.2       17 UNK        -0.5000 
     99 N          -4.2344  -24.0480  -52.6707 N.am      18 UNK        -0.5000 
    100 CA        -4.6422  -22.7249  -53.1426 C.3       18 UNK         0.1400 
    101 CB        -6.0714  -22.7598  -53.7210 C.3       18 UNK        -0.1800 
    102 C         -3.6387  -22.0234  -54.0858 C.2       18 UNK         0.5000 
    103 O         -3.9978  -21.0096  -54.6852 O.2       18 UNK        -0.5000 
    104 N         -2.3948  -22.5154  -54.1895 N.am      19 UNK        -0.5000 
    105 CA        -1.3349  -21.8773  -54.9775 C.3       19 UNK         0.1400 
    106 CB        -0.1921  -22.8725  -55.2233 C.3       19 UNK        -0.1800 
    107 C         -0.7929  -20.5938  -54.3194 C.2       19 UNK         0.5000 
    108 O         -0.3579  -19.6887  -55.0320 O.2       19 UNK        -0.5000 
    109 N         -0.8402  -20.5315  -52.9825 N.am      20 UNK        -0.5000 
    110 CA        -0.4166  -19.3869  -52.1754 C.3       20 UNK         0.1400 
    111 CB         0.3605  -19.9100  -50.9535 C.3       20 UNK        -0.1800 
    112 C         -1.6096  -18.5129  -51.7396 C.2       20 UNK         0.5000 
    113 O         -1.4163  -17.5933  -50.9473 O.2       20 UNK        -0.5000 
    114 N         -2.8244  -18.8134  -52.2240 N.am      21 UNK        -0.5000 
    115 CA        -4.0529  -18.1035  -51.8693 C.3       21 UNK         0.1400 
    116 CB        -5.2652  -18.8723  -52.4164 C.3       21 UNK        -0.1800 
    117 C         -4.0516  -16.6454  -52.3940 C.2       21 UNK         0.5000 
    118 O         -3.8744  -16.4558  -53.5977 O.2       21 UNK        -0.5000 
    119 N         -4.2667  -15.6211  -51.5574 N.am      22 UNK        -0.5000 
    120 CA        -4.3520  -15.6615  -50.0938 C.3       22 UNK         0.1400 
    121 C         -3.9921  -14.2881  -49.4739 C.2       22 UNK         0.5000 
    122 N         -3.4332  -14.2823  -48.2719 N.am      22 UNK        -0.7600 
    123 O         -4.2233  -13.2381  -50.0696 O.2       22 UNK        -0.5000 
    124 C124       -5.7174  -16.2039  -49.5816 C.3       23 UNK        -0.0398 
    125 S125       -5.4885  -17.3922  -48.2192 S.3       23 UNK        -0.2404 
    126 C126       -6.0591  -16.4152  -46.7892 C.3       23 UNK        -0.0205 
    127 H127       -3.3679   -9.7056  -46.0014 H         1 UNK         0.0600 
    128 H128       -1.6039   -9.6130  -46.0457 H         1 UNK         0.0600 
    129 H129       -2.4420   -9.7698  -44.4988 H         1 UNK         0.0600 
    130 H130       -2.3451  -11.8381  -43.6689 H         1 UNK         0.3000 
    131 H131       -2.9225  -14.2045  -45.1740 H         1 UNK         0.0600 
    132 H132       -1.7092  -13.9599  -42.3667 H         1 UNK         0.0800 
    133 H133       -2.3869  -15.4073  -43.0662 H         1 UNK         0.0800 
    134 H134       -4.2320  -15.8543  -41.1750 H         1 UNK         0.0800 
    135 H135       -5.8242  -15.2411  -41.5485 H         1 UNK         0.0800 
    136 H136       -5.6436  -14.9625  -44.5652 H         1 UNK         0.1150 
    137 H137       -5.4318  -19.0076  -45.9759 H         1 UNK         0.1150 
    138 H138       -4.4014  -18.1018  -41.9253 H         1 UNK         0.1150 
    139 H139       -5.2031  -20.4779  -42.7723 H         1 UNK         0.0800 
    140 H140       -4.9837  -20.7945  -44.4793 H         1 UNK         0.0800 
    141 H141       -3.9141  -22.5521  -42.6304 H         1 UNK         0.0800 
    142 H142       -2.2396  -22.4972  -42.1520 H         1 UNK         0.0800 
    143 H143       -3.1136  -22.8282  -45.0611 H         1 UNK         0.0600 
    144 H144       -0.5401  -22.4363  -44.0024 H         1 UNK         0.3000 
    145 H145        1.4398  -24.2648  -45.4977 H         1 UNK         0.0600 
    146 H146        0.7831  -22.4821  -47.9011 H         1 UNK         0.0600 
    147 H147        2.3684  -23.1744  -47.5662 H         1 UNK         0.0600 
    148 H148        1.0161  -24.2301  -47.9192 H         1 UNK         0.0600 
    149 H149        0.9097  -21.3391  -45.3611 H         1 UNK         0.3000 
    150 H150        3.5419  -20.8128  -43.1797 H         1 UNK         0.0600 
    151 H151        5.1771  -21.0034  -45.0418 H         1 UNK         0.0600 
    152 H152        4.7644  -19.3198  -44.7614 H         1 UNK         0.0600 
    153 H153        4.0687  -20.1823  -46.1335 H         1 UNK         0.0600 
    154 H154        2.1290  -19.1146  -45.0962 H         1 UNK         0.3000 
    155 H155       -0.7381  -18.6576  -43.1188 H         1 UNK         0.0600 
    156 H156        0.9162  -17.2228  -41.8610 H         1 UNK         0.0600 
    157 H157       -0.1205  -16.3007  -42.9295 H         1 UNK         0.0600 
    158 H158        1.5446  -16.6399  -43.3985 H         1 UNK         0.0600 
    159 H159       -0.0800  -17.1080  -45.2742 H         1 UNK         0.3000 
    160 H160       -0.5070  -19.2682  -48.0518 H         1 UNK         0.0600 
    161 H161       -2.2688  -17.6298  -48.5319 H         1 UNK         0.0600 
    162 H162       -2.2451  -17.0345  -46.8722 H         1 UNK         0.0600 
    163 H163       -2.7913  -18.6666  -47.2215 H         1 UNK         0.0600 
    164 H164       -0.0256  -16.4709  -47.8787 H         1 UNK         0.3000 
    165 H165        2.6892  -15.8422  -47.1952 H         1 UNK         0.0600 
    166 H166        3.8725  -17.3442  -49.5785 H         1 UNK         0.0600 
    167 H167        4.5198  -15.8510  -48.8984 H         1 UNK         0.0600 
    168 H168        4.4908  -17.3186  -47.9343 H         1 UNK         0.0600 
    169 H169        1.6439  -14.5094  -48.5899 H         1 UNK         0.3000 
    170 H170        0.7652  -14.5950  -52.0496 H         1 UNK         0.0600 
    171 H171       -0.5824  -13.8930  -49.3842 H         1 UNK         0.0600 
    172 H172       -1.0696  -13.3220  -50.9778 H         1 UNK         0.0600 
    173 H173       -1.1990  -15.0245  -50.5785 H         1 UNK         0.0600 
    174 H174        1.3057  -12.5021  -50.1166 H         1 UNK         0.3000 
    175 H175        4.5697  -11.7730  -51.0770 H         1 UNK         0.0600 
    176 H176        2.1776  -10.3063  -52.3141 H         1 UNK         0.0600 
    177 H177        3.7820   -9.6231  -52.0456 H         1 UNK         0.0600 
    178 H178        3.5653  -10.9318  -53.1961 H         1 UNK         0.0600 
    179 H179        2.3966  -10.2548  -49.8763 H         1 UNK         0.3000 
    180 H180        3.6386  -10.0811  -47.0013 H         1 UNK         0.0600 
    181 H181        0.8197  -10.4976  -48.1481 H         1 UNK         0.0600 
    182 H182        1.8416   -9.0750  -48.3641 H         1 UNK         0.0600 
    183 H183        1.2123   -9.4673  -46.7791 H         1 UNK         0.0600 
    184 H184        3.0400  -11.5339  -45.4422 H         1 UNK         0.3000 
    185 H185        1.7768  -14.6836  -45.3995 H         1 UNK         0.0600 
    186 H186        2.4250  -13.9532  -43.1407 H         1 UNK         0.0600 
    187 H187        3.6142  -13.3935  -44.3003 H         1 UNK         0.0600 
    188 H188        2.4334  -12.2647  -43.6283 H         1 UNK         0.0600 
    189 H189        0.0398  -12.5818  -44.2054 H         1 UNK         0.3000 
    190 H190       -1.1147  -25.0591  -43.1851 H         1 UNK         0.3000 
    191 H191       -3.0823  -27.0624  -42.6663 H         1 UNK         0.0600 
    192 H192       -0.0329  -27.2629  -42.9400 H         1 UNK         0.0600 
    193 H193       -0.9180  -26.9199  -41.4526 H         1 UNK         0.0600 
    194 H194       -1.0756  -28.4877  -42.2270 H         1 UNK         0.0600 
    195 H195       -1.4712  -26.1596  -45.6014 H         1 UNK         0.3000 
    196 H196       -2.2724  -28.6641  -47.0149 H         1 UNK         0.0600 
    197 H197        0.1709  -28.1126  -47.1072 H         1 UNK         0.0600 
    198 H198       -0.2069  -26.5254  -47.7703 H         1 UNK         0.0600 
    199 H199       -0.5767  -27.9814  -48.6887 H         1 UNK         0.0600 
    200 H200       -3.8352  -26.0760  -46.1664 H         1 UNK         0.3000 
    201 H201       -5.4401  -24.7550  -46.9102 H         1 UNK         0.0600 
    202 H202       -6.8676  -25.5120  -48.7770 H         1 UNK         0.0600 
    203 H203       -6.4173  -26.8846  -47.7782 H         1 UNK         0.0600 
    204 H204       -5.6280  -26.6258  -49.3332 H         1 UNK         0.0600 
    205 H205       -3.0281  -23.7080  -47.2330 H         1 UNK         0.3000 
    206 H206       -1.8458  -22.0544  -48.0956 H         1 UNK         0.0600 
    207 H207       -3.9793  -20.7650  -48.2718 H         1 UNK         0.0600 
    208 H208       -4.2230  -21.3753  -49.9068 H         1 UNK         0.0600 
    209 H209       -2.8501  -20.3410  -49.5460 H         1 UNK         0.0600 
    210 H210       -1.2436  -24.4906  -48.8467 H         1 UNK         0.3000 
    211 H211       -0.1150  -25.8169  -50.2383 H         1 UNK         0.0600 
    212 H212        1.4638  -23.8848  -50.3309 H         1 UNK         0.0600 
    213 H213        1.4577  -24.7655  -51.8486 H         1 UNK         0.0600 
    214 H214        0.6101  -23.2311  -51.7248 H         1 UNK         0.0600 
    215 H215       -2.6392  -26.1832  -50.6649 H         1 UNK         0.3000 
    216 H216       -4.3321  -26.7342  -51.9695 H         1 UNK         0.0600 
    217 H217       -3.8561  -27.9107  -54.0903 H         1 UNK         0.0600 
    218 H218       -2.2353  -27.2322  -54.1519 H         1 UNK         0.0600 
    219 H219       -2.6716  -28.3704  -52.8780 H         1 UNK         0.0600 
    220 H220       -4.0718  -24.0973  -51.6694 H         1 UNK         0.3000 
    221 H221       -4.6716  -22.1099  -52.2435 H         1 UNK         0.0600 
    222 H222       -6.1142  -23.3070  -54.6629 H         1 UNK         0.0600 
    223 H223       -6.7661  -23.2307  -53.0254 H         1 UNK         0.0600 
    224 H224       -6.4418  -21.7520  -53.9125 H         1 UNK         0.0600 
    225 H225       -2.1389  -23.3416  -53.6606 H         1 UNK         0.3000 
    226 H226       -1.7513  -21.6030  -55.9491 H         1 UNK         0.0600 
    227 H227       -0.5600  -23.7986  -55.6656 H         1 UNK         0.0600 
    228 H228        0.5460  -22.4541  -55.9085 H         1 UNK         0.0600 
    229 H229        0.3288  -23.1230  -54.2989 H         1 UNK         0.0600 
    230 H230       -1.2344  -21.3141  -52.4625 H         1 UNK         0.3000 
    231 H231        0.2570  -18.7487  -52.7506 H         1 UNK         0.0600 
    232 H232        0.7986  -19.0879  -50.3877 H         1 UNK         0.0600 
    233 H233        1.1774  -20.5663  -51.2531 H         1 UNK         0.0600 
    234 H234       -0.2816  -20.4624  -50.2695 H         1 UNK         0.0600 
    235 H235       -2.9019  -19.5463  -52.9139 H         1 UNK         0.3000 
    236 H236       -4.1248  -18.1422  -50.7850 H         1 UNK         0.0600 
    237 H237       -5.2349  -18.9538  -53.5032 H         1 UNK         0.0600 
    238 H238       -5.3152  -19.8773  -52.0003 H         1 UNK         0.0600 
    239 H239       -6.1976  -18.3712  -52.1553 H         1 UNK         0.0600 
    240 H240       -4.2669  -14.6799  -51.9267 H         1 UNK         0.3000 
    241 H241       -3.5450  -16.3193  -49.7765 H         1 UNK         0.0600 
    242 H242       -3.2437  -15.1381  -47.7785 H         1 UNK         0.3800 
    243 H243       -3.1488  -13.3978  -47.8541 H         1 UNK         0.3800 
    244 H244       -6.3926  -15.4000  -49.2821 H         1 UNK         0.0800 
    245 H245       -6.2502  -16.7334  -50.3711 H         1 UNK         0.0800 
    246 H246       -7.1496  -16.3992  -46.7853 H         1 UNK         0.0800 
    247 H247       -5.7335  -15.3824  -46.9216 H         1 UNK         0.0800 
@<TRIPOS>BOND
     1    1    2 1    
     2    1  127 1    
     3    1  128 1    
     4    1  129 1    
     5    2    3 2    
     6    2    4 am   BACKBONE|DICT|INTERRES
     7    4    5 1    
     8    4  130 1    
     9    5    6 1    
    10    5   65 1    
    11    5  131 1    
    12    6    7 1    
    13    6  132 1    
    14    6  133 1    
    15    7    8 1    
    16    8    9 1    
    17    8  134 1    
    18    8  135 1    
    19    9   10 ar   
    20    9   14 ar   
    21   10   11 ar   
    22   10  136 1    
    23   11   12 ar   
    24   11  126 1    
    25   12   13 ar   
    26   12  137 1    
    27   13   14 ar   
    28   13   15 1    
    29   14  138 1    
    30   15   16 1    
    31   15  139 1    
    32   15  140 1    
    33   16   17 1    
    34   17   18 1    
    35   17  141 1    
    36   17  142 1    
    37   18   19 1    
    38   18   67 1    
    39   18  143 1    
    40   19   20 am   BACKBONE|DICT|INTERRES
    41   19  144 1    
    42   20   21 2    
    43   20   22 1    
    44   22   23 1    
    45   22   24 1    
    46   22  145 1    
    47   23  146 1    
    48   23  147 1    
    49   23  148 1    
    50   24   25 am   BACKBONE|DICT|INTERRES
    51   24  149 1    
    52   25   26 2    
    53   25   27 1    
    54   27   28 1    
    55   27   29 1    
    56   27  150 1    
    57   28  151 1    
    58   28  152 1    
    59   28  153 1    
    60   29   30 am   BACKBONE|DICT|INTERRES
    61   29  154 1    
    62   30   31 2    
    63   30   32 1    
    64   32   33 1    
    65   32   34 1    
    66   32  155 1    
    67   33  156 1    
    68   33  157 1    
    69   33  158 1    
    70   34   35 am   BACKBONE|DICT|INTERRES
    71   34  159 1    
    72   35   36 2    
    73   35   37 1    
    74   37   38 1    
    75   37   39 1    
    76   37  160 1    
    77   38  161 1    
    78   38  162 1    
    79   38  163 1    
    80   39   40 am   BACKBONE|DICT|INTERRES
    81   39  164 1    
    82   40   41 2    
    83   40   42 1    
    84   42   43 1    
    85   42   44 1    
    86   42  165 1    
    87   43  166 1    
    88   43  167 1    
    89   43  168 1    
    90   44   45 am   BACKBONE|DICT|INTERRES
    91   44  169 1    
    92   45   46 2    
    93   45   47 1    
    94   47   48 1    
    95   47   49 1    
    96   47  170 1    
    97   48  171 1    
    98   48  172 1    
    99   48  173 1    
   100   49   50 am   BACKBONE|DICT|INTERRES
   101   49  174 1    
   102   50   51 2    
   103   50   52 1    
   104   52   53 1    
   105   52   54 1    
   106   52  175 1    
   107   53  176 1    
   108   53  177 1    
   109   53  178 1    
   110   54   55 am   BACKBONE|DICT|INTERRES
   111   54  179 1    
   112   55   56 2    
   113   55   57 1    
   114   57   58 1    
   115   57   59 1    
   116   57  180 1    
   117   58  181 1    
   118   58  182 1    
   119   58  183 1    
   120   59   60 am   BACKBONE|DICT|INTERRES
   121   59  184 1    
   122   60   61 2    
   123   60   62 1    
   124   62   63 1    
   125   62   64 1    
   126   62  185 1    
   127   63  186 1    
   128   63  187 1    
   129   63  188 1    
   130   64   65 am   BACKBONE|DICT|INTERRES
   131   64  189 1    
   132   65   66 2    
   133   67   68 2    
   134   67   69 am   BACKBONE|DICT|INTERRES
   135   69   70 1    
   136   69  190 1    
   137   70   71 1    
   138   70   72 1    
   139   70  191 1    
   140   71  192 1    
   141   71  193 1    
   142   71  194 1    
   143   72   73 2    
   144   72   74 am   BACKBONE|DICT|INTERRES
   145   74   75 1    
   146   74  195 1    
   147   75   76 1    
   148   75   77 1    
   149   75  196 1    
   150   76  197 1    
   151   76  198 1    
   152   76  199 1    
   153   77   78 2    
   154   77   79 am   BACKBONE|DICT|INTERRES
   155   79   80 1    
   156   79  200 1    
   157   80   81 1    
   158   80   82 1    
   159   80  201 1    
   160   81  202 1    
   161   81  203 1    
   162   81  204 1    
   163   82   83 2    
   164   82   84 am   BACKBONE|DICT|INTERRES
   165   84   85 1    
   166   84  205 1    
   167   85   86 1    
   168   85   87 1    
   169   85  206 1    
   170   86  207 1    
   171   86  208 1    
   172   86  209 1    
   173   87   88 2    
   174   87   89 am   BACKBONE|DICT|INTERRES
   175   89   90 1    
   176   89  210 1    
   177   90   91 1    
   178   90   92 1    
   179   90  211 1    
   180   91  212 1    
   181   91  213 1    
   182   91  214 1    
   183   92   93 2    
   184   92   94 am   BACKBONE|DICT|INTERRES
   185   94   95 1    
   186   94  215 1    
   187   95   96 1    
   188   95   97 1    
   189   95  216 1    
   190   96  217 1    
   191   96  218 1    
   192   96  219 1    
   193   97   98 2    
   194   97   99 am   BACKBONE|DICT|INTERRES
   195   99  100 1    
   196   99  220 1    
   197  100  101 1    
   198  100  102 1    
   199  100  221 1    
   200  101  222 1    
   201  101  223 1    
   202  101  224 1    
   203  102  103 2    
   204  102  104 am   BACKBONE|DICT|INTERRES
   205  104  105 1    
   206  104  225 1    
   207  105  106 1    
   208  105  107 1    
   209  105  226 1    
   210  106  227 1    
   211  106  228 1    
   212  106  229 1    
   213  107  108 2    
   214  107  109 am   BACKBONE|DICT|INTERRES
   215  109  110 1    
   216  109  230 1    
   217  110  111 1    
   218  110  112 1    
   219  110  231 1    
   220  111  232 1    
   221  111  233 1    
   222  111  234 1    
   223  112  113 2    
   224  112  114 am   BACKBONE|DICT|INTERRES
   225  114  115 1    
   226  114  235 1    
   227  115  116 1    
   228  115  117 1    
   229  115  236 1    
   230  116  237 1    
   231  116  238 1    
   232  116  239 1    
   233  117  118 2    
   234  117  119 am   BACKBONE|DICT|INTERRES
   235  119  120 1    
   236  119  240 1    
   237  120  121 1    
   238  120  124 1    
   239  120  241 1    
   240  121  122 am   BACKBONE|DICT|INTERRES
   241  121  123 2    
   242  122  242 1    
   243  122  243 1    
   244  124  125 1    
   245  124  244 1    
   246  124  245 1    
   247  125  126 1    
   248  126  246 1    
   249  126  247 1    
@<TRIPOS>SUBSTRUCTURE
     1 UNK         1 GROUP             0       ****    0 ROOT    
