@<TRIPOS>MOLECULE
3R540
247   249    1
SMALL
USER_CHARGES


@<TRIPOS>ATOM
      1 CA          5.2030  -13.8677  -48.2004 C.3       0 UNK        -0.1800 
      2 C           3.9782  -13.3026  -47.4980 C.2       0 UNK         0.5000 
      3 O           4.0478  -12.9835  -46.3121 O.2       0 UNK        -0.5000 
      4 N           2.8631  -13.1610  -48.2269 N.am      1 UNK        -0.5000 
      5 CA          1.5573  -12.7052  -47.7245 C.3       1 UNK         0.1400 
      6 C6          0.4650  -12.7294  -48.8235 C.3       23 UNK        -0.0398 
      7 S7          0.3693  -14.2945  -49.7572 S.3       23 UNK        -0.2404 
      8 C8         -0.6245  -15.3238  -48.6377 C.3       23 UNK        -0.0205 
      9 C9         -1.4011  -16.3803  -49.4071 C.ar      23 UNK        -0.0193 
     10 C10        -2.7882  -16.2703  -49.5420 C.ar      23 UNK        -0.1150 
     11 C11        -3.5105  -17.2287  -50.2569 C.ar      23 UNK        -0.0193 
     12 C12        -2.8287  -18.2858  -50.8665 C.ar      23 UNK        -0.1150 
     13 C13        -1.4493  -18.4343  -50.7018 C.ar      23 UNK        -0.0193 
     14 C14        -0.7397  -17.4759  -49.9711 C.ar      23 UNK        -0.1150 
     15 C15        -0.7317  -19.6409  -51.2945 C.3       23 UNK        -0.0205 
     16 S16        -1.2813  -21.2153  -50.5570 S.3       23 UNK        -0.2404 
     17 C17        -0.9948  -20.9149  -48.7801 C.3       23 UNK        -0.0398 
     18 CA         -0.8176  -22.2128  -47.9550 C.3       11 UNK         0.1400 
     19 N          -0.1513  -21.9536  -46.6754 N.am      11 UNK        -0.5000 
     20 C           0.2552  -22.8984  -45.8143 C.2       10 UNK         0.5000 
     21 O           0.1426  -24.1063  -46.0168 O.2       10 UNK        -0.5000 
     22 CA          0.8305  -22.4143  -44.4735 C.3       10 UNK         0.1400 
     23 CB          2.2709  -21.9093  -44.6434 C.3       10 UNK        -0.1800 
     24 N           0.0037  -21.3714  -43.8683 N.am      10 UNK        -0.5000 
     25 C          -1.2616  -21.5470  -43.4606 C.2       9 UNK         0.5000 
     26 O          -1.8402  -22.6344  -43.4784 O.2       9 UNK        -0.5000 
     27 CA         -2.0220  -20.2865  -43.0050 C.3       9 UNK         0.1400 
     28 CB         -1.6685  -19.9257  -41.5550 C.3       9 UNK        -0.1800 
     29 N          -1.7733  -19.1340  -43.8749 N.am      9 UNK        -0.5000 
     30 C          -2.1220  -19.0734  -45.1686 C.2       8 UNK         0.5000 
     31 O          -2.7274  -19.9667  -45.7569 O.2       8 UNK        -0.5000 
     32 CA         -1.6772  -17.8290  -45.9515 C.3       8 UNK         0.1400 
     33 CB         -2.6640  -16.6704  -45.7399 C.3       8 UNK        -0.1800 
     34 N          -0.3236  -17.4162  -45.5805 N.am      8 UNK        -0.5000 
     35 C           0.7831  -18.0984  -45.9108 C.2       7 UNK         0.5000 
     36 O           0.7737  -19.1255  -46.5884 O.2       7 UNK        -0.5000 
     37 CA          2.1180  -17.5726  -45.3521 C.3       7 UNK         0.1400 
     38 CB          2.6593  -16.4336  -46.2278 C.3       7 UNK        -0.1800 
     39 N           2.0026  -17.1092  -43.9693 N.am      7 UNK        -0.5000 
     40 C           1.7088  -17.9036  -42.9281 C.2       6 UNK         0.5000 
     41 O           1.5743  -19.1223  -43.0202 O.2       6 UNK        -0.5000 
     42 CA          1.4696  -17.2247  -41.5653 C.3       6 UNK         0.1400 
     43 CB          2.7708  -17.1855  -40.7507 C.3       6 UNK        -0.1800 
     44 N           0.9339  -15.8678  -41.6755 N.am      6 UNK        -0.5000 
     45 C          -0.2004  -15.5182  -42.3003 C.2       5 UNK         0.5000 
     46 O          -0.9790  -16.3336  -42.7954 O.2       5 UNK        -0.5000 
     47 CA         -0.4864  -14.0079  -42.4372 C.3       5 UNK         0.1400 
     48 CB         -1.6149  -13.5866  -41.4847 C.3       5 UNK        -0.1800 
     49 N           0.6927  -13.1705  -42.1850 N.am      5 UNK        -0.5000 
     50 C           1.7733  -13.1079  -42.9754 C.2       4 UNK         0.5000 
     51 O           1.8761  -13.7080  -44.0471 O.2       4 UNK        -0.5000 
     52 CA          2.9680  -12.3322  -42.4088 C.3       4 UNK         0.1400 
     53 CB          3.8477  -13.2698  -41.5579 C.3       4 UNK        -0.1800 
     54 N           3.7574  -11.7441  -43.4863 N.am      4 UNK        -0.5000 
     55 C           4.6268  -10.7383  -43.3178 C.2       3 UNK         0.5000 
     56 O           4.8555  -10.2075  -42.2297 O.2       3 UNK        -0.5000 
     57 CA          5.3485  -10.2151  -44.5690 C.3       3 UNK         0.1400 
     58 CB          6.5323  -11.1204  -44.9462 C.3       3 UNK        -0.1800 
     59 N           4.4319  -10.0921  -45.7002 N.am      3 UNK        -0.5000 
     60 C           3.6264   -9.0394  -45.9031 C.2       2 UNK         0.5000 
     61 O           3.5995   -8.0515  -45.1678 O.2       2 UNK        -0.5000 
     62 CA          2.7052   -9.0751  -47.1377 C.3       2 UNK         0.1400 
     63 CB          3.3031   -8.2337  -48.2761 C.3       2 UNK        -0.1800 
     64 N           2.4642  -10.4295  -47.6320 N.am      2 UNK        -0.5000 
     65 C           1.6059  -11.3007  -47.0843 C.2       1 UNK         0.5000 
     66 O           0.8824  -11.0376  -46.1234 O.2       1 UNK        -0.5000 
     67 C          -2.1496  -22.9734  -47.7708 C.2       11 UNK         0.5000 
     68 O          -2.4035  -23.9292  -48.5022 O.2       11 UNK        -0.5000 
     69 N          -2.9550  -22.5824  -46.7719 N.am      12 UNK        -0.5000 
     70 CA         -4.2167  -23.2342  -46.4131 C.3       12 UNK         0.1400 
     71 CB         -4.9099  -22.4656  -45.2796 C.3       12 UNK        -0.1800 
     72 C          -4.0596  -24.7232  -46.0640 C.2       12 UNK         0.5000 
     73 O          -4.8688  -25.5371  -46.5139 O.2       12 UNK        -0.5000 
     74 N          -3.0038  -25.0473  -45.3087 N.am      13 UNK        -0.5000 
     75 CA         -2.6360  -26.4146  -44.9572 C.3       13 UNK         0.1400 
     76 CB         -1.6721  -26.3871  -43.7603 C.3       13 UNK        -0.1800 
     77 C          -2.0222  -27.1808  -46.1436 C.2       13 UNK         0.5000 
     78 O          -2.4605  -28.2928  -46.4407 O.2       13 UNK        -0.5000 
     79 N          -1.0072  -26.5860  -46.7846 N.am      14 UNK        -0.5000 
     80 CA         -0.1835  -27.2342  -47.8061 C.3       14 UNK         0.1400 
     81 CB          1.1142  -26.4333  -47.9937 C.3       14 UNK        -0.1800 
     82 C          -0.8876  -27.4198  -49.1602 C.2       14 UNK         0.5000 
     83 O          -0.6469  -28.4276  -49.8262 O.2       14 UNK        -0.5000 
     84 N          -1.7213  -26.4497  -49.5519 N.am      15 UNK        -0.5000 
     85 CA         -2.3609  -26.3753  -50.8643 C.3       15 UNK         0.1400 
     86 CB         -1.8841  -25.1056  -51.5888 C.3       15 UNK        -0.1800 
     87 C          -3.8926  -26.4485  -50.7608 C.2       15 UNK         0.5000 
     88 O          -4.5782  -25.8391  -51.5827 O.2       15 UNK        -0.5000 
     89 N          -4.3907  -27.2029  -49.7677 N.am      16 UNK        -0.5000 
     90 CA         -5.7808  -27.6392  -49.5796 C.3       16 UNK         0.1400 
     91 CB         -6.0934  -28.7854  -50.5629 C.3       16 UNK        -0.1800 
     92 C          -6.8048  -26.4905  -49.6768 C.2       16 UNK         0.5000 
     93 O          -7.5479  -26.4018  -50.6562 O.2       16 UNK        -0.5000 
     94 N          -6.7844  -25.6128  -48.6661 N.am      17 UNK        -0.5000 
     95 CA         -7.5374  -24.3563  -48.5834 C.3       17 UNK         0.1400 
     96 CB         -9.0628  -24.5711  -48.6917 C.3       17 UNK        -0.1800 
     97 C          -6.9915  -23.2740  -49.5392 C.2       17 UNK         0.5000 
     98 O          -7.7483  -22.4255  -50.0130 O.2       17 UNK        -0.5000 
     99 N          -5.6648  -23.2945  -49.7350 N.am      18 UNK        -0.5000 
    100 CA        -4.8380  -22.2402  -50.3247 C.3       18 UNK         0.1400 
    101 CB        -4.9572  -20.9448  -49.4934 C.3       18 UNK        -0.1800 
    102 C         -5.0742  -22.0327  -51.8326 C.2       18 UNK         0.5000 
    103 O         -5.1215  -20.8962  -52.3062 O.2       18 UNK        -0.5000 
    104 N         -5.2008  -23.1441  -52.5685 N.am      19 UNK        -0.5000 
    105 CA        -5.4945  -23.1625  -54.0026 C.3       19 UNK         0.1400 
    106 CB        -6.1048  -24.5296  -54.3518 C.3       19 UNK        -0.1800 
    107 C         -4.2791  -22.8681  -54.9084 C.2       19 UNK         0.5000 
    108 O         -4.4660  -22.6977  -56.1139 O.2       19 UNK        -0.5000 
    109 N         -3.0617  -22.8446  -54.3445 N.am      20 UNK        -0.5000 
    110 CA        -1.8038  -22.7120  -55.0894 C.3       20 UNK         0.1400 
    111 CB        -0.6188  -23.0560  -54.1729 C.3       20 UNK        -0.1800 
    112 C         -1.5782  -21.3379  -55.7475 C.2       20 UNK         0.5000 
    113 O         -0.8771  -21.2712  -56.7588 O.2       20 UNK        -0.5000 
    114 N         -2.1479  -20.2735  -55.1716 N.am      21 UNK        -0.5000 
    115 CA        -2.0040  -18.9035  -55.6554 C.3       21 UNK         0.1400 
    116 CB        -0.6311  -18.3213  -55.2438 C.3       21 UNK        -0.1800 
    117 C         -3.2130  -18.0786  -55.1906 C.2       21 UNK         0.5000 
    118 O         -4.3298  -18.3560  -55.6291 O.2       21 UNK        -0.5000 
    119 N         -2.9736  -17.0855  -54.3250 N.am      22 UNK        -0.5000 
    120 CA        -3.9578  -16.1177  -53.8109 C.3       22 UNK         0.1400 
    121 C         -4.3805  -15.0143  -54.8317 C.2       22 UNK         0.5000 
    122 N         -3.6807  -14.8413  -55.9469 N.am      22 UNK        -0.7600 
    123 O         -5.3396  -14.2817  -54.6056 O.2       22 UNK        -0.5000 
    124 C124       -5.1697  -16.7975  -53.1068 C.3       23 UNK        -0.0398 
    125 S125       -5.6249  -15.9564  -51.5539 S.3       23 UNK        -0.2404 
    126 C126       -5.0300  -17.1507  -50.3186 C.3       23 UNK        -0.0205 
    127 H127        5.5123  -14.7959  -47.7199 H         1 UNK         0.0600 
    128 H128        6.0292  -13.1593  -48.1403 H         1 UNK         0.0600 
    129 H129        5.0073  -14.0767  -49.2523 H         1 UNK         0.0600 
    130 H130        2.8684  -13.4499  -49.1951 H         1 UNK         0.3000 
    131 H131        1.2601  -13.4007  -46.9372 H         1 UNK         0.0600 
    132 H132       -0.5150  -12.5099  -48.3957 H         1 UNK         0.0800 
    133 H133        0.6504  -11.9405  -49.5551 H         1 UNK         0.0800 
    134 H134        0.0333  -15.8013  -47.9117 H         1 UNK         0.0800 
    135 H135       -1.3098  -14.6933  -48.0707 H         1 UNK         0.0800 
    136 H136       -3.3115  -15.4433  -49.0830 H         1 UNK         0.1150 
    137 H137       -3.3763  -19.0237  -51.4350 H         1 UNK         0.1150 
    138 H138        0.3291  -17.5753  -49.8435 H         1 UNK         0.1150 
    139 H139       -0.9216  -19.6812  -52.3664 H         1 UNK         0.0800 
    140 H140        0.3488  -19.5490  -51.1748 H         1 UNK         0.0800 
    141 H141       -1.8012  -20.2965  -48.3820 H         1 UNK         0.0800 
    142 H142       -0.0886  -20.3137  -48.7066 H         1 UNK         0.0800 
    143 H143       -0.1501  -22.8728  -48.5135 H         1 UNK         0.0600 
    144 H144        0.0128  -20.9791  -46.4435 H         1 UNK         0.3000 
    145 H145        0.8477  -23.2666  -43.7911 H         1 UNK         0.0600 
    146 H146        2.7104  -21.6454  -43.6814 H         1 UNK         0.0600 
    147 H147        2.9038  -22.6767  -45.0907 H         1 UNK         0.0600 
    148 H148        2.3183  -21.0284  -45.2841 H         1 UNK         0.0600 
    149 H149        0.4364  -20.4589  -43.7539 H         1 UNK         0.3000 
    150 H150       -3.0903  -20.5083  -43.0483 H         1 UNK         0.0600 
    151 H151       -1.9389  -20.7365  -40.8775 H         1 UNK         0.0600 
    152 H152       -2.2024  -19.0338  -41.2264 H         1 UNK         0.0600 
    153 H153       -0.6013  -19.7432  -41.4338 H         1 UNK         0.0600 
    154 H154       -1.3073  -18.3332  -43.4639 H         1 UNK         0.3000 
    155 H155       -1.6772  -18.0827  -47.0136 H         1 UNK         0.0600 
    156 H156       -2.7882  -16.4255  -44.6852 H         1 UNK         0.0600 
    157 H157       -3.6486  -16.9291  -46.1313 H         1 UNK         0.0600 
    158 H158       -2.3386  -15.7678  -46.2539 H         1 UNK         0.0600 
    159 H159       -0.2465  -16.6332  -44.9466 H         1 UNK         0.3000 
    160 H160        2.8366  -18.3945  -45.3761 H         1 UNK         0.0600 
    161 H161        2.0008  -15.5653  -46.2079 H         1 UNK         0.0600 
    162 H162        2.7579  -16.7480  -47.2677 H         1 UNK         0.0600 
    163 H163        3.6440  -16.1102  -45.8899 H         1 UNK         0.0600 
    164 H164        2.0841  -16.1124  -43.8172 H         1 UNK         0.3000 
    165 H165        0.7393  -17.8233  -41.0186 H         1 UNK         0.0600 
    166 H166        2.6011  -16.7791  -39.7535 H         1 UNK         0.0600 
    167 H167        3.1829  -18.1878  -40.6256 H         1 UNK         0.0600 
    168 H168        3.5328  -16.5757  -41.2377 H         1 UNK         0.0600 
    169 H169        1.5009  -15.1301  -41.2877 H         1 UNK         0.3000 
    170 H170       -0.8177  -13.8316  -43.4628 H         1 UNK         0.0600 
    171 H171       -2.5183  -14.1703  -41.6671 H         1 UNK         0.0600 
    172 H172       -1.3359  -13.7313  -40.4402 H         1 UNK         0.0600 
    173 H173       -1.8756  -12.5369  -41.6216 H         1 UNK         0.0600 
    174 H174        0.6926  -12.6552  -41.3160 H         1 UNK         0.3000 
    175 H175        2.5824  -11.5277  -41.7787 H         1 UNK         0.0600 
    176 H176        4.2685  -14.0767  -42.1594 H         1 UNK         0.0600 
    177 H177        4.6760  -12.7330  -41.0957 H         1 UNK         0.0600 
    178 H178        3.2744  -13.7250  -40.7497 H         1 UNK         0.0600 
    179 H179        3.6161  -12.1517  -44.4072 H         1 UNK         0.3000 
    180 H180        5.7547   -9.2287  -44.3341 H         1 UNK         0.0600 
    181 H181        6.2193  -12.1453  -45.1442 H         1 UNK         0.0600 
    182 H182        7.2634  -11.1561  -44.1377 H         1 UNK         0.0600 
    183 H183        7.0463  -10.7492  -45.8329 H         1 UNK         0.0600 
    184 H184        4.3383  -10.9080  -46.2922 H         1 UNK         0.3000 
    185 H185        1.7503   -8.6294  -46.8507 H         1 UNK         0.0600 
    186 H186        3.4702   -7.2045  -47.9554 H         1 UNK         0.0600 
    187 H187        4.2613   -8.6324  -48.6116 H         1 UNK         0.0600 
    188 H188        2.6332   -8.1996  -49.1355 H         1 UNK         0.0600 
    189 H189        3.0206  -10.7330  -48.4182 H         1 UNK         0.3000 
    190 H190       -2.7140  -21.7447  -46.2466 H         1 UNK         0.3000 
    191 H191       -4.8677  -23.1807  -47.2804 H         1 UNK         0.0600 
    192 H192       -5.1068  -21.4328  -45.5676 H         1 UNK         0.0600 
    193 H193       -5.8688  -22.9209  -45.0293 H         1 UNK         0.0600 
    194 H194       -4.3080  -22.4510  -44.3718 H         1 UNK         0.0600 
    195 H195       -2.3949  -24.3070  -44.9814 H         1 UNK         0.3000 
    196 H196       -3.5388  -26.9458  -44.6476 H         1 UNK         0.0600 
    197 H197       -1.3816  -27.3971  -43.4687 H         1 UNK         0.0600 
    198 H198       -2.1372  -25.9184  -42.8928 H         1 UNK         0.0600 
    199 H199       -0.7597  -25.8339  -43.9864 H         1 UNK         0.0600 
    200 H200       -0.7019  -25.6628  -46.4816 H         1 UNK         0.3000 
    201 H201        0.0873  -28.2264  -47.4387 H         1 UNK         0.0600 
    202 H202        1.6666  -26.3516  -47.0575 H         1 UNK         0.0600 
    203 H203        0.9134  -25.4232  -48.3534 H         1 UNK         0.0600 
    204 H204        1.7715  -26.9155  -48.7184 H         1 UNK         0.0600 
    205 H205       -1.8848  -25.6486  -48.9447 H         1 UNK         0.3000 
    206 H206       -2.0662  -27.2270  -51.4801 H         1 UNK         0.0600 
    207 H207       -0.7963  -25.0706  -51.6467 H         1 UNK         0.0600 
    208 H208       -2.2677  -25.0815  -52.6086 H         1 UNK         0.0600 
    209 H209       -2.2208  -24.1985  -51.0894 H         1 UNK         0.0600 
    210 H210       -3.7231  -27.5983  -49.1200 H         1 UNK         0.3000 
    211 H211       -5.8508  -28.0428  -48.5681 H         1 UNK         0.0600 
    212 H212       -6.0093  -28.4619  -51.6012 H         1 UNK         0.0600 
    213 H213       -7.1069  -29.1609  -50.4167 H         1 UNK         0.0600 
    214 H214       -5.4127  -29.6244  -50.4186 H         1 UNK         0.0600 
    215 H215       -6.1227  -25.7681  -47.9074 H         1 UNK         0.3000 
    216 H216       -7.3478  -23.9761  -47.5786 H         1 UNK         0.0600 
    217 H217       -9.6010  -23.6635  -48.4165 H         1 UNK         0.0600 
    218 H218       -9.3997  -25.3625  -48.0222 H         1 UNK         0.0600 
    219 H219       -9.3705  -24.8310  -49.7045 H         1 UNK         0.0600 
    220 H220       -5.1540  -24.0837  -49.3659 H         1 UNK         0.3000 
    221 H221       -3.8131  -22.5920  -50.2368 H         1 UNK         0.0600 
    222 H222       -4.8951  -21.1391  -48.4241 H         1 UNK         0.0600 
    223 H223       -4.1465  -20.2626  -49.7267 H         1 UNK         0.0600 
    224 H224       -5.8969  -20.4252  -49.6819 H         1 UNK         0.0600 
    225 H225       -5.1236  -24.0523  -52.1161 H         1 UNK         0.3000 
    226 H226       -6.2445  -22.3966  -54.2109 H         1 UNK         0.0600 
    227 H227       -6.9860  -24.7360  -53.7436 H         1 UNK         0.0600 
    228 H228       -6.4151  -24.5673  -55.3967 H         1 UNK         0.0600 
    229 H229       -5.3918  -25.3394  -54.1913 H         1 UNK         0.0600 
    230 H230       -2.9940  -22.9891  -53.3487 H         1 UNK         0.3000 
    231 H231       -1.8195  -23.4459  -55.8980 H         1 UNK         0.0600 
    232 H232       -0.6458  -22.4875  -53.2434 H         1 UNK         0.0600 
    233 H233        0.3336  -22.8403  -54.6593 H         1 UNK         0.0600 
    234 H234       -0.6078  -24.1165  -53.9278 H         1 UNK         0.0600 
    235 H235       -2.7654  -20.4106  -54.3830 H         1 UNK         0.3000 
    236 H236       -2.0519  -18.9107  -56.7465 H         1 UNK         0.0600 
    237 H237        0.1867  -18.9095  -55.6600 H         1 UNK         0.0600 
    238 H238       -0.5070  -17.3045  -55.6186 H         1 UNK         0.0600 
    239 H239       -0.4984  -18.2976  -54.1628 H         1 UNK         0.0600 
    240 H240       -2.0228  -16.9372  -54.0189 H         1 UNK         0.3000 
    241 H241       -3.3946  -15.5729  -53.0520 H         1 UNK         0.0600 
    242 H242       -2.8810  -15.4185  -56.1495 H         1 UNK         0.3800 
    243 H243       -3.9553  -14.1204  -56.5961 H         1 UNK         0.3800 
    244 H244       -6.0419  -16.8327  -53.7616 H         1 UNK         0.0800 
    245 H245       -4.9513  -17.8412  -52.8788 H         1 UNK         0.0800 
    246 H246       -5.4140  -16.8616  -49.3393 H         1 UNK         0.0800 
    247 H247       -5.4575  -18.1318  -50.5302 H         1 UNK         0.0800 
@<TRIPOS>BOND
     1    1    2 1    
     2    1  127 1    
     3    1  128 1    
     4    1  129 1    
     5    2    3 2    
     6    2    4 am   BACKBONE|DICT|INTERRES
     7    4    5 1    
     8    4  130 1    
     9    5    6 1    
    10    5   65 1    
    11    5  131 1    
    12    6    7 1    
    13    6  132 1    
    14    6  133 1    
    15    7    8 1    
    16    8    9 1    
    17    8  134 1    
    18    8  135 1    
    19    9   10 ar   
    20    9   14 ar   
    21   10   11 ar   
    22   10  136 1    
    23   11   12 ar   
    24   11  126 1    
    25   12   13 ar   
    26   12  137 1    
    27   13   14 ar   
    28   13   15 1    
    29   14  138 1    
    30   15   16 1    
    31   15  139 1    
    32   15  140 1    
    33   16   17 1    
    34   17   18 1    
    35   17  141 1    
    36   17  142 1    
    37   18   19 1    
    38   18   67 1    
    39   18  143 1    
    40   19   20 am   BACKBONE|DICT|INTERRES
    41   19  144 1    
    42   20   21 2    
    43   20   22 1    
    44   22   23 1    
    45   22   24 1    
    46   22  145 1    
    47   23  146 1    
    48   23  147 1    
    49   23  148 1    
    50   24   25 am   BACKBONE|DICT|INTERRES
    51   24  149 1    
    52   25   26 2    
    53   25   27 1    
    54   27   28 1    
    55   27   29 1    
    56   27  150 1    
    57   28  151 1    
    58   28  152 1    
    59   28  153 1    
    60   29   30 am   BACKBONE|DICT|INTERRES
    61   29  154 1    
    62   30   31 2    
    63   30   32 1    
    64   32   33 1    
    65   32   34 1    
    66   32  155 1    
    67   33  156 1    
    68   33  157 1    
    69   33  158 1    
    70   34   35 am   BACKBONE|DICT|INTERRES
    71   34  159 1    
    72   35   36 2    
    73   35   37 1    
    74   37   38 1    
    75   37   39 1    
    76   37  160 1    
    77   38  161 1    
    78   38  162 1    
    79   38  163 1    
    80   39   40 am   BACKBONE|DICT|INTERRES
    81   39  164 1    
    82   40   41 2    
    83   40   42 1    
    84   42   43 1    
    85   42   44 1    
    86   42  165 1    
    87   43  166 1    
    88   43  167 1    
    89   43  168 1    
    90   44   45 am   BACKBONE|DICT|INTERRES
    91   44  169 1    
    92   45   46 2    
    93   45   47 1    
    94   47   48 1    
    95   47   49 1    
    96   47  170 1    
    97   48  171 1    
    98   48  172 1    
    99   48  173 1    
   100   49   50 am   BACKBONE|DICT|INTERRES
   101   49  174 1    
   102   50   51 2    
   103   50   52 1    
   104   52   53 1    
   105   52   54 1    
   106   52  175 1    
   107   53  176 1    
   108   53  177 1    
   109   53  178 1    
   110   54   55 am   BACKBONE|DICT|INTERRES
   111   54  179 1    
   112   55   56 2    
   113   55   57 1    
   114   57   58 1    
   115   57   59 1    
   116   57  180 1    
   117   58  181 1    
   118   58  182 1    
   119   58  183 1    
   120   59   60 am   BACKBONE|DICT|INTERRES
   121   59  184 1    
   122   60   61 2    
   123   60   62 1    
   124   62   63 1    
   125   62   64 1    
   126   62  185 1    
   127   63  186 1    
   128   63  187 1    
   129   63  188 1    
   130   64   65 am   BACKBONE|DICT|INTERRES
   131   64  189 1    
   132   65   66 2    
   133   67   68 2    
   134   67   69 am   BACKBONE|DICT|INTERRES
   135   69   70 1    
   136   69  190 1    
   137   70   71 1    
   138   70   72 1    
   139   70  191 1    
   140   71  192 1    
   141   71  193 1    
   142   71  194 1    
   143   72   73 2    
   144   72   74 am   BACKBONE|DICT|INTERRES
   145   74   75 1    
   146   74  195 1    
   147   75   76 1    
   148   75   77 1    
   149   75  196 1    
   150   76  197 1    
   151   76  198 1    
   152   76  199 1    
   153   77   78 2    
   154   77   79 am   BACKBONE|DICT|INTERRES
   155   79   80 1    
   156   79  200 1    
   157   80   81 1    
   158   80   82 1    
   159   80  201 1    
   160   81  202 1    
   161   81  203 1    
   162   81  204 1    
   163   82   83 2    
   164   82   84 am   BACKBONE|DICT|INTERRES
   165   84   85 1    
   166   84  205 1    
   167   85   86 1    
   168   85   87 1    
   169   85  206 1    
   170   86  207 1    
   171   86  208 1    
   172   86  209 1    
   173   87   88 2    
   174   87   89 am   BACKBONE|DICT|INTERRES
   175   89   90 1    
   176   89  210 1    
   177   90   91 1    
   178   90   92 1    
   179   90  211 1    
   180   91  212 1    
   181   91  213 1    
   182   91  214 1    
   183   92   93 2    
   184   92   94 am   BACKBONE|DICT|INTERRES
   185   94   95 1    
   186   94  215 1    
   187   95   96 1    
   188   95   97 1    
   189   95  216 1    
   190   96  217 1    
   191   96  218 1    
   192   96  219 1    
   193   97   98 2    
   194   97   99 am   BACKBONE|DICT|INTERRES
   195   99  100 1    
   196   99  220 1    
   197  100  101 1    
   198  100  102 1    
   199  100  221 1    
   200  101  222 1    
   201  101  223 1    
   202  101  224 1    
   203  102  103 2    
   204  102  104 am   BACKBONE|DICT|INTERRES
   205  104  105 1    
   206  104  225 1    
   207  105  106 1    
   208  105  107 1    
   209  105  226 1    
   210  106  227 1    
   211  106  228 1    
   212  106  229 1    
   213  107  108 2    
   214  107  109 am   BACKBONE|DICT|INTERRES
   215  109  110 1    
   216  109  230 1    
   217  110  111 1    
   218  110  112 1    
   219  110  231 1    
   220  111  232 1    
   221  111  233 1    
   222  111  234 1    
   223  112  113 2    
   224  112  114 am   BACKBONE|DICT|INTERRES
   225  114  115 1    
   226  114  235 1    
   227  115  116 1    
   228  115  117 1    
   229  115  236 1    
   230  116  237 1    
   231  116  238 1    
   232  116  239 1    
   233  117  118 2    
   234  117  119 am   BACKBONE|DICT|INTERRES
   235  119  120 1    
   236  119  240 1    
   237  120  121 1    
   238  120  124 1    
   239  120  241 1    
   240  121  122 am   BACKBONE|DICT|INTERRES
   241  121  123 2    
   242  122  242 1    
   243  122  243 1    
   244  124  125 1    
   245  124  244 1    
   246  124  245 1    
   247  125  126 1    
   248  126  246 1    
   249  126  247 1    
@<TRIPOS>SUBSTRUCTURE
     1 UNK         1 GROUP             0       ****    0 ROOT    
