@<TRIPOS>MOLECULE
3R540
247   249    1
SMALL
USER_CHARGES


@<TRIPOS>ATOM
      1 CA          6.3733  -19.1492  -48.6960 C.3       0 UNK        -0.1800 
      2 C           4.9299  -18.7322  -48.4591 C.2       0 UNK         0.5000 
      3 O           4.1672  -19.4794  -47.8507 O.2       0 UNK        -0.5000 
      4 N           4.5503  -17.5323  -48.9139 N.am      1 UNK        -0.5000 
      5 CA          3.1852  -16.9907  -48.8310 C.3       1 UNK         0.1400 
      6 C6          3.0030  -15.7377  -49.7197 C.3       23 UNK        -0.0398 
      7 S7          3.2611  -16.1212  -51.4833 S.3       23 UNK        -0.2404 
      8 C8          1.5634  -16.0044  -52.1382 C.3       23 UNK        -0.0205 
      9 C9          0.6004  -17.0300  -51.5473 C.ar      23 UNK        -0.0193 
     10 C10        -0.6272  -16.6121  -51.0234 C.ar      23 UNK        -0.1150 
     11 C11        -1.5641  -17.5478  -50.5753 C.ar      23 UNK        -0.0193 
     12 C12        -1.2510  -18.9087  -50.6180 C.ar      23 UNK        -0.1150 
     13 C13        -0.0242  -19.3417  -51.1260 C.ar      23 UNK        -0.0193 
     14 C14         0.8955  -18.3971  -51.5923 C.ar      23 UNK        -0.1150 
     15 C15         0.2795  -20.8302  -51.2396 C.3       23 UNK        -0.0205 
     16 S16         0.0837  -21.7297  -49.6660 S.3       23 UNK        -0.2404 
     17 C17         1.4382  -21.0155  -48.6645 C.3       23 UNK        -0.0398 
     18 CA          1.0534  -20.7249  -47.1924 C.3       11 UNK         0.1400 
     19 N          -0.0794  -19.7989  -47.0895 N.am      11 UNK        -0.5000 
     20 C          -0.2540  -18.9500  -46.0708 C.2       10 UNK         0.5000 
     21 O           0.5557  -18.8174  -45.1514 O.2       10 UNK        -0.5000 
     22 CA         -1.5186  -18.0816  -46.0999 C.3       10 UNK         0.1400 
     23 CB         -2.2380  -18.0718  -44.7384 C.3       10 UNK        -0.1800 
     24 N          -1.1166  -16.7392  -46.4852 N.am      10 UNK        -0.5000 
     25 C          -1.9107  -15.7494  -46.8961 C.2       9 UNK         0.5000 
     26 O          -3.1386  -15.8279  -46.9512 O.2       9 UNK        -0.5000 
     27 CA         -1.1926  -14.4417  -47.2610 C.3       9 UNK         0.1400 
     28 CB         -2.1138  -13.4078  -47.9336 C.3       9 UNK        -0.1800 
     29 N          -0.6502  -13.8793  -46.0300 N.am      9 UNK        -0.5000 
     30 C           0.5933  -13.4189  -45.8526 C.2       8 UNK         0.5000 
     31 O           1.4295  -13.3383  -46.7529 O.2       8 UNK        -0.5000 
     32 CA          0.9671  -12.9436  -44.4318 C.3       8 UNK         0.1400 
     33 CB          1.2475  -11.4322  -44.4230 C.3       8 UNK        -0.1800 
     34 N          -0.0621  -13.2330  -43.4279 N.am      8 UNK        -0.5000 
     35 C          -0.2336  -14.4145  -42.8229 C.2       7 UNK         0.5000 
     36 O           0.4703  -15.4060  -43.0273 O.2       7 UNK        -0.5000 
     37 CA         -1.4144  -14.5003  -41.8474 C.3       7 UNK         0.1400 
     38 CB         -2.7464  -14.6600  -42.6033 C.3       7 UNK        -0.1800 
     39 N          -1.2112  -15.6319  -40.9515 N.am      7 UNK        -0.5000 
     40 C          -1.7195  -15.7475  -39.7195 C.2       6 UNK         0.5000 
     41 O          -2.4698  -14.9130  -39.2113 O.2       6 UNK        -0.5000 
     42 CA         -1.3317  -17.0007  -38.9095 C.3       6 UNK         0.1400 
     43 CB         -2.4495  -18.0523  -38.9858 C.3       6 UNK        -0.1800 
     44 N          -0.0777  -17.6227  -39.3370 N.am      6 UNK        -0.5000 
     45 C           1.1474  -17.1010  -39.2009 C.2       5 UNK         0.5000 
     46 O           1.3600  -16.0031  -38.6850 O.2       5 UNK        -0.5000 
     47 CA          2.3396  -17.9201  -39.7406 C.3       5 UNK         0.1400 
     48 CB          3.0857  -18.6362  -38.5988 C.3       5 UNK        -0.1800 
     49 N           2.0187  -18.8508  -40.8332 N.am      5 UNK        -0.5000 
     50 C           1.2782  -19.9711  -40.8110 C.2       4 UNK         0.5000 
     51 O           0.7083  -20.3909  -39.8041 O.2       4 UNK        -0.5000 
     52 CA          1.0816  -20.7209  -42.1442 C.3       4 UNK         0.1400 
     53 CB         -0.3345  -20.4486  -42.6708 C.3       4 UNK        -0.1800 
     54 N           2.0664  -20.3464  -43.1641 N.am      4 UNK        -0.5000 
     55 C           3.3512  -20.7321  -43.1297 C.2       3 UNK         0.5000 
     56 O           3.7880  -21.5369  -42.3054 O.2       3 UNK        -0.5000 
     57 CA          4.3381  -20.0974  -44.1330 C.3       3 UNK         0.1400 
     58 CB          4.7855  -21.1123  -45.1952 C.3       3 UNK        -0.1800 
     59 N           3.8807  -18.8654  -44.7864 N.am      3 UNK        -0.5000 
     60 C           3.6305  -17.7102  -44.1484 C.2       2 UNK         0.5000 
     61 O           3.6625  -17.6051  -42.9216 O.2       2 UNK        -0.5000 
     62 CA          3.3257  -16.4609  -44.9986 C.3       2 UNK         0.1400 
     63 CB          4.1367  -15.2469  -44.5128 C.3       2 UNK        -0.1800 
     64 N           3.6235  -16.6741  -46.4157 N.am      2 UNK        -0.5000 
     65 C           2.7100  -16.6979  -47.3930 C.2       1 UNK         0.5000 
     66 O           1.5139  -16.5029  -47.2036 O.2       1 UNK        -0.5000 
     67 C           0.8177  -22.0394  -46.4184 C.2       11 UNK         0.5000 
     68 O           1.7881  -22.7056  -46.0615 O.2       11 UNK        -0.5000 
     69 N          -0.4554  -22.4262  -46.2333 N.am      12 UNK        -0.5000 
     70 CA         -0.9696  -23.6932  -45.6833 C.3       12 UNK         0.1400 
     71 CB         -0.5623  -23.8874  -44.2100 C.3       12 UNK        -0.1800 
     72 C          -0.6395  -24.9552  -46.5121 C.2       12 UNK         0.5000 
     73 O          -1.4792  -25.8512  -46.5966 O.2       12 UNK        -0.5000 
     74 N           0.5486  -25.0052  -47.1271 N.am      13 UNK        -0.5000 
     75 CA          1.0723  -26.1107  -47.9341 C.3       13 UNK         0.1400 
     76 CB          2.5070  -25.7697  -48.3642 C.3       13 UNK        -0.1800 
     77 C           0.2124  -26.4605  -49.1642 C.2       13 UNK         0.5000 
     78 O           0.1350  -27.6325  -49.5338 O.2       13 UNK        -0.5000 
     79 N          -0.4356  -25.4465  -49.7509 N.am      14 UNK        -0.5000 
     80 CA         -1.3901  -25.5768  -50.8541 C.3       14 UNK         0.1400 
     81 CB         -0.9476  -24.6600  -52.0089 C.3       14 UNK        -0.1800 
     82 C          -2.8211  -25.2563  -50.3780 C.2       14 UNK         0.5000 
     83 O          -3.6308  -24.7678  -51.1660 O.2       14 UNK        -0.5000 
     84 N          -3.0991  -25.4849  -49.0850 N.am      15 UNK        -0.5000 
     85 CA         -4.3257  -25.1892  -48.3301 C.3       15 UNK         0.1400 
     86 CB         -5.5623  -25.8730  -48.9442 C.3       15 UNK        -0.1800 
     87 C          -4.5705  -23.6853  -48.0952 C.2       15 UNK         0.5000 
     88 O          -4.9356  -23.3087  -46.9810 O.2       15 UNK        -0.5000 
     89 N          -4.3281  -22.8646  -49.1265 N.am      16 UNK        -0.5000 
     90 CA         -4.4913  -21.4099  -49.1850 C.3       16 UNK         0.1400 
     91 CB         -3.5847  -20.7190  -48.1444 C.3       16 UNK        -0.1800 
     92 C          -5.9647  -20.9551  -49.0926 C.2       16 UNK         0.5000 
     93 O          -6.8793  -21.7817  -49.1311 O.2       16 UNK        -0.5000 
     94 N          -6.1588  -19.6302  -49.0118 N.am      17 UNK        -0.5000 
     95 CA         -7.4409  -18.9204  -48.9155 C.3       17 UNK         0.1400 
     96 CB         -8.1394  -19.2349  -47.5757 C.3       17 UNK        -0.1800 
     97 C          -8.3610  -19.1259  -50.1398 C.2       17 UNK         0.5000 
     98 O          -9.5860  -19.1041  -50.0036 O.2       17 UNK        -0.5000 
     99 N          -7.7557  -19.3044  -51.3188 N.am      18 UNK        -0.5000 
    100 CA        -8.4257  -19.4759  -52.6011 C.3       18 UNK         0.1400 
    101 CB        -8.8335  -20.9471  -52.7907 C.3       18 UNK        -0.1800 
    102 C         -7.4558  -19.0386  -53.7012 C.2       18 UNK         0.5000 
    103 O         -6.2521  -19.2754  -53.5736 O.2       18 UNK        -0.5000 
    104 N         -7.9879  -18.4465  -54.7777 N.am      19 UNK        -0.5000 
    105 CA        -7.2205  -17.9168  -55.9117 C.3       19 UNK         0.1400 
    106 CB        -8.1769  -17.2001  -56.8763 C.3       19 UNK        -0.1800 
    107 C         -6.3901  -18.9753  -56.6637 C.2       19 UNK         0.5000 
    108 O         -5.3458  -18.6402  -57.2221 O.2       19 UNK        -0.5000 
    109 N         -6.8395  -20.2373  -56.6266 N.am      20 UNK        -0.5000 
    110 CA        -6.1297  -21.3954  -57.1738 C.3       20 UNK         0.1400 
    111 CB        -7.0572  -22.6189  -57.1163 C.3       20 UNK        -0.1800 
    112 C         -4.7966  -21.6960  -56.4568 C.2       20 UNK         0.5000 
    113 O         -3.8961  -22.2627  -57.0772 O.2       20 UNK        -0.5000 
    114 N         -4.6945  -21.3097  -55.1783 N.am      21 UNK        -0.5000 
    115 CA        -3.4876  -21.4290  -54.3656 C.3       21 UNK         0.1400 
    116 CB        -3.8779  -21.9043  -52.9578 C.3       21 UNK        -0.1800 
    117 C         -2.7446  -20.0864  -54.2945 C.2       21 UNK         0.5000 
    118 O         -1.5300  -20.0555  -54.4934 O.2       21 UNK        -0.5000 
    119 N         -3.4859  -19.0107  -54.0010 N.am      22 UNK        -0.5000 
    120 CA        -2.9434  -17.6701  -53.7392 C.3       22 UNK         0.1400 
    121 C         -2.5774  -16.8447  -55.0047 C.2       22 UNK         0.5000 
    122 N         -3.0098  -17.2151  -56.2029 N.am      22 UNK        -0.7600 
    123 O         -1.8743  -15.8438  -54.8986 O.2       22 UNK        -0.5000 
    124 C124       -3.8581  -16.8501  -52.7884 C.3       23 UNK        -0.0398 
    125 S125       -4.2562  -17.7080  -51.2214 S.3       23 UNK        -0.2404 
    126 C126       -2.9422  -17.0981  -50.1156 C.3       23 UNK        -0.0205 
    127 H127        6.8758  -19.3162  -47.7434 H         1 UNK         0.0600 
    128 H128        6.9292  -18.3907  -49.2476 H         1 UNK         0.0600 
    129 H129        6.4048  -20.0773  -49.2665 H         1 UNK         0.0600 
    130 H130        5.2155  -16.9586  -49.4128 H         1 UNK         0.3000 
    131 H131        2.5113  -17.7622  -49.2084 H         1 UNK         0.0600 
    132 H132        3.7044  -14.9546  -49.4268 H         1 UNK         0.0800 
    133 H133        2.0062  -15.3096  -49.5942 H         1 UNK         0.0800 
    134 H134        1.1961  -14.9893  -51.9792 H         1 UNK         0.0800 
    135 H135        1.5970  -16.1485  -53.2188 H         1 UNK         0.0800 
    136 H136       -0.8746  -15.5600  -51.0110 H         1 UNK         0.1150 
    137 H137       -1.9825  -19.6369  -50.3010 H         1 UNK         0.1150 
    138 H138        1.8344  -18.7244  -52.0161 H         1 UNK         0.1150 
    139 H139       -0.3962  -21.2605  -51.9795 H         1 UNK         0.0800 
    140 H140        1.2903  -20.9949  -51.6157 H         1 UNK         0.0800 
    141 H141        1.7759  -20.0883  -49.1270 H         1 UNK         0.0800 
    142 H142        2.2980  -21.6867  -48.7114 H         1 UNK         0.0800 
    143 H143        1.9213  -20.2537  -46.7280 H         1 UNK         0.0600 
    144 H144       -0.7290  -19.8051  -47.8614 H         1 UNK         0.3000 
    145 H145       -2.2017  -18.4713  -46.8540 H         1 UNK         0.0600 
    146 H146       -1.6233  -17.6081  -43.9659 H         1 UNK         0.0600 
    147 H147       -3.1796  -17.5256  -44.7887 H         1 UNK         0.0600 
    148 H148       -2.4721  -19.0860  -44.4137 H         1 UNK         0.0600 
    149 H149       -0.1054  -16.5976  -46.5329 H         1 UNK         0.3000 
    150 H150       -0.3909  -14.6931  -47.9587 H         1 UNK         0.0600 
    151 H151       -2.5488  -13.8096  -48.8493 H         1 UNK         0.0600 
    152 H152       -1.5606  -12.5083  -48.2040 H         1 UNK         0.0600 
    153 H153       -2.9346  -13.1112  -47.2795 H         1 UNK         0.0600 
    154 H154       -1.2548  -13.9308  -45.2237 H         1 UNK         0.3000 
    155 H155        1.8858  -13.4589  -44.1479 H         1 UNK         0.0600 
    156 H156        2.0445  -11.1770  -45.1228 H         1 UNK         0.0600 
    157 H157        1.5657  -11.0955  -43.4362 H         1 UNK         0.0600 
    158 H158        0.3651  -10.8575  -44.7070 H         1 UNK         0.0600 
    159 H159       -0.6857  -12.4713  -43.2007 H         1 UNK         0.3000 
    160 H160       -1.4354  -13.5787  -41.2616 H         1 UNK         0.0600 
    161 H161       -2.7587  -15.5659  -43.2090 H         1 UNK         0.0600 
    162 H162       -2.9269  -13.8163  -43.2701 H         1 UNK         0.0600 
    163 H163       -3.5894  -14.7097  -41.9139 H         1 UNK         0.0600 
    164 H164       -0.5566  -16.3249  -41.2916 H         1 UNK         0.3000 
    165 H165       -1.2177  -16.6951  -37.8675 H         1 UNK         0.0600 
    166 H166       -2.2257  -18.9128  -38.3548 H         1 UNK         0.0600 
    167 H167       -3.4001  -17.6393  -38.6456 H         1 UNK         0.0600 
    168 H168       -2.5931  -18.4120  -40.0056 H         1 UNK         0.0600 
    169 H169       -0.1364  -18.5670  -39.6995 H         1 UNK         0.3000 
    170 H170        3.0298  -17.1957  -40.1756 H         1 UNK         0.0600 
    171 H171        3.4365  -17.9196  -37.8552 H         1 UNK         0.0600 
    172 H172        2.4489  -19.3538  -38.0810 H         1 UNK         0.0600 
    173 H173        3.9594  -19.1699  -38.9731 H         1 UNK         0.0600 
    174 H174        2.4275  -18.5821  -41.7240 H         1 UNK         0.3000 
    175 H175        1.1734  -21.7914  -41.9493 H         1 UNK         0.0600 
    176 H176       -0.5312  -19.3788  -42.7395 H         1 UNK         0.0600 
    177 H177       -0.4848  -20.8804  -43.6589 H         1 UNK         0.0600 
    178 H178       -1.0874  -20.8760  -42.0077 H         1 UNK         0.0600 
    179 H179        1.7551  -19.6915  -43.8770 H         1 UNK         0.3000 
    180 H180        5.2234  -19.8327  -43.5511 H         1 UNK         0.0600 
    181 H181        5.6250  -20.7291  -45.7750 H         1 UNK         0.0600 
    182 H182        3.9823  -21.3485  -45.8906 H         1 UNK         0.0600 
    183 H183        5.1096  -22.0483  -44.7386 H         1 UNK         0.0600 
    184 H184        3.8081  -18.8937  -45.7965 H         1 UNK         0.3000 
    185 H185        2.2662  -16.2409  -44.8553 H         1 UNK         0.0600 
    186 H186        5.2094  -15.4415  -44.5440 H         1 UNK         0.0600 
    187 H187        3.9387  -14.3695  -45.1287 H         1 UNK         0.0600 
    188 H188        3.8777  -14.9873  -43.4855 H         1 UNK         0.0600 
    189 H189        4.5885  -16.8507  -46.6552 H         1 UNK         0.3000 
    190 H190       -1.1675  -21.8060  -46.5871 H         1 UNK         0.3000 
    191 H191       -2.0568  -23.5999  -45.7066 H         1 UNK         0.0600 
    192 H192       -0.9183  -24.8460  -43.8303 H         1 UNK         0.0600 
    193 H193       -0.9997  -23.1182  -43.5764 H         1 UNK         0.0600 
    194 H194        0.5187  -23.8670  -44.0716 H         1 UNK         0.0600 
    195 H195        1.1865  -24.2362  -46.9407 H         1 UNK         0.3000 
    196 H196        1.1054  -26.9954  -47.2953 H         1 UNK         0.0600 
    197 H197        2.5385  -24.8671  -48.9760 H         1 UNK         0.0600 
    198 H198        3.1507  -25.6100  -47.4989 H         1 UNK         0.0600 
    199 H199        2.9444  -26.5800  -48.9490 H         1 UNK         0.0600 
    200 H200       -0.3123  -24.5169  -49.3739 H         1 UNK         0.3000 
    201 H201       -1.4075  -26.6018  -51.2289 H         1 UNK         0.0600 
    202 H202       -1.0145  -23.6083  -51.7336 H         1 UNK         0.0600 
    203 H203        0.0810  -24.8653  -52.3054 H         1 UNK         0.0600 
    204 H204       -1.5741  -24.8069  -52.8895 H         1 UNK         0.0600 
    205 H205       -2.3484  -25.8493  -48.5090 H         1 UNK         0.3000 
    206 H206       -4.1704  -25.6339  -47.3458 H         1 UNK         0.0600 
    207 H207       -5.3977  -26.9422  -49.0765 H         1 UNK         0.0600 
    208 H208       -6.4300  -25.7548  -48.2942 H         1 UNK         0.0600 
    209 H209       -5.8276  -25.4499  -49.9133 H         1 UNK         0.0600 
    210 H210       -4.0875  -23.3167  -50.0041 H         1 UNK         0.3000 
    211 H211       -4.1396  -21.1108  -50.1718 H         1 UNK         0.0600 
    212 H212       -3.5276  -19.6482  -48.3284 H         1 UNK         0.0600 
    213 H213       -2.5696  -21.1101  -48.1926 H         1 UNK         0.0600 
    214 H214       -3.9510  -20.8556  -47.1264 H         1 UNK         0.0600 
    215 H215       -5.3461  -19.0310  -49.0326 H         1 UNK         0.3000 
    216 H216       -7.1933  -17.8579  -48.9098 H         1 UNK         0.0600 
    217 H217       -9.0127  -18.5984  -47.4295 H         1 UNK         0.0600 
    218 H218       -8.4785  -20.2702  -47.5290 H         1 UNK         0.0600 
    219 H219       -7.4703  -19.0628  -46.7326 H         1 UNK         0.0600 
    220 H220       -6.7455  -19.2697  -51.3751 H         1 UNK         0.3000 
    221 H221       -9.3119  -18.8390  -52.6383 H         1 UNK         0.0600 
    222 H222       -9.5346  -21.2656  -52.0191 H         1 UNK         0.0600 
    223 H223       -7.9686  -21.6110  -52.7489 H         1 UNK         0.0600 
    224 H224       -9.3207  -21.0990  -53.7545 H         1 UNK         0.0600 
    225 H225       -8.9876  -18.3070  -54.8136 H         1 UNK         0.3000 
    226 H226       -6.5181  -17.1794  -55.5170 H         1 UNK         0.0600 
    227 H227       -8.9260  -17.8820  -57.2808 H         1 UNK         0.0600 
    228 H228       -8.6991  -16.3820  -56.3798 H         1 UNK         0.0600 
    229 H229       -7.6333  -16.7717  -57.7196 H         1 UNK         0.0600 
    230 H230       -7.7089  -20.4208  -56.1483 H         1 UNK         0.3000 
    231 H231       -5.9005  -21.1862  -58.2208 H         1 UNK         0.0600 
    232 H232       -7.3391  -22.8620  -56.0909 H         1 UNK         0.0600 
    233 H233       -6.5705  -23.4983  -57.5402 H         1 UNK         0.0600 
    234 H234       -7.9711  -22.4491  -57.6857 H         1 UNK         0.0600 
    235 H235       -5.4665  -20.8060  -54.7591 H         1 UNK         0.3000 
    236 H236       -2.8089  -22.1701  -54.7929 H         1 UNK         0.0600 
    237 H237       -3.0021  -21.9832  -52.3125 H         1 UNK         0.0600 
    238 H238       -4.5822  -21.2209  -52.4828 H         1 UNK         0.0600 
    239 H239       -4.3455  -22.8880  -52.9950 H         1 UNK         0.0600 
    240 H240       -4.4833  -19.1218  -53.8345 H         1 UNK         0.3000 
    241 H241       -1.9925  -17.8132  -53.2271 H         1 UNK         0.0600 
    242 H242       -3.6436  -17.9959  -56.3252 H         1 UNK         0.3800 
    243 H243       -2.7510  -16.6656  -57.0064 H         1 UNK         0.3800 
    244 H244       -4.8017  -16.6237  -53.2875 H         1 UNK         0.0800 
    245 H245       -3.4027  -15.8868  -52.5526 H         1 UNK         0.0800 
    246 H246       -3.0016  -16.0108  -50.0511 H         1 UNK         0.0800 
    247 H247       -3.1238  -17.4742  -49.1100 H         1 UNK         0.0800 
@<TRIPOS>BOND
     1    1    2 1    
     2    1  127 1    
     3    1  128 1    
     4    1  129 1    
     5    2    3 2    
     6    2    4 am   BACKBONE|DICT|INTERRES
     7    4    5 1    
     8    4  130 1    
     9    5    6 1    
    10    5   65 1    
    11    5  131 1    
    12    6    7 1    
    13    6  132 1    
    14    6  133 1    
    15    7    8 1    
    16    8    9 1    
    17    8  134 1    
    18    8  135 1    
    19    9   10 ar   
    20    9   14 ar   
    21   10   11 ar   
    22   10  136 1    
    23   11   12 ar   
    24   11  126 1    
    25   12   13 ar   
    26   12  137 1    
    27   13   14 ar   
    28   13   15 1    
    29   14  138 1    
    30   15   16 1    
    31   15  139 1    
    32   15  140 1    
    33   16   17 1    
    34   17   18 1    
    35   17  141 1    
    36   17  142 1    
    37   18   19 1    
    38   18   67 1    
    39   18  143 1    
    40   19   20 am   BACKBONE|DICT|INTERRES
    41   19  144 1    
    42   20   21 2    
    43   20   22 1    
    44   22   23 1    
    45   22   24 1    
    46   22  145 1    
    47   23  146 1    
    48   23  147 1    
    49   23  148 1    
    50   24   25 am   BACKBONE|DICT|INTERRES
    51   24  149 1    
    52   25   26 2    
    53   25   27 1    
    54   27   28 1    
    55   27   29 1    
    56   27  150 1    
    57   28  151 1    
    58   28  152 1    
    59   28  153 1    
    60   29   30 am   BACKBONE|DICT|INTERRES
    61   29  154 1    
    62   30   31 2    
    63   30   32 1    
    64   32   33 1    
    65   32   34 1    
    66   32  155 1    
    67   33  156 1    
    68   33  157 1    
    69   33  158 1    
    70   34   35 am   BACKBONE|DICT|INTERRES
    71   34  159 1    
    72   35   36 2    
    73   35   37 1    
    74   37   38 1    
    75   37   39 1    
    76   37  160 1    
    77   38  161 1    
    78   38  162 1    
    79   38  163 1    
    80   39   40 am   BACKBONE|DICT|INTERRES
    81   39  164 1    
    82   40   41 2    
    83   40   42 1    
    84   42   43 1    
    85   42   44 1    
    86   42  165 1    
    87   43  166 1    
    88   43  167 1    
    89   43  168 1    
    90   44   45 am   BACKBONE|DICT|INTERRES
    91   44  169 1    
    92   45   46 2    
    93   45   47 1    
    94   47   48 1    
    95   47   49 1    
    96   47  170 1    
    97   48  171 1    
    98   48  172 1    
    99   48  173 1    
   100   49   50 am   BACKBONE|DICT|INTERRES
   101   49  174 1    
   102   50   51 2    
   103   50   52 1    
   104   52   53 1    
   105   52   54 1    
   106   52  175 1    
   107   53  176 1    
   108   53  177 1    
   109   53  178 1    
   110   54   55 am   BACKBONE|DICT|INTERRES
   111   54  179 1    
   112   55   56 2    
   113   55   57 1    
   114   57   58 1    
   115   57   59 1    
   116   57  180 1    
   117   58  181 1    
   118   58  182 1    
   119   58  183 1    
   120   59   60 am   BACKBONE|DICT|INTERRES
   121   59  184 1    
   122   60   61 2    
   123   60   62 1    
   124   62   63 1    
   125   62   64 1    
   126   62  185 1    
   127   63  186 1    
   128   63  187 1    
   129   63  188 1    
   130   64   65 am   BACKBONE|DICT|INTERRES
   131   64  189 1    
   132   65   66 2    
   133   67   68 2    
   134   67   69 am   BACKBONE|DICT|INTERRES
   135   69   70 1    
   136   69  190 1    
   137   70   71 1    
   138   70   72 1    
   139   70  191 1    
   140   71  192 1    
   141   71  193 1    
   142   71  194 1    
   143   72   73 2    
   144   72   74 am   BACKBONE|DICT|INTERRES
   145   74   75 1    
   146   74  195 1    
   147   75   76 1    
   148   75   77 1    
   149   75  196 1    
   150   76  197 1    
   151   76  198 1    
   152   76  199 1    
   153   77   78 2    
   154   77   79 am   BACKBONE|DICT|INTERRES
   155   79   80 1    
   156   79  200 1    
   157   80   81 1    
   158   80   82 1    
   159   80  201 1    
   160   81  202 1    
   161   81  203 1    
   162   81  204 1    
   163   82   83 2    
   164   82   84 am   BACKBONE|DICT|INTERRES
   165   84   85 1    
   166   84  205 1    
   167   85   86 1    
   168   85   87 1    
   169   85  206 1    
   170   86  207 1    
   171   86  208 1    
   172   86  209 1    
   173   87   88 2    
   174   87   89 am   BACKBONE|DICT|INTERRES
   175   89   90 1    
   176   89  210 1    
   177   90   91 1    
   178   90   92 1    
   179   90  211 1    
   180   91  212 1    
   181   91  213 1    
   182   91  214 1    
   183   92   93 2    
   184   92   94 am   BACKBONE|DICT|INTERRES
   185   94   95 1    
   186   94  215 1    
   187   95   96 1    
   188   95   97 1    
   189   95  216 1    
   190   96  217 1    
   191   96  218 1    
   192   96  219 1    
   193   97   98 2    
   194   97   99 am   BACKBONE|DICT|INTERRES
   195   99  100 1    
   196   99  220 1    
   197  100  101 1    
   198  100  102 1    
   199  100  221 1    
   200  101  222 1    
   201  101  223 1    
   202  101  224 1    
   203  102  103 2    
   204  102  104 am   BACKBONE|DICT|INTERRES
   205  104  105 1    
   206  104  225 1    
   207  105  106 1    
   208  105  107 1    
   209  105  226 1    
   210  106  227 1    
   211  106  228 1    
   212  106  229 1    
   213  107  108 2    
   214  107  109 am   BACKBONE|DICT|INTERRES
   215  109  110 1    
   216  109  230 1    
   217  110  111 1    
   218  110  112 1    
   219  110  231 1    
   220  111  232 1    
   221  111  233 1    
   222  111  234 1    
   223  112  113 2    
   224  112  114 am   BACKBONE|DICT|INTERRES
   225  114  115 1    
   226  114  235 1    
   227  115  116 1    
   228  115  117 1    
   229  115  236 1    
   230  116  237 1    
   231  116  238 1    
   232  116  239 1    
   233  117  118 2    
   234  117  119 am   BACKBONE|DICT|INTERRES
   235  119  120 1    
   236  119  240 1    
   237  120  121 1    
   238  120  124 1    
   239  120  241 1    
   240  121  122 am   BACKBONE|DICT|INTERRES
   241  121  123 2    
   242  122  242 1    
   243  122  243 1    
   244  124  125 1    
   245  124  244 1    
   246  124  245 1    
   247  125  126 1    
   248  126  246 1    
   249  126  247 1    
@<TRIPOS>SUBSTRUCTURE
     1 UNK         1 GROUP             0       ****    0 ROOT    
