@<TRIPOS>MOLECULE
3R540
247   249    1
SMALL
USER_CHARGES


@<TRIPOS>ATOM
      1 CA          2.7498   -9.8149  -51.3056 C.3       0 UNK        -0.1800 
      2 C           1.4416   -9.9033  -50.5224 C.2       0 UNK         0.5000 
      3 O           0.7519   -8.8954  -50.3844 O.2       0 UNK        -0.5000 
      4 N           1.0565  -11.0708  -49.9860 N.am      1 UNK        -0.5000 
      5 CA          1.7727  -12.3556  -50.0456 C.3       1 UNK         0.1400 
      6 C6          0.7845  -13.5558  -50.0369 C.3       23 UNK        -0.0398 
      7 S7          1.2020  -14.8166  -51.2883 S.3       23 UNK        -0.2404 
      8 C8         -0.4388  -15.5046  -51.6738 C.3       23 UNK        -0.0205 
      9 C9         -1.0001  -16.3173  -50.5170 C.ar      23 UNK        -0.0193 
     10 C10        -1.8811  -15.7357  -49.6027 C.ar      23 UNK        -0.1150 
     11 C11        -2.4166  -16.4884  -48.5536 C.ar      23 UNK        -0.0193 
     12 C12        -2.0656  -17.8365  -48.4193 C.ar      23 UNK        -0.1150 
     13 C13        -1.1922  -18.4306  -49.3364 C.ar      23 UNK        -0.0193 
     14 C14        -0.6616  -17.6645  -50.3781 C.ar      23 UNK        -0.1150 
     15 C15        -0.8441  -19.9073  -49.2459 C.3       23 UNK        -0.0205 
     16 S16         0.7792  -20.1881  -48.4737 S.3       23 UNK        -0.2404 
     17 C17         0.3216  -20.3609  -46.7174 C.3       23 UNK        -0.0398 
     18 CA          0.3830  -21.8335  -46.2409 C.3       11 UNK         0.1400 
     19 N           0.3694  -21.9354  -44.7835 N.am      11 UNK        -0.5000 
     20 C           0.5977  -23.0595  -44.0901 C.2       10 UNK         0.5000 
     21 O           0.9428  -24.1242  -44.6015 O.2       10 UNK        -0.5000 
     22 CA          0.3527  -22.9918  -42.5739 C.3       10 UNK         0.1400 
     23 CB          1.5910  -22.4549  -41.8433 C.3       10 UNK        -0.1800 
     24 N          -0.8105  -22.1643  -42.2516 N.am      10 UNK        -0.5000 
     25 C          -2.0784  -22.5275  -42.4906 C.2       9 UNK         0.5000 
     26 O          -2.3993  -23.6183  -42.9617 O.2       9 UNK        -0.5000 
     27 CA         -3.1694  -21.4892  -42.1731 C.3       9 UNK         0.1400 
     28 CB         -3.6021  -21.5927  -40.7039 C.3       9 UNK        -0.1800 
     29 N          -2.7610  -20.1134  -42.4612 N.am      9 UNK        -0.5000 
     30 C          -2.5362  -19.6363  -43.6927 C.2       8 UNK         0.5000 
     31 O          -2.5957  -20.3162  -44.7161 O.2       8 UNK        -0.5000 
     32 CA         -2.1383  -18.1541  -43.7902 C.3       8 UNK         0.1400 
     33 CB         -3.3539  -17.2569  -43.5050 C.3       8 UNK        -0.1800 
     34 N          -1.0338  -17.7593  -42.9098 N.am      8 UNK        -0.5000 
     35 C           0.1522  -18.3737  -42.7858 C.2       7 UNK         0.5000 
     36 O           0.4418  -19.4264  -43.3571 O.2       7 UNK        -0.5000 
     37 CA          1.1803  -17.6845  -41.8677 C.3       7 UNK         0.1400 
     38 CB          2.5658  -18.3529  -41.9148 C.3       7 UNK        -0.1800 
     39 N           1.3268  -16.2788  -42.2392 N.am      7 UNK        -0.5000 
     40 C           0.7321  -15.2482  -41.6261 C.2       6 UNK         0.5000 
     41 O          -0.0073  -15.3675  -40.6489 O.2       6 UNK        -0.5000 
     42 CA          0.9671  -13.8557  -42.2394 C.3       6 UNK         0.1400 
     43 CB          2.3672  -13.3292  -41.8896 C.3       6 UNK        -0.1800 
     44 N           0.7926  -13.8538  -43.6918 N.am      6 UNK        -0.5000 
     45 C          -0.3706  -14.0775  -44.3197 C.2       5 UNK         0.5000 
     46 O          -1.4394  -14.2547  -43.7362 O.2       5 UNK        -0.5000 
     47 CA         -0.3332  -14.1254  -45.8557 C.3       5 UNK         0.1400 
     48 CB         -0.4770  -12.7190  -46.4582 C.3       5 UNK        -0.1800 
     49 N           0.8894  -14.7594  -46.3463 N.am      5 UNK        -0.5000 
     50 C           1.0692  -16.0874  -46.4000 C.2       4 UNK         0.5000 
     51 O           0.2001  -16.9052  -46.1063 O.2       4 UNK        -0.5000 
     52 CA          2.4631  -16.5903  -46.8188 C.3       4 UNK         0.1400 
     53 CB          2.5259  -16.8310  -48.3323 C.3       4 UNK        -0.1800 
     54 N           3.5405  -15.6778  -46.4339 N.am      4 UNK        -0.5000 
     55 C           3.9336  -15.4711  -45.1696 C.2       3 UNK         0.5000 
     56 O           3.4388  -16.0438  -44.1999 O.2       3 UNK        -0.5000 
     57 CA          5.0244  -14.4073  -44.9412 C.3       3 UNK         0.1400 
     58 CB          6.4209  -15.0371  -45.0479 C.3       3 UNK        -0.1800 
     59 N           4.9383  -13.2647  -45.8543 N.am      3 UNK        -0.5000 
     60 C           3.8748  -12.4609  -45.9890 C.2       2 UNK         0.5000 
     61 O           2.8268  -12.6131  -45.3599 O.2       2 UNK        -0.5000 
     62 CA          3.9681  -11.3108  -47.0109 C.3       2 UNK         0.1400 
     63 CB          5.3791  -11.0990  -47.6052 C.3       2 UNK        -0.1800 
     64 N           2.9790  -11.4591  -48.0829 N.am      2 UNK        -0.5000 
     65 C           2.8556  -12.4824  -48.9444 C.2       1 UNK         0.5000 
     66 O           3.5615  -13.4902  -48.9021 O.2       1 UNK        -0.5000 
     67 C          -0.7304  -22.7032  -46.8613 C.2       11 UNK         0.5000 
     68 O          -0.4409  -23.5524  -47.7032 O.2       11 UNK        -0.5000 
     69 N          -1.9738  -22.5205  -46.3958 N.am      12 UNK        -0.5000 
     70 CA         -3.1687  -23.2273  -46.8664 C.3       12 UNK         0.1400 
     71 CB         -4.4012  -22.6202  -46.1874 C.3       12 UNK        -0.1800 
     72 C          -3.1464  -24.7540  -46.6642 C.2       12 UNK         0.5000 
     73 O          -3.8607  -25.4628  -47.3722 O.2       12 UNK        -0.5000 
     74 N          -2.3263  -25.2396  -45.7235 N.am      13 UNK        -0.5000 
     75 CA         -2.0836  -26.6639  -45.4977 C.3       13 UNK         0.1400 
     76 CB         -1.3973  -26.8470  -44.1354 C.3       13 UNK        -0.1800 
     77 C          -1.2530  -27.3258  -46.6176 C.2       13 UNK         0.5000 
     78 O          -1.3299  -28.5459  -46.7717 O.2       13 UNK        -0.5000 
     79 N          -0.4772  -26.5291  -47.3663 N.am      14 UNK        -0.5000 
     80 CA          0.3800  -26.9844  -48.4608 C.3       14 UNK         0.1400 
     81 CB          1.8059  -26.4619  -48.2225 C.3       14 UNK        -0.1800 
     82 C          -0.1392  -26.5143  -49.8303 C.2       14 UNK         0.5000 
     83 O          -0.0967  -27.2851  -50.7904 O.2       14 UNK        -0.5000 
     84 N          -0.5927  -25.2574  -49.9073 N.am      15 UNK        -0.5000 
     85 CA         -1.0578  -24.6012  -51.1264 C.3       15 UNK         0.1400 
     86 CB         -1.1677  -23.0928  -50.8562 C.3       15 UNK        -0.1800 
     87 C          -2.4051  -25.1432  -51.6341 C.2       15 UNK         0.5000 
     88 O          -3.2578  -25.5425  -50.8386 O.2       15 UNK        -0.5000 
     89 N          -2.5849  -25.0787  -52.9570 N.am      16 UNK        -0.5000 
     90 CA         -3.8696  -25.2409  -53.6343 C.3       16 UNK         0.1400 
     91 CB         -3.6158  -25.8593  -55.0189 C.3       16 UNK        -0.1800 
     92 C          -4.5496  -23.8679  -53.7804 C.2       16 UNK         0.5000 
     93 O          -3.8854  -22.8380  -53.6453 O.2       16 UNK        -0.5000 
     94 N          -5.8475  -23.8659  -54.1132 N.am      17 UNK        -0.5000 
     95 CA         -6.6684  -22.6609  -54.3062 C.3       17 UNK         0.1400 
     96 CB         -8.1179  -23.0832  -54.5877 C.3       17 UNK        -0.1800 
     97 C          -6.1612  -21.7040  -55.4077 C.2       17 UNK         0.5000 
     98 O          -6.4424  -20.5066  -55.3503 O.2       17 UNK        -0.5000 
     99 N          -5.3861  -22.2360  -56.3641 N.am      18 UNK        -0.5000 
    100 CA        -4.6601  -21.4780  -57.3867 C.3       18 UNK         0.1400 
    101 CB        -4.0794  -22.4640  -58.4118 C.3       18 UNK        -0.1800 
    102 C         -3.5427  -20.5790  -56.8123 C.2       18 UNK         0.5000 
    103 O         -3.1635  -19.6027  -57.4594 O.2       18 UNK        -0.5000 
    104 N         -3.0565  -20.9058  -55.6080 N.am      19 UNK        -0.5000 
    105 CA        -2.0907  -20.1382  -54.8259 C.3       19 UNK         0.1400 
    106 CB        -0.8813  -21.0363  -54.5100 C.3       19 UNK        -0.1800 
    107 C         -2.7762  -19.5870  -53.5598 C.2       19 UNK         0.5000 
    108 O         -2.1968  -19.6220  -52.4742 O.2       19 UNK        -0.5000 
    109 N         -4.0135  -19.0987  -53.7312 N.am      20 UNK        -0.5000 
    110 CA        -4.9283  -18.5236  -52.7411 C.3       20 UNK         0.1400 
    111 CB        -4.3279  -17.2802  -52.0550 C.3       20 UNK        -0.1800 
    112 C         -5.4497  -19.5451  -51.7155 C.2       20 UNK         0.5000 
    113 O         -6.6536  -19.8015  -51.6900 O.2       20 UNK        -0.5000 
    114 N         -4.5411  -20.0945  -50.8961 N.am      21 UNK        -0.5000 
    115 CA        -4.7840  -21.0369  -49.7979 C.3       21 UNK         0.1400 
    116 CB        -5.1135  -22.4365  -50.3509 C.3       21 UNK        -0.1800 
    117 C         -5.8352  -20.5191  -48.7926 C.2       21 UNK         0.5000 
    118 O         -6.8610  -21.1665  -48.5769 O.2       21 UNK        -0.5000 
    119 N         -5.5552  -19.3330  -48.2366 N.am      22 UNK        -0.5000 
    120 CA        -6.3882  -18.5686  -47.2931 C.3       22 UNK         0.1400 
    121 C         -6.9555  -19.3986  -46.1044 C.2       22 UNK         0.5000 
    122 N         -8.2715  -19.4916  -45.9702 N.am      22 UNK        -0.7600 
    123 O         -6.2115  -19.9056  -45.2701 O.2       22 UNK        -0.5000 
    124 C124       -5.6054  -17.3540  -46.7392 C.3       23 UNK        -0.0398 
    125 S125       -5.1106  -16.1558  -48.0219 S.3       23 UNK        -0.2404 
    126 C126       -3.3752  -15.8322  -47.5748 C.3       23 UNK        -0.0205 
    127 H127        3.5885  -10.1954  -50.7233 H         1 UNK         0.0600 
    128 H128        2.9711   -8.7789  -51.5629 H         1 UNK         0.0600 
    129 H129        2.6793  -10.3806  -52.2346 H         1 UNK         0.0600 
    130 H130        0.1853  -11.0883  -49.4751 H         1 UNK         0.3000 
    131 H131        2.3156  -12.3821  -50.9915 H         1 UNK         0.0600 
    132 H132        0.7253  -14.0419  -49.0625 H         1 UNK         0.0800 
    133 H133       -0.2274  -13.2096  -50.2502 H         1 UNK         0.0800 
    134 H134       -1.1242  -14.7013  -51.9483 H         1 UNK         0.0800 
    135 H135       -0.3539  -16.1413  -52.5557 H         1 UNK         0.0800 
    136 H136       -2.1584  -14.6971  -49.7126 H         1 UNK         0.1150 
    137 H137       -2.4745  -18.4202  -47.6070 H         1 UNK         0.1150 
    138 H138        0.0066  -18.1250  -51.0921 H         1 UNK         0.1150 
    139 H139       -1.6178  -20.4576  -48.7112 H         1 UNK         0.0800 
    140 H140       -0.8209  -20.3220  -50.2537 H         1 UNK         0.0800 
    141 H141        1.0300  -19.7603  -46.1453 H         1 UNK         0.0800 
    142 H142       -0.6550  -19.9131  -46.5297 H         1 UNK         0.0800 
    143 H143        1.3381  -22.2489  -46.5705 H         1 UNK         0.0600 
    144 H144        0.1502  -21.0851  -44.2709 H         1 UNK         0.3000 
    145 H145        0.1618  -24.0066  -42.2179 H         1 UNK         0.0600 
    146 H146        1.4240  -22.3962  -40.7679 H         1 UNK         0.0600 
    147 H147        2.4494  -23.1078  -42.0051 H         1 UNK         0.0600 
    148 H148        1.8658  -21.4626  -42.1985 H         1 UNK         0.0600 
    149 H149       -0.6280  -21.2301  -41.9159 H         1 UNK         0.3000 
    150 H150       -4.0342  -21.7189  -42.7984 H         1 UNK         0.0600 
    151 H151       -3.9325  -22.6044  -40.4655 H         1 UNK         0.0600 
    152 H152       -4.4337  -20.9215  -40.4898 H         1 UNK         0.0600 
    153 H153       -2.7864  -21.3454  -40.0244 H         1 UNK         0.0600 
    154 H154       -2.6728  -19.4869  -41.6753 H         1 UNK         0.3000 
    155 H155       -1.8202  -17.9777  -44.8185 H         1 UNK         0.0600 
    156 H156       -3.1871  -16.2423  -43.8636 H         1 UNK         0.0600 
    157 H157       -3.5738  -17.2033  -42.4386 H         1 UNK         0.0600 
    158 H158       -4.2521  -17.6303  -43.9962 H         1 UNK         0.0600 
    159 H159       -1.1603  -16.8910  -42.4090 H         1 UNK         0.3000 
    160 H160        0.8091  -17.7681  -40.8444 H         1 UNK         0.0600 
    161 H161        2.9499  -18.4174  -42.9337 H         1 UNK         0.0600 
    162 H162        2.5252  -19.3636  -41.5108 H         1 UNK         0.0600 
    163 H163        3.2916  -17.7985  -41.3197 H         1 UNK         0.0600 
    164 H164        1.9282  -16.0970  -43.0392 H         1 UNK         0.3000 
    165 H165        0.2310  -13.1713  -41.8124 H         1 UNK         0.0600 
    166 H166        3.1511  -13.9817  -42.2735 H         1 UNK         0.0600 
    167 H167        2.5292  -12.3329  -42.3017 H         1 UNK         0.0600 
    168 H168        2.4983  -13.2610  -40.8090 H         1 UNK         0.0600 
    169 H169        1.6111  -13.6388  -44.2526 H         1 UNK         0.3000 
    170 H170       -1.1897  -14.7151  -46.1829 H         1 UNK         0.0600 
    171 H171       -1.3637  -12.2186  -46.0670 H         1 UNK         0.0600 
    172 H172        0.3809  -12.0864  -46.2310 H         1 UNK         0.0600 
    173 H173       -0.5881  -12.7626  -47.5404 H         1 UNK         0.0600 
    174 H174        1.6807  -14.1540  -46.5162 H         1 UNK         0.3000 
    175 H175        2.6256  -17.5472  -46.3179 H         1 UNK         0.0600 
    176 H176        3.4381  -17.3576  -48.6117 H         1 UNK         0.0600 
    177 H177        1.6836  -17.4329  -48.6707 H         1 UNK         0.0600 
    178 H178        2.4951  -15.8961  -48.8878 H         1 UNK         0.0600 
    179 H179        3.9635  -15.1327  -47.1744 H         1 UNK         0.3000 
    180 H180        4.9023  -14.0243  -43.9266 H         1 UNK         0.0600 
    181 H181        6.6199  -15.4069  -46.0546 H         1 UNK         0.0600 
    182 H182        6.5226  -15.8796  -44.3623 H         1 UNK         0.0600 
    183 H183        7.1993  -14.3176  -44.7936 H         1 UNK         0.0600 
    184 H184        5.7483  -13.0851  -46.4294 H         1 UNK         0.3000 
    185 H185        3.7017  -10.4037  -46.4666 H         1 UNK         0.0600 
    186 H186        5.3934  -10.2321  -48.2659 H         1 UNK         0.0600 
    187 H187        6.1139  -10.9125  -46.8209 H         1 UNK         0.0600 
    188 H188        5.7191  -11.9572  -48.1859 H         1 UNK         0.0600 
    189 H189        2.3208  -10.6979  -48.1719 H         1 UNK         0.3000 
    190 H190       -2.1336  -21.7958  -45.6976 H         1 UNK         0.3000 
    191 H191       -3.2461  -23.0526  -47.9401 H         1 UNK         0.0600 
    192 H192       -5.3225  -23.0582  -46.5731 H         1 UNK         0.0600 
    193 H193       -4.4522  -21.5470  -46.3638 H         1 UNK         0.0600 
    194 H194       -4.3839  -22.7784  -45.1087 H         1 UNK         0.0600 
    195 H195       -1.8116  -24.5894  -45.1451 H         1 UNK         0.3000 
    196 H196       -3.0492  -27.1726  -45.4601 H         1 UNK         0.0600 
    197 H197       -1.2552  -27.9044  -43.9092 H         1 UNK         0.0600 
    198 H198       -1.9960  -26.4203  -43.3303 H         1 UNK         0.0600 
    199 H199       -0.4161  -26.3731  -44.1116 H         1 UNK         0.0600 
    200 H200       -0.4936  -25.5299  -47.1939 H         1 UNK         0.3000 
    201 H201        0.4254  -28.0750  -48.4859 H         1 UNK         0.0600 
    202 H202        2.2135  -26.8478  -47.2880 H         1 UNK         0.0600 
    203 H203        1.8342  -25.3725  -48.1732 H         1 UNK         0.0600 
    204 H204        2.4767  -26.7738  -49.0240 H         1 UNK         0.0600 
    205 H205       -0.5814  -24.6775  -49.0712 H         1 UNK         0.3000 
    206 H206       -0.3047  -24.7589  -51.9013 H         1 UNK         0.0600 
    207 H207       -0.1987  -22.6718  -50.5881 H         1 UNK         0.0600 
    208 H208       -1.5278  -22.5540  -51.7325 H         1 UNK         0.0600 
    209 H209       -1.8613  -22.8820  -50.0423 H         1 UNK         0.0600 
    210 H210       -1.8480  -24.6818  -53.5213 H         1 UNK         0.3000 
    211 H211       -4.5221  -25.9017  -53.0600 H         1 UNK         0.0600 
    212 H212       -3.0007  -25.2114  -55.6451 H         1 UNK         0.0600 
    213 H213       -4.5516  -26.0375  -55.5498 H         1 UNK         0.0600 
    214 H214       -3.1076  -26.8199  -54.9321 H         1 UNK         0.0600 
    215 H215       -6.3231  -24.7498  -54.2255 H         1 UNK         0.3000 
    216 H216       -6.6526  -22.1021  -53.3686 H         1 UNK         0.0600 
    217 H217       -8.7627  -22.2115  -54.7077 H         1 UNK         0.0600 
    218 H218       -8.5238  -23.6737  -53.7661 H         1 UNK         0.0600 
    219 H219       -8.1938  -23.6763  -55.4998 H         1 UNK         0.0600 
    220 H220       -5.2180  -23.2305  -56.3371 H         1 UNK         0.3000 
    221 H221       -5.3743  -20.8292  -57.8978 H         1 UNK         0.0600 
    222 H222       -3.3698  -23.1521  -57.9504 H         1 UNK         0.0600 
    223 H223       -4.8660  -23.0556  -58.8805 H         1 UNK         0.0600 
    224 H224       -3.5539  -21.9357  -59.2084 H         1 UNK         0.0600 
    225 H225       -3.4609  -21.6956  -55.1112 H         1 UNK         0.3000 
    226 H226       -1.7332  -19.2752  -55.3905 H         1 UNK         0.0600 
    227 H227       -0.3898  -21.3659  -55.4252 H         1 UNK         0.0600 
    228 H228       -0.1373  -20.5046  -53.9155 H         1 UNK         0.0600 
    229 H229       -1.1782  -21.9250  -53.9540 H         1 UNK         0.0600 
    230 H230       -4.4111  -19.1915  -54.6559 H         1 UNK         0.3000 
    231 H231       -5.7947  -18.1858  -53.3121 H         1 UNK         0.0600 
    232 H232       -5.0561  -16.8124  -51.3914 H         1 UNK         0.0600 
    233 H233       -4.0247  -16.5316  -52.7867 H         1 UNK         0.0600 
    234 H234       -3.4565  -17.5265  -51.4500 H         1 UNK         0.0600 
    235 H235       -3.5712  -19.8529  -51.0809 H         1 UNK         0.3000 
    236 H236       -3.8468  -21.1164  -49.2478 H         1 UNK         0.0600 
    237 H237       -4.3023  -22.8040  -50.9766 H         1 UNK         0.0600 
    238 H238       -5.2487  -23.1582  -49.5444 H         1 UNK         0.0600 
    239 H239       -6.0254  -22.4350  -50.9480 H         1 UNK         0.0600 
    240 H240       -4.7083  -18.8664  -48.5244 H         1 UNK         0.3000 
    241 H241       -7.2323  -18.1884  -47.8711 H         1 UNK         0.0600 
    242 H242       -8.9027  -19.0845  -46.6430 H         1 UNK         0.3800 
    243 H243       -8.6463  -20.0118  -45.1926 H         1 UNK         0.3800 
    244 H244       -6.2015  -16.8115  -46.0033 H         1 UNK         0.0800 
    245 H245       -4.7211  -17.7128  -46.2137 H         1 UNK         0.0800 
    246 H246       -3.1547  -16.1603  -46.5585 H         1 UNK         0.0800 
    247 H247       -3.2229  -14.7519  -47.5740 H         1 UNK         0.0800 
@<TRIPOS>BOND
     1    1    2 1    
     2    1  127 1    
     3    1  128 1    
     4    1  129 1    
     5    2    3 2    
     6    2    4 am   BACKBONE|DICT|INTERRES
     7    4    5 1    
     8    4  130 1    
     9    5    6 1    
    10    5   65 1    
    11    5  131 1    
    12    6    7 1    
    13    6  132 1    
    14    6  133 1    
    15    7    8 1    
    16    8    9 1    
    17    8  134 1    
    18    8  135 1    
    19    9   10 ar   
    20    9   14 ar   
    21   10   11 ar   
    22   10  136 1    
    23   11   12 ar   
    24   11  126 1    
    25   12   13 ar   
    26   12  137 1    
    27   13   14 ar   
    28   13   15 1    
    29   14  138 1    
    30   15   16 1    
    31   15  139 1    
    32   15  140 1    
    33   16   17 1    
    34   17   18 1    
    35   17  141 1    
    36   17  142 1    
    37   18   19 1    
    38   18   67 1    
    39   18  143 1    
    40   19   20 am   BACKBONE|DICT|INTERRES
    41   19  144 1    
    42   20   21 2    
    43   20   22 1    
    44   22   23 1    
    45   22   24 1    
    46   22  145 1    
    47   23  146 1    
    48   23  147 1    
    49   23  148 1    
    50   24   25 am   BACKBONE|DICT|INTERRES
    51   24  149 1    
    52   25   26 2    
    53   25   27 1    
    54   27   28 1    
    55   27   29 1    
    56   27  150 1    
    57   28  151 1    
    58   28  152 1    
    59   28  153 1    
    60   29   30 am   BACKBONE|DICT|INTERRES
    61   29  154 1    
    62   30   31 2    
    63   30   32 1    
    64   32   33 1    
    65   32   34 1    
    66   32  155 1    
    67   33  156 1    
    68   33  157 1    
    69   33  158 1    
    70   34   35 am   BACKBONE|DICT|INTERRES
    71   34  159 1    
    72   35   36 2    
    73   35   37 1    
    74   37   38 1    
    75   37   39 1    
    76   37  160 1    
    77   38  161 1    
    78   38  162 1    
    79   38  163 1    
    80   39   40 am   BACKBONE|DICT|INTERRES
    81   39  164 1    
    82   40   41 2    
    83   40   42 1    
    84   42   43 1    
    85   42   44 1    
    86   42  165 1    
    87   43  166 1    
    88   43  167 1    
    89   43  168 1    
    90   44   45 am   BACKBONE|DICT|INTERRES
    91   44  169 1    
    92   45   46 2    
    93   45   47 1    
    94   47   48 1    
    95   47   49 1    
    96   47  170 1    
    97   48  171 1    
    98   48  172 1    
    99   48  173 1    
   100   49   50 am   BACKBONE|DICT|INTERRES
   101   49  174 1    
   102   50   51 2    
   103   50   52 1    
   104   52   53 1    
   105   52   54 1    
   106   52  175 1    
   107   53  176 1    
   108   53  177 1    
   109   53  178 1    
   110   54   55 am   BACKBONE|DICT|INTERRES
   111   54  179 1    
   112   55   56 2    
   113   55   57 1    
   114   57   58 1    
   115   57   59 1    
   116   57  180 1    
   117   58  181 1    
   118   58  182 1    
   119   58  183 1    
   120   59   60 am   BACKBONE|DICT|INTERRES
   121   59  184 1    
   122   60   61 2    
   123   60   62 1    
   124   62   63 1    
   125   62   64 1    
   126   62  185 1    
   127   63  186 1    
   128   63  187 1    
   129   63  188 1    
   130   64   65 am   BACKBONE|DICT|INTERRES
   131   64  189 1    
   132   65   66 2    
   133   67   68 2    
   134   67   69 am   BACKBONE|DICT|INTERRES
   135   69   70 1    
   136   69  190 1    
   137   70   71 1    
   138   70   72 1    
   139   70  191 1    
   140   71  192 1    
   141   71  193 1    
   142   71  194 1    
   143   72   73 2    
   144   72   74 am   BACKBONE|DICT|INTERRES
   145   74   75 1    
   146   74  195 1    
   147   75   76 1    
   148   75   77 1    
   149   75  196 1    
   150   76  197 1    
   151   76  198 1    
   152   76  199 1    
   153   77   78 2    
   154   77   79 am   BACKBONE|DICT|INTERRES
   155   79   80 1    
   156   79  200 1    
   157   80   81 1    
   158   80   82 1    
   159   80  201 1    
   160   81  202 1    
   161   81  203 1    
   162   81  204 1    
   163   82   83 2    
   164   82   84 am   BACKBONE|DICT|INTERRES
   165   84   85 1    
   166   84  205 1    
   167   85   86 1    
   168   85   87 1    
   169   85  206 1    
   170   86  207 1    
   171   86  208 1    
   172   86  209 1    
   173   87   88 2    
   174   87   89 am   BACKBONE|DICT|INTERRES
   175   89   90 1    
   176   89  210 1    
   177   90   91 1    
   178   90   92 1    
   179   90  211 1    
   180   91  212 1    
   181   91  213 1    
   182   91  214 1    
   183   92   93 2    
   184   92   94 am   BACKBONE|DICT|INTERRES
   185   94   95 1    
   186   94  215 1    
   187   95   96 1    
   188   95   97 1    
   189   95  216 1    
   190   96  217 1    
   191   96  218 1    
   192   96  219 1    
   193   97   98 2    
   194   97   99 am   BACKBONE|DICT|INTERRES
   195   99  100 1    
   196   99  220 1    
   197  100  101 1    
   198  100  102 1    
   199  100  221 1    
   200  101  222 1    
   201  101  223 1    
   202  101  224 1    
   203  102  103 2    
   204  102  104 am   BACKBONE|DICT|INTERRES
   205  104  105 1    
   206  104  225 1    
   207  105  106 1    
   208  105  107 1    
   209  105  226 1    
   210  106  227 1    
   211  106  228 1    
   212  106  229 1    
   213  107  108 2    
   214  107  109 am   BACKBONE|DICT|INTERRES
   215  109  110 1    
   216  109  230 1    
   217  110  111 1    
   218  110  112 1    
   219  110  231 1    
   220  111  232 1    
   221  111  233 1    
   222  111  234 1    
   223  112  113 2    
   224  112  114 am   BACKBONE|DICT|INTERRES
   225  114  115 1    
   226  114  235 1    
   227  115  116 1    
   228  115  117 1    
   229  115  236 1    
   230  116  237 1    
   231  116  238 1    
   232  116  239 1    
   233  117  118 2    
   234  117  119 am   BACKBONE|DICT|INTERRES
   235  119  120 1    
   236  119  240 1    
   237  120  121 1    
   238  120  124 1    
   239  120  241 1    
   240  121  122 am   BACKBONE|DICT|INTERRES
   241  121  123 2    
   242  122  242 1    
   243  122  243 1    
   244  124  125 1    
   245  124  244 1    
   246  124  245 1    
   247  125  126 1    
   248  126  246 1    
   249  126  247 1    
@<TRIPOS>SUBSTRUCTURE
     1 UNK         1 GROUP             0       ****    0 ROOT    
