@<TRIPOS>MOLECULE
3R540
247   249    1
SMALL
USER_CHARGES


@<TRIPOS>ATOM
      1 CA          4.0724  -18.2481  -47.6089 C.3       0 UNK        -0.1800 
      2 C           3.4200  -16.8791  -47.7360 C.2       0 UNK         0.5000 
      3 O           3.7716  -16.1105  -48.6291 O.2       0 UNK        -0.5000 
      4 N           2.4876  -16.5636  -46.8286 N.am      1 UNK        -0.5000 
      5 CA          1.6563  -15.3490  -46.7619 C.3       1 UNK         0.1400 
      6 C6          0.7356  -15.1742  -48.0069 C.3       23 UNK        -0.0398 
      7 S7         -1.0289  -15.1311  -47.5458 S.3       23 UNK        -0.2404 
      8 C8         -1.8458  -15.0177  -49.1752 C.3       23 UNK        -0.0205 
      9 C9         -1.5326  -16.1647  -50.1353 C.ar      23 UNK        -0.0193 
     10 C10        -1.4618  -15.9021  -51.5075 C.ar      23 UNK        -0.1150 
     11 C11        -1.1782  -16.9249  -52.4161 C.ar      23 UNK        -0.0193 
     12 C12        -0.9345  -18.2156  -51.9429 C.ar      23 UNK        -0.1150 
     13 C13        -1.0200  -18.5002  -50.5780 C.ar      23 UNK        -0.0193 
     14 C14        -1.3383  -17.4760  -49.6819 C.ar      23 UNK        -0.1150 
     15 C15        -0.7972  -19.9202  -50.0839 C.3       23 UNK        -0.0205 
     16 S16         0.8582  -20.1444  -49.3666 S.3       23 UNK        -0.2404 
     17 C17         0.5083  -20.0010  -47.5833 C.3       23 UNK        -0.0398 
     18 CA          0.3317  -21.3804  -46.9029 C.3       11 UNK         0.1400 
     19 N           0.6169  -21.3267  -45.4663 N.am      11 UNK        -0.5000 
     20 C           0.7315  -22.4054  -44.6771 C.2       10 UNK         0.5000 
     21 O           0.6272  -23.5617  -45.0835 O.2       10 UNK        -0.5000 
     22 CA          0.9459  -22.1526  -43.1742 C.3       10 UNK         0.1400 
     23 CB          2.3962  -21.7345  -42.8938 C.3       10 UNK        -0.1800 
     24 N           0.0229  -21.1501  -42.6403 N.am      10 UNK        -0.5000 
     25 C          -1.3119  -21.2882  -42.6234 C.2       9 UNK         0.5000 
     26 O          -1.9011  -22.2988  -43.0070 O.2       9 UNK        -0.5000 
     27 CA         -2.1287  -20.0720  -42.1531 C.3       9 UNK         0.1400 
     28 CB         -2.1843  -20.0090  -40.6196 C.3       9 UNK        -0.1800 
     29 N          -1.6019  -18.8114  -42.6736 N.am      9 UNK        -0.5000 
     30 C          -1.5201  -18.4906  -43.9726 C.2       8 UNK         0.5000 
     31 O          -1.9262  -19.2061  -44.8866 O.2       8 UNK        -0.5000 
     32 CA         -0.7841  -17.1870  -44.3093 C.3       8 UNK         0.1400 
     33 CB         -1.6582  -15.9537  -44.0372 C.3       8 UNK        -0.1800 
     34 N           0.4723  -17.0917  -43.5659 N.am      8 UNK        -0.5000 
     35 C           1.5555  -17.8322  -43.8355 C.2       7 UNK         0.5000 
     36 O           1.6328  -18.5899  -44.8011 O.2       7 UNK        -0.5000 
     37 CA          2.7663  -17.6920  -42.8997 C.3       7 UNK         0.1400 
     38 CB          3.8178  -16.7790  -43.5410 C.3       7 UNK        -0.1800 
     39 N           2.4041  -17.1881  -41.5742 N.am      7 UNK        -0.5000 
     40 C           1.7693  -17.9266  -40.6543 C.2       6 UNK         0.5000 
     41 O           1.4219  -19.0942  -40.8399 O.2       6 UNK        -0.5000 
     42 CA          1.4132  -17.2222  -39.3330 C.3       6 UNK         0.1400 
     43 CB          2.6736  -16.9457  -38.4988 C.3       6 UNK        -0.1800 
     44 N           0.6644  -15.9746  -39.5171 N.am      6 UNK        -0.5000 
     45 C          -0.5176  -15.8710  -40.1408 C.2       5 UNK         0.5000 
     46 O          -1.0667  -16.8106  -40.7130 O.2       5 UNK        -0.5000 
     47 CA         -1.2108  -14.4950  -40.1521 C.3       5 UNK         0.1400 
     48 CB         -2.4203  -14.5120  -39.2057 C.3       5 UNK        -0.1800 
     49 N          -0.3340  -13.3852  -39.7671 N.am      5 UNK        -0.5000 
     50 C           0.5552  -12.7339  -40.5306 C.2       4 UNK         0.5000 
     51 O           1.2079  -11.7933  -40.0761 O.2       4 UNK        -0.5000 
     52 CA          0.7506  -13.1343  -42.0145 C.3       4 UNK         0.1400 
     53 CB         -0.2103  -12.3483  -42.9205 C.3       4 UNK        -0.1800 
     54 N           2.1203  -12.8887  -42.4647 N.am      4 UNK        -0.5000 
     55 C           3.2031  -13.5122  -41.9857 C.2       3 UNK         0.5000 
     56 O           3.1473  -14.4620  -41.2012 O.2       3 UNK        -0.5000 
     57 CA          4.5538  -13.0246  -42.5329 C.3       3 UNK         0.1400 
     58 CB          5.7586  -13.7116  -41.8648 C.3       3 UNK        -0.1800 
     59 N           4.5942  -13.2698  -43.9731 N.am      3 UNK        -0.5000 
     60 C           4.6330  -12.3266  -44.9209 C.2       2 UNK         0.5000 
     61 O           4.6903  -11.1187  -44.6881 O.2       2 UNK        -0.5000 
     62 CA          4.5794  -12.8175  -46.3806 C.3       2 UNK         0.1400 
     63 CB          5.9935  -13.1254  -46.8958 C.3       2 UNK        -0.1800 
     64 N           3.7309  -13.9960  -46.5860 N.am      2 UNK        -0.5000 
     65 C           2.4035  -14.0394  -46.4074 C.2       1 UNK         0.5000 
     66 O           1.7570  -13.0903  -45.9646 O.2       1 UNK        -0.5000 
     67 C          -1.0571  -21.9887  -47.1943 C.2       11 UNK         0.5000 
     68 O          -1.1816  -22.8142  -48.1006 O.2       11 UNK        -0.5000 
     69 N          -2.0704  -21.5996  -46.4077 N.am      12 UNK        -0.5000 
     70 CA         -3.4342  -22.1223  -46.4918 C.3       12 UNK         0.1400 
     71 CB         -4.3564  -21.3263  -45.5576 C.3       12 UNK        -0.1800 
     72 C          -3.5196  -23.6301  -46.1918 C.2       12 UNK         0.5000 
     73 O          -4.2683  -24.3369  -46.8649 O.2       12 UNK        -0.5000 
     74 N          -2.7314  -24.1024  -45.2181 N.am      13 UNK        -0.5000 
     75 CA         -2.5984  -25.5207  -44.8932 C.3       13 UNK         0.1400 
     76 CB         -1.9184  -25.6695  -43.5233 C.3       13 UNK        -0.1800 
     77 C          -1.8301  -26.3043  -45.9745 C.2       13 UNK         0.5000 
     78 O          -2.2439  -27.4083  -46.3307 O.2       13 UNK        -0.5000 
     79 N          -0.7209  -25.7316  -46.4609 N.am      14 UNK        -0.5000 
     80 CA          0.1942  -26.3755  -47.4012 C.3       14 UNK         0.1400 
     81 CB          1.5548  -25.6615  -47.3591 C.3       14 UNK        -0.1800 
     82 C          -0.3344  -26.4327  -48.8445 C.2       14 UNK         0.5000 
     83 O          -0.2820  -27.4983  -49.4607 O.2       14 UNK        -0.5000 
     84 N          -0.7846  -25.2866  -49.3704 N.am      15 UNK        -0.5000 
     85 CA         -1.0703  -25.0903  -50.7940 C.3       15 UNK         0.1400 
     86 CB         -0.0926  -24.0348  -51.3382 C.3       15 UNK        -0.1800 
     87 C          -2.5161  -24.6555  -51.0778 C.2       15 UNK         0.5000 
     88 O          -2.9324  -24.7119  -52.2367 O.2       15 UNK        -0.5000 
     89 N          -3.2438  -24.1814  -50.0532 N.am      16 UNK        -0.5000 
     90 CA         -4.6279  -23.6784  -50.1159 C.3       16 UNK         0.1400 
     91 CB         -5.6075  -24.8383  -50.3890 C.3       16 UNK        -0.1800 
     92 C          -4.8227  -22.5046  -51.1018 C.2       16 UNK         0.5000 
     93 O          -5.9210  -22.3153  -51.6289 O.2       16 UNK        -0.5000 
     94 N          -3.7326  -21.7718  -51.3777 N.am      17 UNK        -0.5000 
     95 CA         -3.6074  -20.7302  -52.4026 C.3       17 UNK         0.1400 
     96 CB         -4.3546  -19.4544  -51.9660 C.3       17 UNK        -0.1800 
     97 C          -3.9929  -21.2208  -53.8144 C.2       17 UNK         0.5000 
     98 O          -4.6028  -20.4731  -54.5787 O.2       17 UNK        -0.5000 
     99 N          -3.6653  -22.4867  -54.1213 N.am      18 UNK        -0.5000 
    100 CA        -4.0243  -23.2123  -55.3462 C.3       18 UNK         0.1400 
    101 CB        -3.3074  -22.6075  -56.5721 C.3       18 UNK        -0.1800 
    102 C         -5.5541  -23.3226  -55.5307 C.2       18 UNK         0.5000 
    103 O         -6.0573  -23.1551  -56.6419 O.2       18 UNK        -0.5000 
    104 N         -6.2555  -23.5735  -54.4145 N.am      19 UNK        -0.5000 
    105 CA        -7.7122  -23.5469  -54.2501 C.3       19 UNK         0.1400 
    106 CB        -8.4014  -24.6255  -55.1128 C.3       19 UNK        -0.1800 
    107 C         -8.2801  -22.1270  -54.4580 C.2       19 UNK         0.5000 
    108 O         -9.2430  -21.9446  -55.2054 O.2       19 UNK        -0.5000 
    109 N         -7.6551  -21.1538  -53.7768 N.am      20 UNK        -0.5000 
    110 CA        -7.9648  -19.7192  -53.7752 C.3       20 UNK         0.1400 
    111 CB        -9.2941  -19.4612  -53.0359 C.3       20 UNK        -0.1800 
    112 C         -7.9174  -19.0824  -55.1811 C.2       20 UNK         0.5000 
    113 O         -8.8722  -18.4199  -55.5940 O.2       20 UNK        -0.5000 
    114 N         -6.8065  -19.3058  -55.8927 N.am      21 UNK        -0.5000 
    115 CA        -6.5839  -18.8275  -57.2588 C.3       21 UNK         0.1400 
    116 CB        -6.8862  -19.9666  -58.2459 C.3       21 UNK        -0.1800 
    117 C         -5.1647  -18.2787  -57.4883 C.2       21 UNK         0.5000 
    118 O         -4.9958  -17.4269  -58.3618 O.2       21 UNK        -0.5000 
    119 N         -4.1730  -18.7689  -56.7307 N.am      22 UNK        -0.5000 
    120 CA        -2.7407  -18.4219  -56.8261 C.3       22 UNK         0.1400 
    121 C         -2.0519  -18.8053  -58.1745 C.2       22 UNK         0.5000 
    122 N         -2.6326  -19.6735  -58.9939 N.am      22 UNK        -0.7600 
    123 O         -0.9541  -18.3416  -58.4716 O.2       22 UNK        -0.5000 
    124 C124       -2.4426  -16.9596  -56.3858 C.3       23 UNK        -0.0398 
    125 S125       -2.8219  -16.6995  -54.6197 S.3       23 UNK        -0.2404 
    126 C126       -1.1456  -16.6455  -53.9095 C.3       23 UNK        -0.0205 
    127 H127        3.7580  -18.7657  -46.7022 H         1 UNK         0.0600 
    128 H128        5.1573  -18.1468  -47.5813 H         1 UNK         0.0600 
    129 H129        3.8076  -18.8688  -48.4649 H         1 UNK         0.0600 
    130 H130        2.2530  -17.2677  -46.1363 H         1 UNK         0.3000 
    131 H131        1.0293  -15.5235  -45.8887 H         1 UNK         0.0600 
    132 H132        0.9722  -14.2738  -48.5772 H         1 UNK         0.0800 
    133 H133        0.8745  -15.9981  -48.7073 H         1 UNK         0.0800 
    134 H134       -2.9248  -14.9836  -49.0206 H         1 UNK         0.0800 
    135 H135       -1.5686  -14.0636  -49.6264 H         1 UNK         0.0800 
    136 H136       -1.6402  -14.9010  -51.8745 H         1 UNK         0.1150 
    137 H137       -0.6972  -19.0036  -52.6433 H         1 UNK         0.1150 
    138 H138       -1.4204  -17.6986  -48.6285 H         1 UNK         0.1150 
    139 H139       -1.5774  -20.1871  -49.3708 H         1 UNK         0.0800 
    140 H140       -0.8891  -20.6262  -50.9082 H         1 UNK         0.0800 
    141 H141       -0.3401  -19.3418  -47.3946 H         1 UNK         0.0800 
    142 H142        1.3739  -19.4945  -47.1603 H         1 UNK         0.0800 
    143 H143        1.0719  -22.0608  -47.3301 H         1 UNK         0.0600 
    144 H144        0.7413  -20.4042  -45.0641 H         1 UNK         0.3000 
    145 H145        0.7555  -23.0897  -42.6469 H         1 UNK         0.0600 
    146 H146        2.5577  -21.5464  -41.8322 H         1 UNK         0.0600 
    147 H147        3.0902  -22.5202  -43.1948 H         1 UNK         0.0600 
    148 H148        2.6689  -20.8338  -43.4421 H         1 UNK         0.0600 
    149 H149        0.4310  -20.3089  -42.2481 H         1 UNK         0.3000 
    150 H150       -3.1475  -20.1879  -42.5277 H         1 UNK         0.0600 
    151 H151       -2.8239  -19.1929  -40.2829 H         1 UNK         0.0600 
    152 H152       -2.5882  -20.9331  -40.2043 H         1 UNK         0.0600 
    153 H153       -1.1952  -19.8564  -40.1863 H         1 UNK         0.0600 
    154 H154       -1.2689  -18.1448  -41.9808 H         1 UNK         0.3000 
    155 H155       -0.5561  -17.2087  -45.3766 H         1 UNK         0.0600 
    156 H156       -1.9893  -15.9030  -43.0012 H         1 UNK         0.0600 
    157 H157       -2.5523  -15.9728  -44.6615 H         1 UNK         0.0600 
    158 H158       -1.1238  -15.0324  -44.2682 H         1 UNK         0.0600 
    159 H159        0.4720  -16.5330  -42.7268 H         1 UNK         0.3000 
    160 H160        3.2142  -18.6794  -42.7778 H         1 UNK         0.0600 
    161 H161        3.4013  -15.8026  -43.7825 H         1 UNK         0.0600 
    162 H162        4.1974  -17.2119  -44.4672 H         1 UNK         0.0600 
    163 H163        4.6714  -16.6396  -42.8792 H         1 UNK         0.0600 
    164 H164        2.6624  -16.2278  -41.3521 H         1 UNK         0.3000 
    165 H165        0.7766  -17.9035  -38.7646 H         1 UNK         0.0600 
    166 H166        2.4158  -16.5589  -37.5128 H         1 UNK         0.0600 
    167 H167        3.2508  -17.8589  -38.3475 H         1 UNK         0.0600 
    168 H168        3.3283  -16.2194  -38.9822 H         1 UNK         0.0600 
    169 H169        1.0626  -15.1450  -39.1013 H         1 UNK         0.3000 
    170 H170       -1.5911  -14.3248  -41.1597 H         1 UNK         0.0600 
    171 H171       -3.1196  -15.3046  -39.4764 H         1 UNK         0.0600 
    172 H172       -2.1207  -14.6789  -38.1702 H         1 UNK         0.0600 
    173 H173       -2.9686  -13.5706  -39.2491 H         1 UNK         0.0600 
    174 H174       -0.4333  -13.0806  -38.8097 H         1 UNK         0.3000 
    175 H175        0.5627  -14.1991  -42.1468 H         1 UNK         0.0600 
    176 H176       -0.0228  -11.2751  -42.8677 H         1 UNK         0.0600 
    177 H177       -0.1093  -12.6540  -43.9620 H         1 UNK         0.0600 
    178 H178       -1.2502  -12.5111  -42.6367 H         1 UNK         0.0600 
    179 H179        2.2485  -12.1371  -43.1270 H         1 UNK         0.3000 
    180 H180        4.6182  -11.9567  -42.3146 H         1 UNK         0.0600 
    181 H181        5.7657  -14.7870  -42.0378 H         1 UNK         0.0600 
    182 H182        5.7488  -13.5527  -40.7858 H         1 UNK         0.0600 
    183 H183        6.6977  -13.3080  -42.2435 H         1 UNK         0.0600 
    184 H184        4.5232  -14.2323  -44.2672 H         1 UNK         0.3000 
    185 H185        4.1674  -12.0054  -46.9833 H         1 UNK         0.0600 
    186 H186        6.6484  -12.2603  -46.7827 H         1 UNK         0.0600 
    187 H187        6.4481  -13.9552  -46.3530 H         1 UNK         0.0600 
    188 H188        5.9796  -13.3848  -47.9547 H         1 UNK         0.0600 
    189 H189        4.1619  -14.7964  -47.0315 H         1 UNK         0.3000 
    190 H190       -1.9084  -20.8715  -45.7155 H         1 UNK         0.3000 
    191 H191       -3.7786  -21.9647  -47.5149 H         1 UNK         0.0600 
    192 H192       -4.3606  -20.2673  -45.8162 H         1 UNK         0.0600 
    193 H193       -5.3850  -21.6822  -45.6275 H         1 UNK         0.0600 
    194 H194       -4.0479  -21.4155  -44.5161 H         1 UNK         0.0600 
    195 H195       -2.1866  -23.4498  -44.6637 H         1 UNK         0.3000 
    196 H196       -3.5998  -25.9500  -44.8184 H         1 UNK         0.0600 
    197 H197       -1.8191  -26.7201  -43.2478 H         1 UNK         0.0600 
    198 H198       -2.4998  -25.1809  -42.7411 H         1 UNK         0.0600 
    199 H199       -0.9198  -25.2315  -43.5176 H         1 UNK         0.0600 
    200 H200       -0.4193  -24.8415  -46.0740 H         1 UNK         0.3000 
    201 H201        0.3529  -27.4035  -47.0682 H         1 UNK         0.0600 
    202 H202        1.9925  -25.7080  -46.3617 H         1 UNK         0.0600 
    203 H203        1.4677  -24.6102  -47.6362 H         1 UNK         0.0600 
    204 H204        2.2632  -26.1256  -48.0464 H         1 UNK         0.0600 
    205 H205       -0.8138  -24.4511  -48.7888 H         1 UNK         0.3000 
    206 H206       -0.9121  -26.0146  -51.3530 H         1 UNK         0.0600 
    207 H207        0.9403  -24.3665  -51.2323 H         1 UNK         0.0600 
    208 H208       -0.2637  -23.8444  -52.3987 H         1 UNK         0.0600 
    209 H209       -0.1916  -23.0849  -50.8114 H         1 UNK         0.0600 
    210 H210       -2.8067  -24.1480  -49.1415 H         1 UNK         0.3000 
    211 H211       -4.8666  -23.2734  -49.1346 H         1 UNK         0.0600 
    212 H212       -5.4748  -25.2569  -51.3871 H         1 UNK         0.0600 
    213 H213       -6.6432  -24.5065  -50.3083 H         1 UNK         0.0600 
    214 H214       -5.4710  -25.6430  -49.6664 H         1 UNK         0.0600 
    215 H215       -2.8816  -22.0268  -50.8989 H         1 UNK         0.3000 
    216 H216       -2.5505  -20.4852  -52.4767 H         1 UNK         0.0600 
    217 H217       -4.2557  -18.6604  -52.7067 H         1 UNK         0.0600 
    218 H218       -3.9514  -19.0687  -51.0299 H         1 UNK         0.0600 
    219 H219       -5.4166  -19.6390  -51.8142 H         1 UNK         0.0600 
    220 H220       -3.2184  -23.0550  -53.4088 H         1 UNK         0.3000 
    221 H221       -3.6568  -24.2314  -55.2173 H         1 UNK         0.0600 
    222 H222       -3.6864  -21.6160  -56.8168 H         1 UNK         0.0600 
    223 H223       -2.2342  -22.5239  -56.4018 H         1 UNK         0.0600 
    224 H224       -3.4481  -23.2343  -57.4533 H         1 UNK         0.0600 
    225 H225       -5.7358  -23.6447  -53.5503 H         1 UNK         0.3000 
    226 H226       -7.9026  -23.7988  -53.2057 H         1 UNK         0.0600 
    227 H227       -7.9699  -25.6099  -54.9318 H         1 UNK         0.0600 
    228 H228       -9.4641  -24.6886  -54.8766 H         1 UNK         0.0600 
    229 H229       -8.3192  -24.4133  -56.1789 H         1 UNK         0.0600 
    230 H230       -6.8916  -21.4345  -53.1693 H         1 UNK         0.3000 
    231 H231       -7.1767  -19.2314  -53.2031 H         1 UNK         0.0600 
    232 H232      -10.1427  -19.8998  -53.5619 H         1 UNK         0.0600 
    233 H233       -9.4861  -18.3921  -52.9381 H         1 UNK         0.0600 
    234 H234       -9.2714  -19.8790  -52.0294 H         1 UNK         0.0600 
    235 H235       -6.0577  -19.8415  -55.4595 H         1 UNK         0.3000 
    236 H236       -7.2644  -18.0015  -57.4754 H         1 UNK         0.0600 
    237 H237       -7.9143  -20.3144  -58.1430 H         1 UNK         0.0600 
    238 H238       -6.7545  -19.6384  -59.2777 H         1 UNK         0.0600 
    239 H239       -6.2280  -20.8207  -58.0841 H         1 UNK         0.0600 
    240 H240       -4.3919  -19.4454  -56.0038 H         1 UNK         0.3000 
    241 H241       -2.2500  -19.0743  -56.1028 H         1 UNK         0.0600 
    242 H242       -3.5308  -20.0686  -58.7701 H         1 UNK         0.3800 
    243 H243       -2.1739  -19.9235  -59.8558 H         1 UNK         0.3800 
    244 H244       -3.0218  -16.2512  -56.9787 H         1 UNK         0.0800 
    245 H245       -1.3971  -16.6983  -56.5552 H         1 UNK         0.0800 
    246 H246       -0.5099  -17.3794  -54.4076 H         1 UNK         0.0800 
    247 H247       -0.6999  -15.6683  -54.1012 H         1 UNK         0.0800 
@<TRIPOS>BOND
     1    1    2 1    
     2    1  127 1    
     3    1  128 1    
     4    1  129 1    
     5    2    3 2    
     6    2    4 am   BACKBONE|DICT|INTERRES
     7    4    5 1    
     8    4  130 1    
     9    5    6 1    
    10    5   65 1    
    11    5  131 1    
    12    6    7 1    
    13    6  132 1    
    14    6  133 1    
    15    7    8 1    
    16    8    9 1    
    17    8  134 1    
    18    8  135 1    
    19    9   10 ar   
    20    9   14 ar   
    21   10   11 ar   
    22   10  136 1    
    23   11   12 ar   
    24   11  126 1    
    25   12   13 ar   
    26   12  137 1    
    27   13   14 ar   
    28   13   15 1    
    29   14  138 1    
    30   15   16 1    
    31   15  139 1    
    32   15  140 1    
    33   16   17 1    
    34   17   18 1    
    35   17  141 1    
    36   17  142 1    
    37   18   19 1    
    38   18   67 1    
    39   18  143 1    
    40   19   20 am   BACKBONE|DICT|INTERRES
    41   19  144 1    
    42   20   21 2    
    43   20   22 1    
    44   22   23 1    
    45   22   24 1    
    46   22  145 1    
    47   23  146 1    
    48   23  147 1    
    49   23  148 1    
    50   24   25 am   BACKBONE|DICT|INTERRES
    51   24  149 1    
    52   25   26 2    
    53   25   27 1    
    54   27   28 1    
    55   27   29 1    
    56   27  150 1    
    57   28  151 1    
    58   28  152 1    
    59   28  153 1    
    60   29   30 am   BACKBONE|DICT|INTERRES
    61   29  154 1    
    62   30   31 2    
    63   30   32 1    
    64   32   33 1    
    65   32   34 1    
    66   32  155 1    
    67   33  156 1    
    68   33  157 1    
    69   33  158 1    
    70   34   35 am   BACKBONE|DICT|INTERRES
    71   34  159 1    
    72   35   36 2    
    73   35   37 1    
    74   37   38 1    
    75   37   39 1    
    76   37  160 1    
    77   38  161 1    
    78   38  162 1    
    79   38  163 1    
    80   39   40 am   BACKBONE|DICT|INTERRES
    81   39  164 1    
    82   40   41 2    
    83   40   42 1    
    84   42   43 1    
    85   42   44 1    
    86   42  165 1    
    87   43  166 1    
    88   43  167 1    
    89   43  168 1    
    90   44   45 am   BACKBONE|DICT|INTERRES
    91   44  169 1    
    92   45   46 2    
    93   45   47 1    
    94   47   48 1    
    95   47   49 1    
    96   47  170 1    
    97   48  171 1    
    98   48  172 1    
    99   48  173 1    
   100   49   50 am   BACKBONE|DICT|INTERRES
   101   49  174 1    
   102   50   51 2    
   103   50   52 1    
   104   52   53 1    
   105   52   54 1    
   106   52  175 1    
   107   53  176 1    
   108   53  177 1    
   109   53  178 1    
   110   54   55 am   BACKBONE|DICT|INTERRES
   111   54  179 1    
   112   55   56 2    
   113   55   57 1    
   114   57   58 1    
   115   57   59 1    
   116   57  180 1    
   117   58  181 1    
   118   58  182 1    
   119   58  183 1    
   120   59   60 am   BACKBONE|DICT|INTERRES
   121   59  184 1    
   122   60   61 2    
   123   60   62 1    
   124   62   63 1    
   125   62   64 1    
   126   62  185 1    
   127   63  186 1    
   128   63  187 1    
   129   63  188 1    
   130   64   65 am   BACKBONE|DICT|INTERRES
   131   64  189 1    
   132   65   66 2    
   133   67   68 2    
   134   67   69 am   BACKBONE|DICT|INTERRES
   135   69   70 1    
   136   69  190 1    
   137   70   71 1    
   138   70   72 1    
   139   70  191 1    
   140   71  192 1    
   141   71  193 1    
   142   71  194 1    
   143   72   73 2    
   144   72   74 am   BACKBONE|DICT|INTERRES
   145   74   75 1    
   146   74  195 1    
   147   75   76 1    
   148   75   77 1    
   149   75  196 1    
   150   76  197 1    
   151   76  198 1    
   152   76  199 1    
   153   77   78 2    
   154   77   79 am   BACKBONE|DICT|INTERRES
   155   79   80 1    
   156   79  200 1    
   157   80   81 1    
   158   80   82 1    
   159   80  201 1    
   160   81  202 1    
   161   81  203 1    
   162   81  204 1    
   163   82   83 2    
   164   82   84 am   BACKBONE|DICT|INTERRES
   165   84   85 1    
   166   84  205 1    
   167   85   86 1    
   168   85   87 1    
   169   85  206 1    
   170   86  207 1    
   171   86  208 1    
   172   86  209 1    
   173   87   88 2    
   174   87   89 am   BACKBONE|DICT|INTERRES
   175   89   90 1    
   176   89  210 1    
   177   90   91 1    
   178   90   92 1    
   179   90  211 1    
   180   91  212 1    
   181   91  213 1    
   182   91  214 1    
   183   92   93 2    
   184   92   94 am   BACKBONE|DICT|INTERRES
   185   94   95 1    
   186   94  215 1    
   187   95   96 1    
   188   95   97 1    
   189   95  216 1    
   190   96  217 1    
   191   96  218 1    
   192   96  219 1    
   193   97   98 2    
   194   97   99 am   BACKBONE|DICT|INTERRES
   195   99  100 1    
   196   99  220 1    
   197  100  101 1    
   198  100  102 1    
   199  100  221 1    
   200  101  222 1    
   201  101  223 1    
   202  101  224 1    
   203  102  103 2    
   204  102  104 am   BACKBONE|DICT|INTERRES
   205  104  105 1    
   206  104  225 1    
   207  105  106 1    
   208  105  107 1    
   209  105  226 1    
   210  106  227 1    
   211  106  228 1    
   212  106  229 1    
   213  107  108 2    
   214  107  109 am   BACKBONE|DICT|INTERRES
   215  109  110 1    
   216  109  230 1    
   217  110  111 1    
   218  110  112 1    
   219  110  231 1    
   220  111  232 1    
   221  111  233 1    
   222  111  234 1    
   223  112  113 2    
   224  112  114 am   BACKBONE|DICT|INTERRES
   225  114  115 1    
   226  114  235 1    
   227  115  116 1    
   228  115  117 1    
   229  115  236 1    
   230  116  237 1    
   231  116  238 1    
   232  116  239 1    
   233  117  118 2    
   234  117  119 am   BACKBONE|DICT|INTERRES
   235  119  120 1    
   236  119  240 1    
   237  120  121 1    
   238  120  124 1    
   239  120  241 1    
   240  121  122 am   BACKBONE|DICT|INTERRES
   241  121  123 2    
   242  122  242 1    
   243  122  243 1    
   244  124  125 1    
   245  124  244 1    
   246  124  245 1    
   247  125  126 1    
   248  126  246 1    
   249  126  247 1    
@<TRIPOS>SUBSTRUCTURE
     1 UNK         1 GROUP             0       ****    0 ROOT    
