@<TRIPOS>MOLECULE
3R540
247   249    1
SMALL
USER_CHARGES


@<TRIPOS>ATOM
      1 CA          1.2427  -17.1450  -53.3944 C.3       0 UNK        -0.1800 
      2 C           1.5190  -16.9048  -51.9168 C.2       0 UNK         0.5000 
      3 O           2.6673  -16.6788  -51.5354 O.2       0 UNK        -0.5000 
      4 N           0.4678  -16.9554  -51.0906 N.am      1 UNK        -0.5000 
      5 CA          0.5076  -16.8469  -49.6308 C.3       1 UNK         0.1400 
      6 C6          0.9057  -15.4356  -49.1231 C.3       23 UNK        -0.0398 
      7 S7          0.2030  -15.1070  -47.4677 S.3       23 UNK        -0.2404 
      8 C8         -1.1642  -13.9581  -47.8269 C.3       23 UNK        -0.0205 
      9 C9         -2.3705  -14.6398  -48.4620 C.ar      23 UNK        -0.0193 
     10 C10        -2.4757  -14.7229  -49.8533 C.ar      23 UNK        -0.1150 
     11 C11        -3.6033  -15.2900  -50.4525 C.ar      23 UNK        -0.0193 
     12 C12        -4.6467  -15.7553  -49.6450 C.ar      23 UNK        -0.1150 
     13 C13        -4.5590  -15.6797  -48.2488 C.ar      23 UNK        -0.0193 
     14 C14        -3.4105  -15.1324  -47.6645 C.ar      23 UNK        -0.1150 
     15 C15        -5.7344  -16.1263  -47.3830 C.3       23 UNK        -0.0205 
     16 S16        -6.1086  -17.9007  -47.5724 S.3       23 UNK        -0.2404 
     17 C17        -5.6643  -18.6654  -45.9689 C.3       23 UNK        -0.0398 
     18 CA         -4.2408  -18.3831  -45.4002 C.3       11 UNK         0.1400 
     19 N          -4.1151  -18.6907  -43.9739 N.am      11 UNK        -0.5000 
     20 C          -4.3531  -19.8671  -43.3745 C.2       10 UNK         0.5000 
     21 O          -4.8380  -20.8391  -43.9556 O.2       10 UNK        -0.5000 
     22 CA         -3.9924  -19.9842  -41.8768 C.3       10 UNK         0.1400 
     23 CB         -3.3882  -21.3593  -41.5411 C.3       10 UNK        -0.1800 
     24 N          -3.0498  -18.9438  -41.4630 N.am      10 UNK        -0.5000 
     25 C          -3.3748  -17.8008  -40.8421 C.2       9 UNK         0.5000 
     26 O          -4.5171  -17.5298  -40.4714 O.2       9 UNK        -0.5000 
     27 CA         -2.2494  -16.7658  -40.6226 C.3       9 UNK         0.1400 
     28 CB         -1.7307  -16.8352  -39.1784 C.3       9 UNK        -0.1800 
     29 N          -1.1171  -16.9137  -41.5392 N.am      9 UNK        -0.5000 
     30 C          -1.1735  -16.8043  -42.8739 C.2       8 UNK         0.5000 
     31 O          -2.1886  -16.4691  -43.4851 O.2       8 UNK        -0.5000 
     32 CA          0.1010  -17.1766  -43.6562 C.3       8 UNK         0.1400 
     33 CB          0.9252  -15.9158  -43.9490 C.3       8 UNK        -0.1800 
     34 N           0.9510  -18.1642  -42.9792 N.am      8 UNK        -0.5000 
     35 C           0.5799  -19.4071  -42.6321 C.2       7 UNK         0.5000 
     36 O          -0.5474  -19.8623  -42.8133 O.2       7 UNK        -0.5000 
     37 CA          1.6253  -20.2648  -41.9006 C.3       7 UNK         0.1400 
     38 CB          2.6595  -20.8510  -42.8732 C.3       7 UNK        -0.1800 
     39 N           2.3055  -19.4890  -40.8670 N.am      7 UNK        -0.5000 
     40 C           1.7946  -19.2454  -39.6522 C.2       6 UNK         0.5000 
     41 O           0.7384  -19.7279  -39.2437 O.2       6 UNK        -0.5000 
     42 CA          2.5871  -18.2842  -38.7461 C.3       6 UNK         0.1400 
     43 CB          3.5775  -19.0645  -37.8687 C.3       6 UNK        -0.1800 
     44 N           3.3161  -17.2601  -39.4966 N.am      6 UNK        -0.5000 
     45 C           2.7400  -16.2782  -40.2044 C.2       5 UNK         0.5000 
     46 O           1.5230  -16.1127  -40.2810 O.2       5 UNK        -0.5000 
     47 CA          3.6872  -15.3562  -40.9948 C.3       5 UNK         0.1400 
     48 CB          4.1566  -14.1876  -40.1156 C.3       5 UNK        -0.1800 
     49 N           4.8562  -16.0530  -41.5402 N.am      5 UNK        -0.5000 
     50 C           4.8097  -17.0465  -42.4374 C.2       4 UNK         0.5000 
     51 O           3.7641  -17.5204  -42.8898 O.2       4 UNK        -0.5000 
     52 CA          6.1560  -17.6489  -42.8500 C.3       4 UNK         0.1400 
     53 CB          6.5477  -18.7908  -41.8972 C.3       4 UNK        -0.1800 
     54 N           6.0608  -18.1684  -44.2107 N.am      4 UNK        -0.5000 
     55 C           7.0330  -18.0980  -45.1277 C.2       3 UNK         0.5000 
     56 O           8.1298  -17.5791  -44.9132 O.2       3 UNK        -0.5000 
     57 CA          6.7654  -18.7223  -46.5129 C.3       3 UNK         0.1400 
     58 CB          7.6102  -19.9937  -46.6971 C.3       3 UNK        -0.1800 
     59 N           5.3626  -19.0589  -46.7686 N.am      3 UNK        -0.5000 
     60 C           4.4105  -18.1765  -47.0921 C.2       2 UNK         0.5000 
     61 O           4.5873  -16.9563  -47.1410 O.2       2 UNK        -0.5000 
     62 CA          3.0306  -18.7693  -47.4085 C.3       2 UNK         0.1400 
     63 CB          2.3123  -19.2197  -46.1276 C.3       2 UNK        -0.1800 
     64 N           2.2218  -17.7680  -48.0907 N.am      2 UNK        -0.5000 
     65 C           1.2816  -18.0328  -49.0020 C.2       1 UNK         0.5000 
     66 O           0.9783  -19.1817  -49.3326 O.2       1 UNK        -0.5000 
     67 C          -3.0656  -18.9958  -46.1954 C.2       11 UNK         0.5000 
     68 O          -2.0233  -19.3154  -45.6195 O.2       11 UNK        -0.5000 
     69 N          -3.2078  -19.0658  -47.5202 N.am      12 UNK        -0.5000 
     70 CA         -2.1278  -19.3477  -48.4499 C.3       12 UNK         0.1400 
     71 CB         -2.5166  -18.8138  -49.8291 C.3       12 UNK        -0.1800 
     72 C          -1.7503  -20.8314  -48.5056 C.2       12 UNK         0.5000 
     73 O          -2.2196  -21.5506  -49.3895 O.2       12 UNK        -0.5000 
     74 N          -0.8902  -21.2603  -47.5769 N.am      13 UNK        -0.5000 
     75 CA         -0.3355  -22.6118  -47.4901 C.3       13 UNK         0.1400 
     76 CB          0.5999  -22.6934  -46.2746 C.3       13 UNK        -0.1800 
     77 C           0.3949  -23.0761  -48.7680 C.2       13 UNK         0.5000 
     78 O           0.3212  -24.2593  -49.1006 O.2       13 UNK        -0.5000 
     79 N           1.0378  -22.1448  -49.4912 N.am      14 UNK        -0.5000 
     80 CA          1.7096  -22.4168  -50.7670 C.3       14 UNK         0.1400 
     81 CB          2.6988  -21.2822  -51.0786 C.3       14 UNK        -0.1800 
     82 C           0.7278  -22.6115  -51.9412 C.2       14 UNK         0.5000 
     83 O           1.1194  -23.1732  -52.9644 O.2       14 UNK        -0.5000 
     84 N          -0.5220  -22.1602  -51.7729 N.am      15 UNK        -0.5000 
     85 CA         -1.6160  -22.2848  -52.7360 C.3       15 UNK         0.1400 
     86 CB         -2.2060  -20.8863  -52.9839 C.3       15 UNK        -0.1800 
     87 C          -2.6893  -23.2764  -52.2423 C.2       15 UNK         0.5000 
     88 O          -3.8237  -23.2224  -52.7220 O.2       15 UNK        -0.5000 
     89 N          -2.3201  -24.1442  -51.2854 N.am      16 UNK        -0.5000 
     90 CA         -3.1390  -25.1811  -50.6486 C.3       16 UNK         0.1400 
     91 CB         -3.4829  -26.2944  -51.6595 C.3       16 UNK        -0.1800 
     92 C          -4.3733  -24.6048  -49.9239 C.2       16 UNK         0.5000 
     93 O          -5.4993  -25.0359  -50.1709 O.2       16 UNK        -0.5000 
     94 N          -4.1248  -23.6079  -49.0625 N.am      17 UNK        -0.5000 
     95 CA         -5.1016  -22.7981  -48.3221 C.3       17 UNK         0.1400 
     96 CB         -5.9255  -23.6571  -47.3409 C.3       17 UNK        -0.1800 
     97 C          -5.9647  -21.9399  -49.2689 C.2       17 UNK         0.5000 
     98 O          -7.1727  -21.8076  -49.0683 O.2       17 UNK        -0.5000 
     99 N          -5.3047  -21.3936  -50.3006 N.am      18 UNK        -0.5000 
    100 CA        -5.8624  -20.6015  -51.4009 C.3       18 UNK         0.1400 
    101 CB        -6.4082  -19.2472  -50.9063 C.3       18 UNK        -0.1800 
    102 C         -6.8687  -21.3664  -52.2855 C.2       18 UNK         0.5000 
    103 O         -7.7006  -20.7380  -52.9405 O.2       18 UNK        -0.5000 
    104 N         -6.7378  -22.6982  -52.3666 N.am      19 UNK        -0.5000 
    105 CA        -7.4641  -23.5367  -53.3251 C.3       19 UNK         0.1400 
    106 CB        -7.2797  -25.0164  -52.9651 C.3       19 UNK        -0.1800 
    107 C         -7.0214  -23.2684  -54.7771 C.2       19 UNK         0.5000 
    108 O         -7.8503  -23.3203  -55.6858 O.2       19 UNK        -0.5000 
    109 N         -5.7367  -22.9274  -54.9571 N.am      20 UNK        -0.5000 
    110 CA        -5.1635  -22.4457  -56.2171 C.3       20 UNK         0.1400 
    111 CB        -3.6861  -22.8673  -56.2817 C.3       20 UNK        -0.1800 
    112 C         -5.3223  -20.9184  -56.4031 C.2       20 UNK         0.5000 
    113 O         -4.7999  -20.3724  -57.3765 O.2       20 UNK        -0.5000 
    114 N         -6.0087  -20.2471  -55.4622 N.am      21 UNK        -0.5000 
    115 CA        -6.3656  -18.8203  -55.4411 C.3       21 UNK         0.1400 
    116 CB        -7.4109  -18.5247  -56.5360 C.3       21 UNK        -0.1800 
    117 C         -5.1641  -17.8510  -55.5006 C.2       21 UNK         0.5000 
    118 O         -5.3274  -16.7025  -55.9157 O.2       21 UNK        -0.5000 
    119 N         -3.9801  -18.3365  -55.1025 N.am      22 UNK        -0.5000 
    120 CA        -2.6758  -17.6652  -55.2436 C.3       22 UNK         0.1400 
    121 C         -2.2270  -17.4491  -56.7239 C.2       22 UNK         0.5000 
    122 N         -2.7658  -18.1819  -57.6931 N.am      22 UNK        -0.7600 
    123 O         -1.3538  -16.6317  -57.0021 O.2       22 UNK        -0.5000 
    124 C124       -2.5432  -16.3864  -54.3672 C.3       23 UNK        -0.0398 
    125 S125       -2.6597  -16.7652  -52.5867 S.3       23 UNK        -0.2404 
    126 C126       -3.6812  -15.3907  -51.9702 C.3       23 UNK        -0.0205 
    127 H127        0.2519  -17.5698  -53.5553 H         1 UNK         0.0600 
    128 H128        1.9751  -17.8394  -53.8062 H         1 UNK         0.0600 
    129 H129        1.3090  -16.2081  -53.9473 H         1 UNK         0.0600 
    130 H130       -0.4469  -17.1418  -51.4794 H         1 UNK         0.3000 
    131 H131       -0.5290  -16.9916  -49.3362 H         1 UNK         0.0600 
    132 H132        0.5404  -14.6738  -49.8115 H         1 UNK         0.0800 
    133 H133        1.9881  -15.3005  -49.1027 H         1 UNK         0.0800 
    134 H134       -0.8060  -13.1488  -48.4650 H         1 UNK         0.0800 
    135 H135       -1.4676  -13.4850  -46.8917 H         1 UNK         0.0800 
    136 H136       -1.6804  -14.3422  -50.4777 H         1 UNK         0.1150 
    137 H137       -5.5309  -16.1768  -50.1020 H         1 UNK         0.1150 
    138 H138       -3.3380  -15.0553  -46.5885 H         1 UNK         0.1150 
    139 H139       -5.5799  -15.8728  -46.3340 H         1 UNK         0.0800 
    140 H140       -6.6152  -15.5619  -47.6919 H         1 UNK         0.0800 
    141 H141       -5.8238  -19.7396  -46.0713 H         1 UNK         0.0800 
    142 H142       -6.4101  -18.3280  -45.2479 H         1 UNK         0.0800 
    143 H143       -4.0708  -17.3087  -45.4488 H         1 UNK         0.0600 
    144 H144       -3.6367  -17.9768  -43.4374 H         1 UNK         0.3000 
    145 H145       -4.9248  -19.8868  -41.3177 H         1 UNK         0.0600 
    146 H146       -3.1086  -21.4218  -40.4893 H         1 UNK         0.0600 
    147 H147       -4.1033  -22.1601  -41.7332 H         1 UNK         0.0600 
    148 H148       -2.4989  -21.5650  -42.1374 H         1 UNK         0.0600 
    149 H149       -2.0933  -19.0801  -41.7776 H         1 UNK         0.3000 
    150 H150       -2.6798  -15.7759  -40.7861 H         1 UNK         0.0600 
    151 H151       -2.5425  -16.6981  -38.4629 H         1 UNK         0.0600 
    152 H152       -0.9935  -16.0555  -38.9853 H         1 UNK         0.0600 
    153 H153       -1.2641  -17.7977  -38.9662 H         1 UNK         0.0600 
    154 H154       -0.2174  -17.1120  -41.1179 H         1 UNK         0.3000 
    155 H155       -0.2107  -17.6089  -44.6085 H         1 UNK         0.0600 
    156 H156        1.2637  -15.4417  -43.0295 H         1 UNK         0.0600 
    157 H157        0.3301  -15.1794  -44.4894 H         1 UNK         0.0600 
    158 H158        1.8005  -16.1404  -44.5588 H         1 UNK         0.0600 
    159 H159        1.9141  -17.8845  -42.8142 H         1 UNK         0.3000 
    160 H160        1.1011  -21.1013  -41.4329 H         1 UNK         0.0600 
    161 H161        3.3357  -21.5342  -42.3593 H         1 UNK         0.0600 
    162 H162        3.2653  -20.0754  -43.3399 H         1 UNK         0.0600 
    163 H163        2.1702  -21.4154  -43.6679 H         1 UNK         0.0600 
    164 H164        3.1533  -19.0140  -41.1407 H         1 UNK         0.3000 
    165 H165        1.8715  -17.7806  -38.0925 H         1 UNK         0.0600 
    166 H166        4.0905  -18.4040  -37.1695 H         1 UNK         0.0600 
    167 H167        3.0620  -19.8233  -37.2784 H         1 UNK         0.0600 
    168 H168        4.3337  -19.5728  -38.4685 H         1 UNK         0.0600 
    169 H169        4.3235  -17.3181  -39.4874 H         1 UNK         0.3000 
    170 H170        3.1284  -14.9410  -41.8341 H         1 UNK         0.0600 
    171 H171        3.3058  -13.6362  -39.7128 H         1 UNK         0.0600 
    172 H172        4.7542  -14.5321  -39.2707 H         1 UNK         0.0600 
    173 H173        4.7582  -13.4805  -40.6871 H         1 UNK         0.0600 
    174 H174        5.7567  -15.7355  -41.2111 H         1 UNK         0.3000 
    175 H175        6.9096  -16.8602  -42.7991 H         1 UNK         0.0600 
    176 H176        5.8143  -19.5983  -41.9143 H         1 UNK         0.0600 
    177 H177        7.5153  -19.2136  -42.1681 H         1 UNK         0.0600 
    178 H178        6.6255  -18.4372  -40.8684 H         1 UNK         0.0600 
    179 H179        5.1574  -18.5405  -44.4684 H         1 UNK         0.3000 
    180 H180        7.0860  -17.9933  -47.2604 H         1 UNK         0.0600 
    181 H181        7.3341  -20.7673  -45.9794 H         1 UNK         0.0600 
    182 H182        8.6718  -19.7835  -46.5601 H         1 UNK         0.0600 
    183 H183        7.4909  -20.4058  -47.6993 H         1 UNK         0.0600 
    184 H184        5.1310  -20.0413  -46.7369 H         1 UNK         0.3000 
    185 H185        3.1767  -19.6292  -48.0660 H         1 UNK         0.0600 
    186 H186        2.2853  -18.4203  -45.3880 H         1 UNK         0.0600 
    187 H187        2.8246  -20.0697  -45.6794 H         1 UNK         0.0600 
    188 H188        1.2852  -19.5255  -46.3255 H         1 UNK         0.0600 
    189 H189        2.4707  -16.8113  -47.8740 H         1 UNK         0.3000 
    190 H190       -4.0895  -18.7756  -47.9240 H         1 UNK         0.3000 
    191 H191       -1.2571  -18.7936  -48.1047 H         1 UNK         0.0600 
    192 H192       -1.7147  -18.9759  -50.5498 H         1 UNK         0.0600 
    193 H193       -2.7022  -17.7451  -49.7833 H         1 UNK         0.0600 
    194 H194       -3.4159  -19.2894  -50.2134 H         1 UNK         0.0600 
    195 H195       -0.6340  -20.6137  -46.8417 H         1 UNK         0.3000 
    196 H196       -1.1718  -23.2936  -47.3236 H         1 UNK         0.0600 
    197 H197        0.9596  -23.7126  -46.1280 H         1 UNK         0.0600 
    198 H198        0.0891  -22.3940  -45.3588 H         1 UNK         0.0600 
    199 H199        1.4740  -22.0539  -46.3971 H         1 UNK         0.0600 
    200 H200        1.0112  -21.1722  -49.1973 H         1 UNK         0.3000 
    201 H201        2.2824  -23.3404  -50.6608 H         1 UNK         0.0600 
    202 H202        2.1847  -20.3489  -51.3097 H         1 UNK         0.0600 
    203 H203        3.3149  -21.5327  -51.9430 H         1 UNK         0.0600 
    204 H204        3.3723  -21.0991  -50.2415 H         1 UNK         0.0600 
    205 H205       -0.7749  -21.7535  -50.8798 H         1 UNK         0.3000 
    206 H206       -1.2460  -22.6698  -53.6879 H         1 UNK         0.0600 
    207 H207       -1.4361  -20.1873  -53.3100 H         1 UNK         0.0600 
    208 H208       -2.9775  -20.9057  -53.7520 H         1 UNK         0.0600 
    209 H209       -2.6588  -20.4849  -52.0808 H         1 UNK         0.0600 
    210 H210       -1.3699  -24.0786  -50.9467 H         1 UNK         0.3000 
    211 H211       -2.5176  -25.6293  -49.8718 H         1 UNK         0.0600 
    212 H212       -2.5778  -26.7461  -52.0653 H         1 UNK         0.0600 
    213 H213       -4.0684  -25.9182  -52.4972 H         1 UNK         0.0600 
    214 H214       -4.0582  -27.0913  -51.1869 H         1 UNK         0.0600 
    215 H215       -3.1763  -23.2504  -49.0290 H         1 UNK         0.3000 
    216 H216       -4.5223  -22.0936  -47.7235 H         1 UNK         0.0600 
    217 H217       -6.5371  -23.0270  -46.6941 H         1 UNK         0.0600 
    218 H218       -5.2768  -24.2494  -46.6957 H         1 UNK         0.0600 
    219 H219       -6.5983  -24.3397  -47.8603 H         1 UNK         0.0600 
    220 H220       -4.3120  -21.5834  -50.3565 H         1 UNK         0.3000 
    221 H221       -5.0235  -20.3795  -52.0600 H         1 UNK         0.0600 
    222 H222       -7.2675  -19.3709  -50.2472 H         1 UNK         0.0600 
    223 H223       -5.6458  -18.6904  -50.3653 H         1 UNK         0.0600 
    224 H224       -6.7229  -18.6183  -51.7397 H         1 UNK         0.0600 
    225 H225       -6.0033  -23.1490  -51.8356 H         1 UNK         0.3000 
    226 H226       -8.5272  -23.2985  -53.2498 H         1 UNK         0.0600 
    227 H227       -7.8338  -25.6582  -53.6512 H         1 UNK         0.0600 
    228 H228       -6.2322  -25.3114  -53.0124 H         1 UNK         0.0600 
    229 H229       -7.6426  -25.2255  -51.9587 H         1 UNK         0.0600 
    230 H230       -5.1129  -22.9557  -54.1540 H         1 UNK         0.3000 
    231 H231       -5.6808  -22.9224  -57.0520 H         1 UNK         0.0600 
    232 H232       -3.5807  -23.9469  -56.1732 H         1 UNK         0.0600 
    233 H233       -3.0940  -22.3955  -55.4998 H         1 UNK         0.0600 
    234 H234       -3.2407  -22.5944  -57.2391 H         1 UNK         0.0600 
    235 H235       -6.4190  -20.7894  -54.7133 H         1 UNK         0.3000 
    236 H236       -6.8415  -18.6394  -54.4767 H         1 UNK         0.0600 
    237 H237       -8.2614  -19.2024  -56.4606 H         1 UNK         0.0600 
    238 H238       -7.8001  -17.5098  -56.4472 H         1 UNK         0.0600 
    239 H239       -6.9873  -18.6274  -57.5356 H         1 UNK         0.0600 
    240 H240       -3.9496  -19.2924  -54.7862 H         1 UNK         0.3000 
    241 H241       -1.9458  -18.3798  -54.8638 H         1 UNK         0.0600 
    242 H242       -3.4799  -18.8765  -57.4972 H         1 UNK         0.3800 
    243 H243       -2.4604  -18.0416  -58.6429 H         1 UNK         0.3800 
    244 H244       -1.5757  -15.9070  -54.5230 H         1 UNK         0.0800 
    245 H245       -3.2933  -15.6458  -54.6454 H         1 UNK         0.0800 
    246 H246       -3.3385  -14.4533  -52.4107 H         1 UNK         0.0800 
    247 H247       -4.7120  -15.5323  -52.2983 H         1 UNK         0.0800 
@<TRIPOS>BOND
     1    1    2 1    
     2    1  127 1    
     3    1  128 1    
     4    1  129 1    
     5    2    3 2    
     6    2    4 am   BACKBONE|DICT|INTERRES
     7    4    5 1    
     8    4  130 1    
     9    5    6 1    
    10    5   65 1    
    11    5  131 1    
    12    6    7 1    
    13    6  132 1    
    14    6  133 1    
    15    7    8 1    
    16    8    9 1    
    17    8  134 1    
    18    8  135 1    
    19    9   10 ar   
    20    9   14 ar   
    21   10   11 ar   
    22   10  136 1    
    23   11   12 ar   
    24   11  126 1    
    25   12   13 ar   
    26   12  137 1    
    27   13   14 ar   
    28   13   15 1    
    29   14  138 1    
    30   15   16 1    
    31   15  139 1    
    32   15  140 1    
    33   16   17 1    
    34   17   18 1    
    35   17  141 1    
    36   17  142 1    
    37   18   19 1    
    38   18   67 1    
    39   18  143 1    
    40   19   20 am   BACKBONE|DICT|INTERRES
    41   19  144 1    
    42   20   21 2    
    43   20   22 1    
    44   22   23 1    
    45   22   24 1    
    46   22  145 1    
    47   23  146 1    
    48   23  147 1    
    49   23  148 1    
    50   24   25 am   BACKBONE|DICT|INTERRES
    51   24  149 1    
    52   25   26 2    
    53   25   27 1    
    54   27   28 1    
    55   27   29 1    
    56   27  150 1    
    57   28  151 1    
    58   28  152 1    
    59   28  153 1    
    60   29   30 am   BACKBONE|DICT|INTERRES
    61   29  154 1    
    62   30   31 2    
    63   30   32 1    
    64   32   33 1    
    65   32   34 1    
    66   32  155 1    
    67   33  156 1    
    68   33  157 1    
    69   33  158 1    
    70   34   35 am   BACKBONE|DICT|INTERRES
    71   34  159 1    
    72   35   36 2    
    73   35   37 1    
    74   37   38 1    
    75   37   39 1    
    76   37  160 1    
    77   38  161 1    
    78   38  162 1    
    79   38  163 1    
    80   39   40 am   BACKBONE|DICT|INTERRES
    81   39  164 1    
    82   40   41 2    
    83   40   42 1    
    84   42   43 1    
    85   42   44 1    
    86   42  165 1    
    87   43  166 1    
    88   43  167 1    
    89   43  168 1    
    90   44   45 am   BACKBONE|DICT|INTERRES
    91   44  169 1    
    92   45   46 2    
    93   45   47 1    
    94   47   48 1    
    95   47   49 1    
    96   47  170 1    
    97   48  171 1    
    98   48  172 1    
    99   48  173 1    
   100   49   50 am   BACKBONE|DICT|INTERRES
   101   49  174 1    
   102   50   51 2    
   103   50   52 1    
   104   52   53 1    
   105   52   54 1    
   106   52  175 1    
   107   53  176 1    
   108   53  177 1    
   109   53  178 1    
   110   54   55 am   BACKBONE|DICT|INTERRES
   111   54  179 1    
   112   55   56 2    
   113   55   57 1    
   114   57   58 1    
   115   57   59 1    
   116   57  180 1    
   117   58  181 1    
   118   58  182 1    
   119   58  183 1    
   120   59   60 am   BACKBONE|DICT|INTERRES
   121   59  184 1    
   122   60   61 2    
   123   60   62 1    
   124   62   63 1    
   125   62   64 1    
   126   62  185 1    
   127   63  186 1    
   128   63  187 1    
   129   63  188 1    
   130   64   65 am   BACKBONE|DICT|INTERRES
   131   64  189 1    
   132   65   66 2    
   133   67   68 2    
   134   67   69 am   BACKBONE|DICT|INTERRES
   135   69   70 1    
   136   69  190 1    
   137   70   71 1    
   138   70   72 1    
   139   70  191 1    
   140   71  192 1    
   141   71  193 1    
   142   71  194 1    
   143   72   73 2    
   144   72   74 am   BACKBONE|DICT|INTERRES
   145   74   75 1    
   146   74  195 1    
   147   75   76 1    
   148   75   77 1    
   149   75  196 1    
   150   76  197 1    
   151   76  198 1    
   152   76  199 1    
   153   77   78 2    
   154   77   79 am   BACKBONE|DICT|INTERRES
   155   79   80 1    
   156   79  200 1    
   157   80   81 1    
   158   80   82 1    
   159   80  201 1    
   160   81  202 1    
   161   81  203 1    
   162   81  204 1    
   163   82   83 2    
   164   82   84 am   BACKBONE|DICT|INTERRES
   165   84   85 1    
   166   84  205 1    
   167   85   86 1    
   168   85   87 1    
   169   85  206 1    
   170   86  207 1    
   171   86  208 1    
   172   86  209 1    
   173   87   88 2    
   174   87   89 am   BACKBONE|DICT|INTERRES
   175   89   90 1    
   176   89  210 1    
   177   90   91 1    
   178   90   92 1    
   179   90  211 1    
   180   91  212 1    
   181   91  213 1    
   182   91  214 1    
   183   92   93 2    
   184   92   94 am   BACKBONE|DICT|INTERRES
   185   94   95 1    
   186   94  215 1    
   187   95   96 1    
   188   95   97 1    
   189   95  216 1    
   190   96  217 1    
   191   96  218 1    
   192   96  219 1    
   193   97   98 2    
   194   97   99 am   BACKBONE|DICT|INTERRES
   195   99  100 1    
   196   99  220 1    
   197  100  101 1    
   198  100  102 1    
   199  100  221 1    
   200  101  222 1    
   201  101  223 1    
   202  101  224 1    
   203  102  103 2    
   204  102  104 am   BACKBONE|DICT|INTERRES
   205  104  105 1    
   206  104  225 1    
   207  105  106 1    
   208  105  107 1    
   209  105  226 1    
   210  106  227 1    
   211  106  228 1    
   212  106  229 1    
   213  107  108 2    
   214  107  109 am   BACKBONE|DICT|INTERRES
   215  109  110 1    
   216  109  230 1    
   217  110  111 1    
   218  110  112 1    
   219  110  231 1    
   220  111  232 1    
   221  111  233 1    
   222  111  234 1    
   223  112  113 2    
   224  112  114 am   BACKBONE|DICT|INTERRES
   225  114  115 1    
   226  114  235 1    
   227  115  116 1    
   228  115  117 1    
   229  115  236 1    
   230  116  237 1    
   231  116  238 1    
   232  116  239 1    
   233  117  118 2    
   234  117  119 am   BACKBONE|DICT|INTERRES
   235  119  120 1    
   236  119  240 1    
   237  120  121 1    
   238  120  124 1    
   239  120  241 1    
   240  121  122 am   BACKBONE|DICT|INTERRES
   241  121  123 2    
   242  122  242 1    
   243  122  243 1    
   244  124  125 1    
   245  124  244 1    
   246  124  245 1    
   247  125  126 1    
   248  126  246 1    
   249  126  247 1    
@<TRIPOS>SUBSTRUCTURE
     1 UNK         1 GROUP             0       ****    0 ROOT    
