@<TRIPOS>MOLECULE
3R540
247   249    1
SMALL
USER_CHARGES


@<TRIPOS>ATOM
      1 CA          4.2627   -9.5785  -48.6927 C.3       0 UNK        -0.1800 
      2 C           3.5182  -10.9034  -48.7774 C.2       0 UNK         0.5000 
      3 O           4.0946  -11.9048  -49.2020 O.2       0 UNK        -0.5000 
      4 N           2.2430  -10.9132  -48.3763 N.am      1 UNK        -0.5000 
      5 CA          1.3748  -12.0913  -48.3695 C.3       1 UNK         0.1400 
      6 C6          0.7911  -12.4140  -49.7732 C.3       23 UNK        -0.0398 
      7 S7          0.4424  -14.1936  -49.9875 S.3       23 UNK        -0.2404 
      8 C8          1.8792  -14.6892  -50.9854 C.3       23 UNK        -0.0205 
      9 C9          1.8453  -16.1716  -51.3200 C.ar      23 UNK        -0.0193 
     10 C10         1.1589  -16.6223  -52.4517 C.ar      23 UNK        -0.1150 
     11 C11         1.1581  -17.9795  -52.7886 C.ar      23 UNK        -0.0193 
     12 C12         1.8451  -18.8873  -51.9776 C.ar      23 UNK        -0.1150 
     13 C13         2.5200  -18.4522  -50.8340 C.ar      23 UNK        -0.0193 
     14 C14         2.5228  -17.0910  -50.5143 C.ar      23 UNK        -0.1150 
     15 C15         3.2547  -19.4555  -49.9558 C.3       23 UNK        -0.0205 
     16 S16         2.6231  -19.4892  -48.2486 S.3       23 UNK        -0.2404 
     17 C17         0.8884  -20.0079  -48.4759 C.3       23 UNK        -0.0398 
     18 CA          0.6551  -21.5081  -48.1835 C.3       11 UNK         0.1400 
     19 N           1.0769  -21.8767  -46.8324 N.am      11 UNK        -0.5000 
     20 C           1.2374  -23.1271  -46.3846 C.2       10 UNK         0.5000 
     21 O           1.1170  -24.1257  -47.0972 O.2       10 UNK        -0.5000 
     22 CA          1.5867  -23.2705  -44.8883 C.3       10 UNK         0.1400 
     23 CB          2.0468  -24.6904  -44.4990 C.3       10 UNK        -0.1800 
     24 N           2.5461  -22.2617  -44.4296 N.am      10 UNK        -0.5000 
     25 C           3.8089  -22.0739  -44.8418 C.2       9 UNK         0.5000 
     26 O           4.3770  -22.7937  -45.6641 O.2       9 UNK        -0.5000 
     27 CA          4.5771  -20.8781  -44.2378 C.3       9 UNK         0.1400 
     28 CB          4.8017  -19.7863  -45.2940 C.3       9 UNK        -0.1800 
     29 N           3.9098  -20.2738  -43.0833 N.am      9 UNK        -0.5000 
     30 C           3.8888  -20.7917  -41.8486 C.2       8 UNK         0.5000 
     31 O           4.4906  -21.8163  -41.5254 O.2       8 UNK        -0.5000 
     32 CA          3.0174  -20.0592  -40.8105 C.3       8 UNK         0.1400 
     33 CB          3.7888  -18.8904  -40.1793 C.3       8 UNK        -0.1800 
     34 N           1.7529  -19.5699  -41.3680 N.am      8 UNK        -0.5000 
     35 C           0.7749  -20.3575  -41.8400 C.2       7 UNK         0.5000 
     36 O           0.8267  -21.5871  -41.8387 O.2       7 UNK        -0.5000 
     37 CA         -0.4509  -19.6600  -42.4541 C.3       7 UNK         0.1400 
     38 CB         -1.4054  -19.1724  -41.3540 C.3       7 UNK        -0.1800 
     39 N          -0.0834  -18.5464  -43.3293 N.am      7 UNK        -0.5000 
     40 C           0.5826  -18.6816  -44.4855 C.2       6 UNK         0.5000 
     41 O           0.9091  -19.7689  -44.9579 O.2       6 UNK        -0.5000 
     42 CA          0.9892  -17.3914  -45.2194 C.3       6 UNK         0.1400 
     43 CB         -0.1767  -16.8259  -46.0444 C.3       6 UNK        -0.1800 
     44 N           1.4807  -16.3596  -44.3101 N.am      6 UNK        -0.5000 
     45 C           2.5627  -16.4736  -43.5286 C.2       5 UNK         0.5000 
     46 O           3.3017  -17.4571  -43.5144 O.2       5 UNK        -0.5000 
     47 CA          2.8264  -15.3115  -42.5582 C.3       5 UNK         0.1400 
     48 CB          3.4744  -14.1218  -43.2835 C.3       5 UNK        -0.1800 
     49 N           1.5992  -14.8761  -41.8912 N.am      5 UNK        -0.5000 
     50 C           0.9297  -15.6067  -40.9883 C.2       4 UNK         0.5000 
     51 O           1.2918  -16.7179  -40.6018 O.2       4 UNK        -0.5000 
     52 CA         -0.3843  -15.0076  -40.4554 C.3       4 UNK         0.1400 
     53 CB         -0.1049  -13.9980  -39.3321 C.3       4 UNK        -0.1800 
     54 N          -1.1752  -14.3621  -41.5044 N.am      4 UNK        -0.5000 
     55 C          -1.7619  -15.0179  -42.5153 C.2       3 UNK         0.5000 
     56 O          -1.7082  -16.2374  -42.6630 O.2       3 UNK        -0.5000 
     57 CA         -2.4927  -14.1623  -43.5652 C.3       3 UNK         0.1400 
     58 CB         -3.9164  -13.8289  -43.0953 C.3       3 UNK        -0.1800 
     59 N          -1.7905  -12.9239  -43.9170 N.am      3 UNK        -0.5000 
     60 C          -0.5534  -12.8699  -44.4270 C.2       2 UNK         0.5000 
     61 O           0.1798  -13.8524  -44.5554 O.2       2 UNK        -0.5000 
     62 CA         -0.0310  -11.4840  -44.8424 C.3       2 UNK         0.1400 
     63 CB          0.8099  -10.8694  -43.7130 C.3       2 UNK        -0.1800 
     64 N           0.7870  -11.5763  -46.0526 N.am      2 UNK        -0.5000 
     65 C           0.3180  -11.9192  -47.2615 C.2       1 UNK         0.5000 
     66 O          -0.8818  -12.0550  -47.5083 O.2       1 UNK        -0.5000 
     67 C          -0.8373  -21.8397  -48.3632 C.2       11 UNK         0.5000 
     68 O          -1.6250  -21.5695  -47.4524 O.2       11 UNK        -0.5000 
     69 N          -1.2116  -22.3695  -49.5371 N.am      12 UNK        -0.5000 
     70 CA         -2.5718  -22.8080  -49.8803 C.3       12 UNK         0.1400 
     71 CB         -2.5952  -23.3011  -51.3342 C.3       12 UNK        -0.1800 
     72 C          -3.6575  -21.7382  -49.6630 C.2       12 UNK         0.5000 
     73 O          -4.7389  -22.0620  -49.1758 O.2       12 UNK        -0.5000 
     74 N          -3.3136  -20.4754  -49.9498 N.am      13 UNK        -0.5000 
     75 CA         -4.1552  -19.2927  -49.7543 C.3       13 UNK         0.1400 
     76 CB         -3.4047  -18.0705  -50.3064 C.3       13 UNK        -0.1800 
     77 C          -4.5933  -19.0421  -48.2940 C.2       13 UNK         0.5000 
     78 O          -5.5749  -18.3307  -48.0820 O.2       13 UNK        -0.5000 
     79 N          -3.8778  -19.6224  -47.3214 N.am      14 UNK        -0.5000 
     80 CA         -4.2214  -19.5852  -45.9015 C.3       14 UNK         0.1400 
     81 CB         -3.0393  -19.0084  -45.1118 C.3       14 UNK        -0.1800 
     82 C          -4.5830  -20.9857  -45.3836 C.2       14 UNK         0.5000 
     83 O          -5.5662  -21.1235  -44.6564 O.2       14 UNK        -0.5000 
     84 N          -3.7909  -21.9988  -45.7622 N.am      15 UNK        -0.5000 
     85 CA         -3.9051  -23.3750  -45.2775 C.3       15 UNK         0.1400 
     86 CB         -2.6335  -24.1497  -45.6577 C.3       15 UNK        -0.1800 
     87 C          -5.1596  -24.1109  -45.7811 C.2       15 UNK         0.5000 
     88 O          -5.7389  -24.8929  -45.0263 O.2       15 UNK        -0.5000 
     89 N          -5.5562  -23.8496  -47.0330 N.am      16 UNK        -0.5000 
     90 CA         -6.7349  -24.4354  -47.6768 C.3       16 UNK         0.1400 
     91 CB         -6.2864  -25.1490  -48.9639 C.3       16 UNK        -0.1800 
     92 C          -7.8079  -23.3754  -47.9891 C.2       16 UNK         0.5000 
     93 O          -8.8742  -23.7342  -48.4912 O.2       16 UNK        -0.5000 
     94 N          -7.5062  -22.0960  -47.7178 N.am      17 UNK        -0.5000 
     95 CA         -8.2634  -20.8726  -48.0164 C.3       17 UNK         0.1400 
     96 CB         -9.6486  -20.8745  -47.3426 C.3       17 UNK        -0.1800 
     97 C          -8.3634  -20.5649  -49.5239 C.2       17 UNK         0.5000 
     98 O          -8.0658  -19.4445  -49.9381 O.2       17 UNK        -0.5000 
     99 N          -8.7501  -21.5637  -50.3243 N.am      18 UNK        -0.5000 
    100 CA        -8.6691  -21.5474  -51.7792 C.3       18 UNK         0.1400 
    101 CB        -9.5634  -22.6598  -52.3490 C.3       18 UNK        -0.1800 
    102 C         -7.2035  -21.7378  -52.2022 C.2       18 UNK         0.5000 
    103 O         -6.6251  -22.7900  -51.9250 O.2       18 UNK        -0.5000 
    104 N         -6.6289  -20.7129  -52.8441 N.am      19 UNK        -0.5000 
    105 CA        -5.2335  -20.6943  -53.2872 C.3       19 UNK         0.1400 
    106 CB        -4.8732  -19.2731  -53.7449 C.3       19 UNK        -0.1800 
    107 C         -4.9364  -21.7282  -54.3894 C.2       19 UNK         0.5000 
    108 O         -3.8656  -22.3341  -54.3715 O.2       19 UNK        -0.5000 
    109 N         -5.9059  -21.9243  -55.2987 N.am      20 UNK        -0.5000 
    110 CA        -5.9063  -22.8918  -56.4017 C.3       20 UNK         0.1400 
    111 CB        -6.1240  -24.3166  -55.8436 C.3       20 UNK        -0.1800 
    112 C         -4.6600  -22.7468  -57.3039 C.2       20 UNK         0.5000 
    113 O         -4.3479  -21.6303  -57.7264 O.2       20 UNK        -0.5000 
    114 N         -3.9508  -23.8531  -57.5628 N.am      21 UNK        -0.5000 
    115 CA        -2.6558  -23.8937  -58.2431 C.3       21 UNK         0.1400 
    116 CB        -2.4418  -25.3066  -58.8154 C.3       21 UNK        -0.1800 
    117 C         -1.5275  -23.4598  -57.2827 C.2       21 UNK         0.5000 
    118 O         -0.6908  -24.2759  -56.8917 O.2       21 UNK        -0.5000 
    119 N         -1.5647  -22.1830  -56.8863 N.am      22 UNK        -0.5000 
    120 CA        -0.6638  -21.5601  -55.9040 C.3       22 UNK         0.1400 
    121 C          0.8186  -21.4387  -56.3687 C.2       22 UNK         0.5000 
    122 N          1.1009  -21.4064  -57.6659 N.am      22 UNK        -0.7600 
    123 O          1.7272  -21.3920  -55.5449 O.2       22 UNK        -0.5000 
    124 C124       -1.2367  -20.1937  -55.4399 C.3       23 UNK        -0.0398 
    125 S125       -0.7847  -19.7450  -53.7290 S.3       23 UNK        -0.2404 
    126 C126        0.4633  -18.4580  -54.0552 C.3       23 UNK        -0.0205 
    127 H127        3.6308   -8.7820  -48.2991 H         1 UNK         0.0600 
    128 H128        4.6098   -9.2797  -49.6817 H         1 UNK         0.0600 
    129 H129        5.1308   -9.6771  -48.0409 H         1 UNK         0.0600 
    130 H130        1.8185  -10.0633  -48.0288 H         1 UNK         0.3000 
    131 H131        1.9863  -12.9395  -48.0524 H         1 UNK         0.0600 
    132 H132       -0.1155  -11.8412  -49.9745 H         1 UNK         0.0800 
    133 H133        1.4924  -12.1107  -50.5513 H         1 UNK         0.0800 
    134 H134        2.7955  -14.4454  -50.4447 H         1 UNK         0.0800 
    135 H135        1.9013  -14.1057  -51.9073 H         1 UNK         0.0800 
    136 H136        0.6396  -15.9107  -53.0782 H         1 UNK         0.1150 
    137 H137        1.8524  -19.9354  -52.2432 H         1 UNK         0.1150 
    138 H138        3.0518  -16.7493  -49.6355 H         1 UNK         0.1150 
    139 H139        3.1939  -20.4615  -50.3740 H         1 UNK         0.0800 
    140 H140        4.3137  -19.1956  -49.9335 H         1 UNK         0.0800 
    141 H141        0.5603  -19.7590  -49.4857 H         1 UNK         0.0800 
    142 H142        0.2805  -19.3976  -47.8078 H         1 UNK         0.0800 
    143 H143        1.2378  -22.0963  -48.8954 H         1 UNK         0.0600 
    144 H144        1.1441  -21.1106  -46.1648 H         1 UNK         0.3000 
    145 H145        0.6618  -23.0682  -44.3462 H         1 UNK         0.0600 
    146 H146        2.2657  -24.7540  -43.4331 H         1 UNK         0.0600 
    147 H147        1.2694  -25.4244  -44.7144 H         1 UNK         0.0600 
    148 H148        2.9410  -24.9923  -45.0448 H         1 UNK         0.0600 
    149 H149        2.1748  -21.5925  -43.7682 H         1 UNK         0.3000 
    150 H150        5.5541  -21.2490  -43.9215 H         1 UNK         0.0600 
    151 H151        5.2690  -20.1904  -46.1929 H         1 UNK         0.0600 
    152 H152        5.4522  -18.9987  -44.9135 H         1 UNK         0.0600 
    153 H153        3.8599  -19.3239  -45.5894 H         1 UNK         0.0600 
    154 H154        3.4440  -19.3851  -43.2470 H         1 UNK         0.3000 
    155 H155        2.7776  -20.7724  -40.0193 H         1 UNK         0.0600 
    156 H156        4.7293  -19.2314  -39.7448 H         1 UNK         0.0600 
    157 H157        3.2120  -18.4239  -39.3806 H         1 UNK         0.0600 
    158 H158        4.0256  -18.1203  -40.9139 H         1 UNK         0.0600 
    159 H159        1.6174  -18.5637  -41.3689 H         1 UNK         0.3000 
    160 H160       -0.9828  -20.3979  -43.0586 H         1 UNK         0.0600 
    161 H161       -0.9502  -18.3942  -40.7410 H         1 UNK         0.0600 
    162 H162       -1.6884  -19.9907  -40.6908 H         1 UNK         0.0600 
    163 H163       -2.3239  -18.7677  -41.7781 H         1 UNK         0.0600 
    164 H164       -0.3842  -17.6215  -43.0367 H         1 UNK         0.3000 
    165 H165        1.8002  -17.6450  -45.9045 H         1 UNK         0.0600 
    166 H166        0.1547  -16.0021  -46.6773 H         1 UNK         0.0600 
    167 H167       -0.6110  -17.5832  -46.6964 H         1 UNK         0.0600 
    168 H168       -0.9733  -16.4501  -45.4029 H         1 UNK         0.0600 
    169 H169        0.9490  -15.4918  -44.2808 H         1 UNK         0.3000 
    170 H170        3.5228  -15.6636  -41.7941 H         1 UNK         0.0600 
    171 H171        3.6975  -13.3108  -42.5902 H         1 UNK         0.0600 
    172 H172        4.4145  -14.4183  -43.7502 H         1 UNK         0.0600 
    173 H173        2.8316  -13.7245  -44.0695 H         1 UNK         0.0600 
    174 H174        1.1984  -14.0037  -42.2010 H         1 UNK         0.3000 
    175 H175       -0.9764  -15.8252  -40.0385 H         1 UNK         0.0600 
    176 H176        0.4718  -14.4586  -38.5288 H         1 UNK         0.0600 
    177 H177        0.4618  -13.1384  -39.6922 H         1 UNK         0.0600 
    178 H178       -1.0326  -13.6293  -38.8942 H         1 UNK         0.0600 
    179 H179       -1.2634  -13.3576  -41.4636 H         1 UNK         0.3000 
    180 H180       -2.5703  -14.7617  -44.4746 H         1 UNK         0.0600 
    181 H181       -4.4667  -14.7366  -42.8432 H         1 UNK         0.0600 
    182 H182       -3.9107  -13.1917  -42.2102 H         1 UNK         0.0600 
    183 H183       -4.4796  -13.3163  -43.8753 H         1 UNK         0.0600 
    184 H184       -2.3210  -12.0690  -43.8303 H         1 UNK         0.3000 
    185 H185       -0.8796  -10.8282  -45.0479 H         1 UNK         0.0600 
    186 H186        0.2232  -10.7672  -42.7992 H         1 UNK         0.0600 
    187 H187        1.6804  -11.4826  -43.4771 H         1 UNK         0.0600 
    188 H188        1.1644   -9.8743  -43.9825 H         1 UNK         0.0600 
    189 H189        1.7855  -11.4972  -45.9276 H         1 UNK         0.3000 
    190 H190       -0.5043  -22.5496  -50.2351 H         1 UNK         0.3000 
    191 H191       -2.8154  -23.6514  -49.2312 H         1 UNK         0.0600 
    192 H192       -1.9302  -24.1532  -51.4746 H         1 UNK         0.0600 
    193 H193       -2.2897  -22.5183  -52.0300 H         1 UNK         0.0600 
    194 H194       -3.5976  -23.6215  -51.6238 H         1 UNK         0.0600 
    195 H195       -2.3914  -20.3108  -50.3248 H         1 UNK         0.3000 
    196 H196       -5.0646  -19.4358  -50.3418 H         1 UNK         0.0600 
    197 H197       -4.0192  -17.1717  -50.2407 H         1 UNK         0.0600 
    198 H198       -3.1405  -18.2059  -51.3555 H         1 UNK         0.0600 
    199 H199       -2.4845  -17.8805  -49.7521 H         1 UNK         0.0600 
    200 H200       -3.0910  -20.2079  -47.5786 H         1 UNK         0.3000 
    201 H201       -5.0857  -18.9415  -45.7254 H         1 UNK         0.0600 
    202 H202       -3.2415  -19.0126  -44.0404 H         1 UNK         0.0600 
    203 H203       -2.1280  -19.5826  -45.2807 H         1 UNK         0.0600 
    204 H204       -2.8470  -17.9755  -45.3989 H         1 UNK         0.0600 
    205 H205       -2.9889  -21.8054  -46.3594 H         1 UNK         0.3000 
    206 H206       -3.9620  -23.3392  -44.1875 H         1 UNK         0.0600 
    207 H207       -1.7447  -23.6756  -45.2414 H         1 UNK         0.0600 
    208 H208       -2.6671  -25.1705  -45.2750 H         1 UNK         0.0600 
    209 H209       -2.5046  -24.2082  -46.7390 H         1 UNK         0.0600 
    210 H210       -5.0314  -23.1913  -47.6010 H         1 UNK         0.3000 
    211 H211       -7.2049  -25.1757  -47.0266 H         1 UNK         0.0600 
    212 H212       -7.1266  -25.6461  -49.4503 H         1 UNK         0.0600 
    213 H213       -5.5375  -25.9118  -48.7513 H         1 UNK         0.0600 
    214 H214       -5.8595  -24.4516  -49.6855 H         1 UNK         0.0600 
    215 H215       -6.5847  -21.9340  -47.3394 H         1 UNK         0.3000 
    216 H216       -7.6890  -20.0602  -47.5687 H         1 UNK         0.0600 
    217 H217      -10.1450  -19.9131  -47.4790 H         1 UNK         0.0600 
    218 H218       -9.5637  -21.0474  -46.2697 H         1 UNK         0.0600 
    219 H219      -10.3068  -21.6393  -47.7551 H         1 UNK         0.0600 
    220 H220       -8.9317  -22.4625  -49.8862 H         1 UNK         0.3000 
    221 H221       -9.0378  -20.5881  -52.1488 H         1 UNK         0.0600 
    222 H222       -9.2640  -23.6445  -51.9871 H         1 UNK         0.0600 
    223 H223      -10.6067  -22.5059  -52.0729 H         1 UNK         0.0600 
    224 H224       -9.5134  -22.6804  -53.4384 H         1 UNK         0.0600 
    225 H225       -7.1679  -19.8753  -53.0112 H         1 UNK         0.3000 
    226 H226       -4.6075  -20.9431  -52.4293 H         1 UNK         0.0600 
    227 H227       -3.8116  -19.1940  -53.9750 H         1 UNK         0.0600 
    228 H228       -5.4273  -18.9827  -54.6383 H         1 UNK         0.0600 
    229 H229       -5.0862  -18.5410  -52.9659 H         1 UNK         0.0600 
    230 H230       -6.7316  -21.3479  -55.2276 H         1 UNK         0.3000 
    231 H231       -6.7639  -22.6467  -57.0295 H         1 UNK         0.0600 
    232 H232       -7.0272  -24.3598  -55.2345 H         1 UNK         0.0600 
    233 H233       -5.2927  -24.6417  -55.2165 H         1 UNK         0.0600 
    234 H234       -6.2481  -25.0449  -56.6459 H         1 UNK         0.0600 
    235 H235       -4.2566  -24.7192  -57.1439 H         1 UNK         0.3000 
    236 H236       -2.6671  -23.1934  -59.0809 H         1 UNK         0.0600 
    237 H237       -3.2240  -25.5644  -59.5296 H         1 UNK         0.0600 
    238 H238       -1.4885  -25.3743  -59.3410 H         1 UNK         0.0600 
    239 H239       -2.4406  -26.0654  -58.0319 H         1 UNK         0.0600 
    240 H240       -2.3326  -21.6139  -57.2234 H         1 UNK         0.3000 
    241 H241       -0.6609  -22.2295  -55.0413 H         1 UNK         0.0600 
    242 H242        2.0619  -21.3392  -57.9626 H         1 UNK         0.3800 
    243 H243        0.3668  -21.4563  -58.3541 H         1 UNK         0.3800 
    244 H244       -0.9662  -19.3946  -56.1325 H         1 UNK         0.0800 
    245 H245       -2.3260  -20.2295  -55.4594 H         1 UNK         0.0800 
    246 H246       -0.0181  -17.6243  -54.5688 H         1 UNK         0.0800 
    247 H247        1.2209  -18.8461  -54.7365 H         1 UNK         0.0800 
@<TRIPOS>BOND
     1    1    2 1    
     2    1  127 1    
     3    1  128 1    
     4    1  129 1    
     5    2    3 2    
     6    2    4 am   BACKBONE|DICT|INTERRES
     7    4    5 1    
     8    4  130 1    
     9    5    6 1    
    10    5   65 1    
    11    5  131 1    
    12    6    7 1    
    13    6  132 1    
    14    6  133 1    
    15    7    8 1    
    16    8    9 1    
    17    8  134 1    
    18    8  135 1    
    19    9   10 ar   
    20    9   14 ar   
    21   10   11 ar   
    22   10  136 1    
    23   11   12 ar   
    24   11  126 1    
    25   12   13 ar   
    26   12  137 1    
    27   13   14 ar   
    28   13   15 1    
    29   14  138 1    
    30   15   16 1    
    31   15  139 1    
    32   15  140 1    
    33   16   17 1    
    34   17   18 1    
    35   17  141 1    
    36   17  142 1    
    37   18   19 1    
    38   18   67 1    
    39   18  143 1    
    40   19   20 am   BACKBONE|DICT|INTERRES
    41   19  144 1    
    42   20   21 2    
    43   20   22 1    
    44   22   23 1    
    45   22   24 1    
    46   22  145 1    
    47   23  146 1    
    48   23  147 1    
    49   23  148 1    
    50   24   25 am   BACKBONE|DICT|INTERRES
    51   24  149 1    
    52   25   26 2    
    53   25   27 1    
    54   27   28 1    
    55   27   29 1    
    56   27  150 1    
    57   28  151 1    
    58   28  152 1    
    59   28  153 1    
    60   29   30 am   BACKBONE|DICT|INTERRES
    61   29  154 1    
    62   30   31 2    
    63   30   32 1    
    64   32   33 1    
    65   32   34 1    
    66   32  155 1    
    67   33  156 1    
    68   33  157 1    
    69   33  158 1    
    70   34   35 am   BACKBONE|DICT|INTERRES
    71   34  159 1    
    72   35   36 2    
    73   35   37 1    
    74   37   38 1    
    75   37   39 1    
    76   37  160 1    
    77   38  161 1    
    78   38  162 1    
    79   38  163 1    
    80   39   40 am   BACKBONE|DICT|INTERRES
    81   39  164 1    
    82   40   41 2    
    83   40   42 1    
    84   42   43 1    
    85   42   44 1    
    86   42  165 1    
    87   43  166 1    
    88   43  167 1    
    89   43  168 1    
    90   44   45 am   BACKBONE|DICT|INTERRES
    91   44  169 1    
    92   45   46 2    
    93   45   47 1    
    94   47   48 1    
    95   47   49 1    
    96   47  170 1    
    97   48  171 1    
    98   48  172 1    
    99   48  173 1    
   100   49   50 am   BACKBONE|DICT|INTERRES
   101   49  174 1    
   102   50   51 2    
   103   50   52 1    
   104   52   53 1    
   105   52   54 1    
   106   52  175 1    
   107   53  176 1    
   108   53  177 1    
   109   53  178 1    
   110   54   55 am   BACKBONE|DICT|INTERRES
   111   54  179 1    
   112   55   56 2    
   113   55   57 1    
   114   57   58 1    
   115   57   59 1    
   116   57  180 1    
   117   58  181 1    
   118   58  182 1    
   119   58  183 1    
   120   59   60 am   BACKBONE|DICT|INTERRES
   121   59  184 1    
   122   60   61 2    
   123   60   62 1    
   124   62   63 1    
   125   62   64 1    
   126   62  185 1    
   127   63  186 1    
   128   63  187 1    
   129   63  188 1    
   130   64   65 am   BACKBONE|DICT|INTERRES
   131   64  189 1    
   132   65   66 2    
   133   67   68 2    
   134   67   69 am   BACKBONE|DICT|INTERRES
   135   69   70 1    
   136   69  190 1    
   137   70   71 1    
   138   70   72 1    
   139   70  191 1    
   140   71  192 1    
   141   71  193 1    
   142   71  194 1    
   143   72   73 2    
   144   72   74 am   BACKBONE|DICT|INTERRES
   145   74   75 1    
   146   74  195 1    
   147   75   76 1    
   148   75   77 1    
   149   75  196 1    
   150   76  197 1    
   151   76  198 1    
   152   76  199 1    
   153   77   78 2    
   154   77   79 am   BACKBONE|DICT|INTERRES
   155   79   80 1    
   156   79  200 1    
   157   80   81 1    
   158   80   82 1    
   159   80  201 1    
   160   81  202 1    
   161   81  203 1    
   162   81  204 1    
   163   82   83 2    
   164   82   84 am   BACKBONE|DICT|INTERRES
   165   84   85 1    
   166   84  205 1    
   167   85   86 1    
   168   85   87 1    
   169   85  206 1    
   170   86  207 1    
   171   86  208 1    
   172   86  209 1    
   173   87   88 2    
   174   87   89 am   BACKBONE|DICT|INTERRES
   175   89   90 1    
   176   89  210 1    
   177   90   91 1    
   178   90   92 1    
   179   90  211 1    
   180   91  212 1    
   181   91  213 1    
   182   91  214 1    
   183   92   93 2    
   184   92   94 am   BACKBONE|DICT|INTERRES
   185   94   95 1    
   186   94  215 1    
   187   95   96 1    
   188   95   97 1    
   189   95  216 1    
   190   96  217 1    
   191   96  218 1    
   192   96  219 1    
   193   97   98 2    
   194   97   99 am   BACKBONE|DICT|INTERRES
   195   99  100 1    
   196   99  220 1    
   197  100  101 1    
   198  100  102 1    
   199  100  221 1    
   200  101  222 1    
   201  101  223 1    
   202  101  224 1    
   203  102  103 2    
   204  102  104 am   BACKBONE|DICT|INTERRES
   205  104  105 1    
   206  104  225 1    
   207  105  106 1    
   208  105  107 1    
   209  105  226 1    
   210  106  227 1    
   211  106  228 1    
   212  106  229 1    
   213  107  108 2    
   214  107  109 am   BACKBONE|DICT|INTERRES
   215  109  110 1    
   216  109  230 1    
   217  110  111 1    
   218  110  112 1    
   219  110  231 1    
   220  111  232 1    
   221  111  233 1    
   222  111  234 1    
   223  112  113 2    
   224  112  114 am   BACKBONE|DICT|INTERRES
   225  114  115 1    
   226  114  235 1    
   227  115  116 1    
   228  115  117 1    
   229  115  236 1    
   230  116  237 1    
   231  116  238 1    
   232  116  239 1    
   233  117  118 2    
   234  117  119 am   BACKBONE|DICT|INTERRES
   235  119  120 1    
   236  119  240 1    
   237  120  121 1    
   238  120  124 1    
   239  120  241 1    
   240  121  122 am   BACKBONE|DICT|INTERRES
   241  121  123 2    
   242  122  242 1    
   243  122  243 1    
   244  124  125 1    
   245  124  244 1    
   246  124  245 1    
   247  125  126 1    
   248  126  246 1    
   249  126  247 1    
@<TRIPOS>SUBSTRUCTURE
     1 UNK         1 GROUP             0       ****    0 ROOT    
