@<TRIPOS>MOLECULE
3R540
247   249    1
SMALL
USER_CHARGES


@<TRIPOS>ATOM
      1 CA          2.7511  -13.4435  -50.3089 C.3       0 UNK        -0.1800 
      2 C           1.7858  -14.2047  -49.4124 C.2       0 UNK         0.5000 
      3 O           2.1001  -14.4637  -48.2507 O.2       0 UNK        -0.5000 
      4 N           0.6051  -14.5543  -49.9388 N.am      1 UNK        -0.5000 
      5 CA         -0.4580  -15.3022  -49.2541 C.3       1 UNK         0.1400 
      6 C6         -1.3184  -16.1107  -50.2658 C.3       23 UNK        -0.0398 
      7 S7         -0.7201  -17.8225  -50.4546 S.3       23 UNK        -0.2404 
      8 C8          0.8261  -17.6157  -51.3904 C.3       23 UNK        -0.0205 
      9 C9          1.5093  -18.9603  -51.5699 C.ar      23 UNK        -0.0193 
     10 C10         1.3195  -19.6976  -52.7407 C.ar      23 UNK        -0.1150 
     11 C11         1.8967  -20.9620  -52.8783 C.ar      23 UNK        -0.0193 
     12 C12         2.6576  -21.4892  -51.8308 C.ar      23 UNK        -0.1150 
     13 C13         2.8575  -20.7673  -50.6494 C.ar      23 UNK        -0.0193 
     14 C14         2.2999  -19.4853  -50.5425 C.ar      23 UNK        -0.1150 
     15 C15         3.6666  -21.4317  -49.5283 C.3       23 UNK        -0.0205 
     16 S16         3.6031  -20.6521  -47.8721 S.3       23 UNK        -0.2404 
     17 C17         1.8272  -20.7417  -47.4664 C.3       23 UNK        -0.0398 
     18 CA          1.4044  -21.9909  -46.6501 C.3       11 UNK         0.1400 
     19 N           2.0985  -22.0860  -45.3613 N.am      11 UNK        -0.5000 
     20 C           2.5846  -23.2139  -44.8276 C.2       10 UNK         0.5000 
     21 O           2.5467  -24.3016  -45.4043 O.2       10 UNK        -0.5000 
     22 CA          3.1334  -23.1385  -43.3877 C.3       10 UNK         0.1400 
     23 CB          4.2464  -24.1708  -43.1075 C.3       10 UNK        -0.1800 
     24 N           3.5208  -21.7902  -42.9623 N.am      10 UNK        -0.5000 
     25 C           4.5849  -21.0707  -43.3520 C.2       9 UNK         0.5000 
     26 O           5.4146  -21.4688  -44.1702 O.2       9 UNK        -0.5000 
     27 CA          4.7669  -19.6710  -42.7208 C.3       9 UNK         0.1400 
     28 CB          4.9565  -18.5928  -43.8015 C.3       9 UNK        -0.1800 
     29 N           3.6526  -19.2831  -41.8514 N.am      9 UNK        -0.5000 
     30 C           3.5185  -19.6182  -40.5606 C.2       8 UNK         0.5000 
     31 O           4.3732  -20.2354  -39.9249 O.2       8 UNK        -0.5000 
     32 CA          2.1887  -19.2407  -39.8735 C.3       8 UNK         0.1400 
     33 CB          2.3272  -17.9070  -39.1246 C.3       8 UNK        -0.1800 
     34 N           1.0537  -19.1615  -40.7989 N.am      8 UNK        -0.5000 
     35 C           0.5538  -20.1971  -41.4890 C.2       7 UNK         0.5000 
     36 O           0.9637  -21.3523  -41.3781 O.2       7 UNK        -0.5000 
     37 CA         -0.5194  -19.8775  -42.5461 C.3       7 UNK         0.1400 
     38 CB         -1.9153  -19.7685  -41.9189 C.3       7 UNK        -0.1800 
     39 N          -0.2133  -18.6651  -43.3057 N.am      7 UNK        -0.5000 
     40 C           0.8626  -18.5281  -44.0926 C.2       6 UNK         0.5000 
     41 O           1.6541  -19.4425  -44.3180 O.2       6 UNK        -0.5000 
     42 CA          1.1410  -17.1313  -44.6679 C.3       6 UNK         0.1400 
     43 CB          0.3935  -16.8993  -45.9824 C.3       6 UNK        -0.1800 
     44 N           0.7937  -16.0762  -43.7196 N.am      6 UNK        -0.5000 
     45 C           1.5475  -15.7370  -42.6660 C.2       5 UNK         0.5000 
     46 O           2.6473  -16.2336  -42.4256 O.2       5 UNK        -0.5000 
     47 CA          0.9536  -14.6993  -41.6967 C.3       5 UNK         0.1400 
     48 CB          1.3461  -13.2742  -42.1120 C.3       5 UNK        -0.1800 
     49 N          -0.5042  -14.8029  -41.5988 N.am      5 UNK        -0.5000 
     50 C          -1.1331  -15.8127  -40.9797 C.2       4 UNK         0.5000 
     51 O          -0.5427  -16.7365  -40.4205 O.2       4 UNK        -0.5000 
     52 CA         -2.6729  -15.8239  -41.0201 C.3       4 UNK         0.1400 
     53 CB         -3.2455  -15.0673  -39.8128 C.3       4 UNK        -0.1800 
     54 N          -3.2447  -15.2708  -42.2485 N.am      4 UNK        -0.5000 
     55 C          -3.0281  -15.7343  -43.4869 C.2       3 UNK         0.5000 
     56 O          -2.2816  -16.6819  -43.7348 O.2       3 UNK        -0.5000 
     57 CA         -3.7365  -15.0057  -44.6501 C.3       3 UNK         0.1400 
     58 CB         -4.8321  -14.0173  -44.1931 C.3       3 UNK        -0.1800 
     59 N          -2.8017  -14.3186  -45.5475 N.am      3 UNK        -0.5000 
     60 C          -1.8266  -13.4600  -45.2167 C.2       2 UNK         0.5000 
     61 O          -1.5152  -13.1962  -44.0532 O.2       2 UNK        -0.5000 
     62 CA         -1.0829  -12.7822  -46.3896 C.3       2 UNK         0.1400 
     63 CB          0.0917  -11.9049  -45.9202 C.3       2 UNK        -0.1800 
     64 N          -0.5735  -13.7343  -47.3768 N.am      2 UNK        -0.5000 
     65 C          -1.2731  -14.3729  -48.3222 C.2       1 UNK         0.5000 
     66 O          -2.4902  -14.2421  -48.4595 O.2       1 UNK        -0.5000 
     67 C          -0.1286  -22.0022  -46.4428 C.2       11 UNK         0.5000 
     68 O          -0.8478  -21.4544  -47.2752 O.2       11 UNK        -0.5000 
     69 N          -0.6215  -22.5921  -45.3424 N.am      12 UNK        -0.5000 
     70 CA         -2.0177  -22.5276  -44.8894 C.3       12 UNK         0.1400 
     71 CB         -2.1696  -23.3466  -43.5990 C.3       12 UNK        -0.1800 
     72 C          -3.0680  -22.9536  -45.9328 C.2       12 UNK         0.5000 
     73 O          -4.0979  -22.2907  -46.0581 O.2       12 UNK        -0.5000 
     74 N          -2.7710  -24.0181  -46.6903 N.am      13 UNK        -0.5000 
     75 CA         -3.6259  -24.5234  -47.7676 C.3       13 UNK         0.1400 
     76 CB         -3.1075  -25.8949  -48.2255 C.3       13 UNK        -0.1800 
     77 C          -3.7256  -23.5565  -48.9629 C.2       13 UNK         0.5000 
     78 O          -4.7928  -23.4438  -49.5662 O.2       13 UNK        -0.5000 
     79 N          -2.6209  -22.8623  -49.2675 N.am      14 UNK        -0.5000 
     80 CA         -2.5599  -21.8344  -50.3026 C.3       14 UNK         0.1400 
     81 CB         -1.1044  -21.6124  -50.7335 C.3       14 UNK        -0.1800 
     82 C          -3.1956  -20.5239  -49.8198 C.2       14 UNK         0.5000 
     83 O          -3.9376  -19.9016  -50.5763 O.2       14 UNK        -0.5000 
     84 N          -2.9294  -20.1482  -48.5621 N.am      15 UNK        -0.5000 
     85 CA         -3.4539  -18.9533  -47.9035 C.3       15 UNK         0.1400 
     86 CB         -2.8172  -18.8158  -46.5134 C.3       15 UNK        -0.1800 
     87 C          -4.9882  -18.9586  -47.8081 C.2       15 UNK         0.5000 
     88 O          -5.6168  -17.9454  -48.1133 O.2       15 UNK        -0.5000 
     89 N          -5.5642  -20.1172  -47.4555 N.am      16 UNK        -0.5000 
     90 CA         -7.0093  -20.3577  -47.4222 C.3       16 UNK         0.1400 
     91 CB         -7.2740  -21.7320  -46.7893 C.3       16 UNK        -0.1800 
     92 C          -7.6804  -20.2682  -48.8079 C.2       16 UNK         0.5000 
     93 O          -8.8519  -19.8984  -48.8915 O.2       16 UNK        -0.5000 
     94 N          -6.9245  -20.5898  -49.8653 N.am      17 UNK        -0.5000 
     95 CA         -7.3496  -20.5033  -51.2620 C.3       17 UNK         0.1400 
     96 CB         -6.6438  -21.6176  -52.0534 C.3       17 UNK        -0.1800 
     97 C          -7.0562  -19.1282  -51.8953 C.2       17 UNK         0.5000 
     98 O          -7.4071  -18.9260  -53.0567 O.2       17 UNK        -0.5000 
     99 N          -6.3865  -18.2256  -51.1608 N.am      18 UNK        -0.5000 
    100 CA        -5.8619  -16.9324  -51.6172 C.3       18 UNK         0.1400 
    101 CB        -7.0115  -15.9458  -51.9078 C.3       18 UNK        -0.1800 
    102 C         -4.8742  -17.0858  -52.7967 C.2       18 UNK         0.5000 
    103 O         -4.9568  -16.3508  -53.7814 O.2       18 UNK        -0.5000 
    104 N         -3.9824  -18.0787  -52.6706 N.am      19 UNK        -0.5000 
    105 CA        -2.9542  -18.5365  -53.6111 C.3       19 UNK         0.1400 
    106 CB        -2.0392  -17.3866  -54.0764 C.3       19 UNK        -0.1800 
    107 C         -3.4881  -19.3417  -54.8113 C.2       19 UNK         0.5000 
    108 O         -2.6758  -19.8988  -55.5498 O.2       19 UNK        -0.5000 
    109 N         -4.8139  -19.4450  -54.9920 N.am      20 UNK        -0.5000 
    110 CA        -5.4489  -20.0961  -56.1479 C.3       20 UNK         0.1400 
    111 CB        -6.9606  -19.8277  -56.1189 C.3       20 UNK        -0.1800 
    112 C         -5.1758  -21.6102  -56.2706 C.2       20 UNK         0.5000 
    113 O         -5.3783  -22.1764  -57.3455 O.2       20 UNK        -0.5000 
    114 N         -4.7114  -22.2341  -55.1805 N.am      21 UNK        -0.5000 
    115 CA        -4.3024  -23.6356  -55.1227 C.3       21 UNK         0.1400 
    116 CB        -4.1636  -24.0471  -53.6480 C.3       21 UNK        -0.1800 
    117 C         -2.9913  -23.9365  -55.8784 C.2       21 UNK         0.5000 
    118 O         -2.7635  -25.0981  -56.2210 O.2       21 UNK        -0.5000 
    119 N         -2.1432  -22.9226  -56.1032 N.am      22 UNK        -0.5000 
    120 CA        -0.7845  -23.1046  -56.6456 C.3       22 UNK         0.1400 
    121 C         -0.1848  -21.8834  -57.3977 C.2       22 UNK         0.5000 
    122 N         -0.7642  -20.6923  -57.3496 N.am      22 UNK        -0.7600 
    123 O          0.8305  -22.0271  -58.0738 O.2       22 UNK        -0.5000 
    124 C124        0.2021  -23.6924  -55.5964 C.3       23 UNK        -0.0398 
    125 S125        0.1972  -22.8113  -53.9950 S.3       23 UNK        -0.2404 
    126 C126        1.6776  -21.7700  -54.1466 C.3       23 UNK        -0.0205 
    127 H127        2.3404  -13.2865  -51.3066 H         1 UNK         0.0600 
    128 H128        2.9759  -12.4690  -49.8755 H         1 UNK         0.0600 
    129 H129        3.6846  -13.9973  -50.4087 H         1 UNK         0.0600 
    130 H130        0.3938  -14.2687  -50.8841 H         1 UNK         0.3000 
    131 H131        0.0175  -16.0226  -48.5890 H         1 UNK         0.0600 
    132 H132       -1.3650  -15.6179  -51.2371 H         1 UNK         0.0800 
    133 H133       -2.3550  -16.2090  -49.9413 H         1 UNK         0.0800 
    134 H134        1.4977  -16.9425  -50.8584 H         1 UNK         0.0800 
    135 H135        0.6175  -17.1556  -52.3570 H         1 UNK         0.0800 
    136 H136        0.7042  -19.2993  -53.5352 H         1 UNK         0.1150 
    137 H137        3.0842  -22.4775  -51.9318 H         1 UNK         0.1150 
    138 H138        2.4390  -18.9003  -49.6454 H         1 UNK         0.1150 
    139 H139        3.3404  -22.4673  -49.4209 H         1 UNK         0.0800 
    140 H140        4.7106  -21.4714  -49.8413 H         1 UNK         0.0800 
    141 H141        1.2623  -20.6933  -48.3962 H         1 UNK         0.0800 
    142 H142        1.5719  -19.8326  -46.9235 H         1 UNK         0.0800 
    143 H143        1.6343  -22.8662  -47.2603 H         1 UNK         0.0600 
    144 H144        2.1413  -21.2212  -44.8274 H         1 UNK         0.3000 
    145 H145        2.2911  -23.4054  -42.7482 H         1 UNK         0.0600 
    146 H146        4.6135  -24.0882  -42.0845 H         1 UNK         0.0600 
    147 H147        3.8758  -25.1884  -43.2356 H         1 UNK         0.0600 
    148 H148        5.0945  -24.0494  -43.7814 H         1 UNK         0.0600 
    149 H149        2.8799  -21.3595  -42.3066 H         1 UNK         0.3000 
    150 H150        5.6809  -19.7062  -42.1247 H         1 UNK         0.0600 
    151 H151        5.8613  -18.7770  -44.3818 H         1 UNK         0.0600 
    152 H152        5.0518  -17.6007  -43.3599 H         1 UNK         0.0600 
    153 H153        4.1230  -18.5702  -44.5025 H         1 UNK         0.0600 
    154 H154        2.9050  -18.7662  -42.2937 H         1 UNK         0.3000 
    155 H155        1.9664  -20.0198  -39.1416 H         1 UNK         0.0600 
    156 H156        2.5284  -17.0815  -39.8075 H         1 UNK         0.0600 
    157 H157        3.1459  -17.9452  -38.4050 H         1 UNK         0.0600 
    158 H158        1.4188  -17.6694  -38.5708 H         1 UNK         0.0600 
    159 H159        0.6148  -18.2508  -40.8988 H         1 UNK         0.3000 
    160 H160       -0.5270  -20.7063  -43.2525 H         1 UNK         0.0600 
    161 H161       -2.6716  -19.5484  -42.6729 H         1 UNK         0.0600 
    162 H162       -1.9559  -18.9859  -41.1623 H         1 UNK         0.0600 
    163 H163       -2.1978  -20.7046  -41.4360 H         1 UNK         0.0600 
    164 H164       -0.8655  -17.8898  -43.2294 H         1 UNK         0.3000 
    165 H165        2.2100  -17.0728  -44.8831 H         1 UNK         0.0600 
    166 H166        0.7389  -15.9725  -46.4345 H         1 UNK         0.0600 
    167 H167        0.5797  -17.7004  -46.6978 H         1 UNK         0.0600 
    168 H168       -0.6832  -16.8214  -45.8369 H         1 UNK         0.0600 
    169 H169       -0.1244  -15.6632  -43.8102 H         1 UNK         0.3000 
    170 H170        1.3777  -14.8888  -40.7082 H         1 UNK         0.0600 
    171 H171        2.4306  -13.1622  -42.1405 H         1 UNK         0.0600 
    172 H172        0.9658  -13.0224  -43.1012 H         1 UNK         0.0600 
    173 H173        0.9610  -12.5374  -41.4071 H         1 UNK         0.0600 
    174 H174       -1.0489  -14.1098  -42.0995 H         1 UNK         0.3000 
    175 H175       -2.9955  -16.8640  -40.9510 H         1 UNK         0.0600 
    176 H176       -4.3319  -15.1491  -39.7740 H         1 UNK         0.0600 
    177 H177       -2.8572  -15.4729  -38.8775 H         1 UNK         0.0600 
    178 H178       -2.9883  -14.0077  -39.8432 H         1 UNK         0.0600 
    179 H179       -3.8457  -14.4670  -42.1409 H         1 UNK         0.3000 
    180 H180       -4.2210  -15.7830  -45.2424 H         1 UNK         0.0600 
    181 H181       -4.4204  -13.1747  -43.6361 H         1 UNK         0.0600 
    182 H182       -5.5737  -14.5097  -43.5625 H         1 UNK         0.0600 
    183 H183       -5.3669  -13.6102  -45.0514 H         1 UNK         0.0600 
    184 H184       -2.9502  -14.4712  -46.5400 H         1 UNK         0.3000 
    185 H185       -1.8058  -12.1289  -46.8823 H         1 UNK         0.0600 
    186 H186        0.8749  -12.5018  -45.4519 H         1 UNK         0.0600 
    187 H187        0.5387  -11.3674  -46.7566 H         1 UNK         0.0600 
    188 H188       -0.2354  -11.1580  -45.1956 H         1 UNK         0.0600 
    189 H189        0.4277  -13.9046  -47.3580 H         1 UNK         0.3000 
    190 H190        0.0313  -23.0449  -44.7211 H         1 UNK         0.3000 
    191 H191       -2.2262  -21.4840  -44.6496 H         1 UNK         0.0600 
    192 H192       -1.5086  -22.9794  -42.8138 H         1 UNK         0.0600 
    193 H193       -1.9413  -24.4004  -43.7627 H         1 UNK         0.0600 
    194 H194       -3.1895  -23.2868  -43.2163 H         1 UNK         0.0600 
    195 H195       -1.8985  -24.4994  -46.5296 H         1 UNK         0.3000 
    196 H196       -4.6331  -24.6561  -47.3665 H         1 UNK         0.0600 
    197 H197       -3.7375  -26.3059  -49.0155 H         1 UNK         0.0600 
    198 H198       -3.1093  -26.6116  -47.4041 H         1 UNK         0.0600 
    199 H199       -2.0909  -25.8323  -48.6156 H         1 UNK         0.0600 
    200 H200       -1.8112  -22.9483  -48.6692 H         1 UNK         0.3000 
    201 H201       -3.1201  -22.1790  -51.1734 H         1 UNK         0.0600 
    202 H202       -0.6364  -22.5443  -51.0497 H         1 UNK         0.0600 
    203 H203       -0.4990  -21.1890  -49.9328 H         1 UNK         0.0600 
    204 H204       -1.0542  -20.9217  -51.5755 H         1 UNK         0.0600 
    205 H205       -2.2595  -20.7007  -48.0297 H         1 UNK         0.3000 
    206 H206       -3.1571  -18.0911  -48.5028 H         1 UNK         0.0600 
    207 H207       -1.7301  -18.8555  -46.5717 H         1 UNK         0.0600 
    208 H208       -3.0878  -17.8648  -46.0560 H         1 UNK         0.0600 
    209 H209       -3.1414  -19.6080  -45.8391 H         1 UNK         0.0600 
    210 H210       -4.9708  -20.8941  -47.1782 H         1 UNK         0.3000 
    211 H211       -7.4618  -19.5937  -46.7868 H         1 UNK         0.0600 
    212 H212       -6.8048  -22.5335  -47.3619 H         1 UNK         0.0600 
    213 H213       -8.3430  -21.9430  -46.7401 H         1 UNK         0.0600 
    214 H214       -6.8868  -21.7779  -45.7713 H         1 UNK         0.0600 
    215 H215       -5.9661  -20.8711  -49.7082 H         1 UNK         0.3000 
    216 H216       -8.4264  -20.6708  -51.3283 H         1 UNK         0.0600 
    217 H217       -6.9795  -21.6387  -53.0908 H         1 UNK         0.0600 
    218 H218       -6.8549  -22.5979  -51.6257 H         1 UNK         0.0600 
    219 H219       -5.5619  -21.4843  -52.0606 H         1 UNK         0.0600 
    220 H220       -6.1290  -18.4862  -50.2171 H         1 UNK         0.3000 
    221 H221       -5.2826  -16.5280  -50.7857 H         1 UNK         0.0600 
    222 H222       -7.6113  -16.2594  -52.7626 H         1 UNK         0.0600 
    223 H223       -7.6754  -15.8520  -51.0485 H         1 UNK         0.0600 
    224 H224       -6.6243  -14.9505  -52.1284 H         1 UNK         0.0600 
    225 H225       -4.0439  -18.6502  -51.8275 H         1 UNK         0.3000 
    226 H226       -2.3347  -19.2291  -53.0393 H         1 UNK         0.0600 
    227 H227       -1.6835  -16.7958  -53.2352 H         1 UNK         0.0600 
    228 H228       -2.5483  -16.7140  -54.7668 H         1 UNK         0.0600 
    229 H229       -1.1614  -17.7753  -54.5938 H         1 UNK         0.0600 
    230 H230       -5.4331  -18.9785  -54.3415 H         1 UNK         0.3000 
    231 H231       -5.0422  -19.6259  -57.0455 H         1 UNK         0.0600 
    232 H232       -7.1747  -18.7623  -56.0310 H         1 UNK         0.0600 
    233 H233       -7.4426  -20.3391  -55.2855 H         1 UNK         0.0600 
    234 H234       -7.4366  -20.1804  -57.0346 H         1 UNK         0.0600 
    235 H235       -4.5733  -21.6843  -54.3467 H         1 UNK         0.3000 
    236 H236       -5.0909  -24.2406  -55.5751 H         1 UNK         0.0600 
    237 H237       -3.9014  -25.1022  -53.5599 H         1 UNK         0.0600 
    238 H238       -3.3831  -23.4753  -53.1453 H         1 UNK         0.0600 
    239 H239       -5.0961  -23.9015  -53.1031 H         1 UNK         0.0600 
    240 H240       -2.3901  -21.9867  -55.8074 H         1 UNK         0.3000 
    241 H241       -0.8708  -23.8499  -57.4388 H         1 UNK         0.0600 
    242 H242       -0.3489  -19.9365  -57.8695 H         1 UNK         0.3800 
    243 H243       -1.5537  -20.4883  -56.7393 H         1 UNK         0.3800 
    244 H244       -0.0757  -24.7264  -55.3892 H         1 UNK         0.0800 
    245 H245        1.2183  -23.7474  -55.9907 H         1 UNK         0.0800 
    246 H246        1.5698  -21.1024  -55.0028 H         1 UNK         0.0800 
    247 H247        2.5484  -22.3962  -54.3463 H         1 UNK         0.0800 
@<TRIPOS>BOND
     1    1    2 1    
     2    1  127 1    
     3    1  128 1    
     4    1  129 1    
     5    2    3 2    
     6    2    4 am   BACKBONE|DICT|INTERRES
     7    4    5 1    
     8    4  130 1    
     9    5    6 1    
    10    5   65 1    
    11    5  131 1    
    12    6    7 1    
    13    6  132 1    
    14    6  133 1    
    15    7    8 1    
    16    8    9 1    
    17    8  134 1    
    18    8  135 1    
    19    9   10 ar   
    20    9   14 ar   
    21   10   11 ar   
    22   10  136 1    
    23   11   12 ar   
    24   11  126 1    
    25   12   13 ar   
    26   12  137 1    
    27   13   14 ar   
    28   13   15 1    
    29   14  138 1    
    30   15   16 1    
    31   15  139 1    
    32   15  140 1    
    33   16   17 1    
    34   17   18 1    
    35   17  141 1    
    36   17  142 1    
    37   18   19 1    
    38   18   67 1    
    39   18  143 1    
    40   19   20 am   BACKBONE|DICT|INTERRES
    41   19  144 1    
    42   20   21 2    
    43   20   22 1    
    44   22   23 1    
    45   22   24 1    
    46   22  145 1    
    47   23  146 1    
    48   23  147 1    
    49   23  148 1    
    50   24   25 am   BACKBONE|DICT|INTERRES
    51   24  149 1    
    52   25   26 2    
    53   25   27 1    
    54   27   28 1    
    55   27   29 1    
    56   27  150 1    
    57   28  151 1    
    58   28  152 1    
    59   28  153 1    
    60   29   30 am   BACKBONE|DICT|INTERRES
    61   29  154 1    
    62   30   31 2    
    63   30   32 1    
    64   32   33 1    
    65   32   34 1    
    66   32  155 1    
    67   33  156 1    
    68   33  157 1    
    69   33  158 1    
    70   34   35 am   BACKBONE|DICT|INTERRES
    71   34  159 1    
    72   35   36 2    
    73   35   37 1    
    74   37   38 1    
    75   37   39 1    
    76   37  160 1    
    77   38  161 1    
    78   38  162 1    
    79   38  163 1    
    80   39   40 am   BACKBONE|DICT|INTERRES
    81   39  164 1    
    82   40   41 2    
    83   40   42 1    
    84   42   43 1    
    85   42   44 1    
    86   42  165 1    
    87   43  166 1    
    88   43  167 1    
    89   43  168 1    
    90   44   45 am   BACKBONE|DICT|INTERRES
    91   44  169 1    
    92   45   46 2    
    93   45   47 1    
    94   47   48 1    
    95   47   49 1    
    96   47  170 1    
    97   48  171 1    
    98   48  172 1    
    99   48  173 1    
   100   49   50 am   BACKBONE|DICT|INTERRES
   101   49  174 1    
   102   50   51 2    
   103   50   52 1    
   104   52   53 1    
   105   52   54 1    
   106   52  175 1    
   107   53  176 1    
   108   53  177 1    
   109   53  178 1    
   110   54   55 am   BACKBONE|DICT|INTERRES
   111   54  179 1    
   112   55   56 2    
   113   55   57 1    
   114   57   58 1    
   115   57   59 1    
   116   57  180 1    
   117   58  181 1    
   118   58  182 1    
   119   58  183 1    
   120   59   60 am   BACKBONE|DICT|INTERRES
   121   59  184 1    
   122   60   61 2    
   123   60   62 1    
   124   62   63 1    
   125   62   64 1    
   126   62  185 1    
   127   63  186 1    
   128   63  187 1    
   129   63  188 1    
   130   64   65 am   BACKBONE|DICT|INTERRES
   131   64  189 1    
   132   65   66 2    
   133   67   68 2    
   134   67   69 am   BACKBONE|DICT|INTERRES
   135   69   70 1    
   136   69  190 1    
   137   70   71 1    
   138   70   72 1    
   139   70  191 1    
   140   71  192 1    
   141   71  193 1    
   142   71  194 1    
   143   72   73 2    
   144   72   74 am   BACKBONE|DICT|INTERRES
   145   74   75 1    
   146   74  195 1    
   147   75   76 1    
   148   75   77 1    
   149   75  196 1    
   150   76  197 1    
   151   76  198 1    
   152   76  199 1    
   153   77   78 2    
   154   77   79 am   BACKBONE|DICT|INTERRES
   155   79   80 1    
   156   79  200 1    
   157   80   81 1    
   158   80   82 1    
   159   80  201 1    
   160   81  202 1    
   161   81  203 1    
   162   81  204 1    
   163   82   83 2    
   164   82   84 am   BACKBONE|DICT|INTERRES
   165   84   85 1    
   166   84  205 1    
   167   85   86 1    
   168   85   87 1    
   169   85  206 1    
   170   86  207 1    
   171   86  208 1    
   172   86  209 1    
   173   87   88 2    
   174   87   89 am   BACKBONE|DICT|INTERRES
   175   89   90 1    
   176   89  210 1    
   177   90   91 1    
   178   90   92 1    
   179   90  211 1    
   180   91  212 1    
   181   91  213 1    
   182   91  214 1    
   183   92   93 2    
   184   92   94 am   BACKBONE|DICT|INTERRES
   185   94   95 1    
   186   94  215 1    
   187   95   96 1    
   188   95   97 1    
   189   95  216 1    
   190   96  217 1    
   191   96  218 1    
   192   96  219 1    
   193   97   98 2    
   194   97   99 am   BACKBONE|DICT|INTERRES
   195   99  100 1    
   196   99  220 1    
   197  100  101 1    
   198  100  102 1    
   199  100  221 1    
   200  101  222 1    
   201  101  223 1    
   202  101  224 1    
   203  102  103 2    
   204  102  104 am   BACKBONE|DICT|INTERRES
   205  104  105 1    
   206  104  225 1    
   207  105  106 1    
   208  105  107 1    
   209  105  226 1    
   210  106  227 1    
   211  106  228 1    
   212  106  229 1    
   213  107  108 2    
   214  107  109 am   BACKBONE|DICT|INTERRES
   215  109  110 1    
   216  109  230 1    
   217  110  111 1    
   218  110  112 1    
   219  110  231 1    
   220  111  232 1    
   221  111  233 1    
   222  111  234 1    
   223  112  113 2    
   224  112  114 am   BACKBONE|DICT|INTERRES
   225  114  115 1    
   226  114  235 1    
   227  115  116 1    
   228  115  117 1    
   229  115  236 1    
   230  116  237 1    
   231  116  238 1    
   232  116  239 1    
   233  117  118 2    
   234  117  119 am   BACKBONE|DICT|INTERRES
   235  119  120 1    
   236  119  240 1    
   237  120  121 1    
   238  120  124 1    
   239  120  241 1    
   240  121  122 am   BACKBONE|DICT|INTERRES
   241  121  123 2    
   242  122  242 1    
   243  122  243 1    
   244  124  125 1    
   245  124  244 1    
   246  124  245 1    
   247  125  126 1    
   248  126  246 1    
   249  126  247 1    
@<TRIPOS>SUBSTRUCTURE
     1 UNK         1 GROUP             0       ****    0 ROOT    
