@<TRIPOS>MOLECULE
3R540
247   249    1
SMALL
USER_CHARGES


@<TRIPOS>ATOM
      1 CA          5.0283  -17.7182  -46.8965 C.3       0 UNK        -0.1800 
      2 C           3.8882  -16.7132  -46.8296 C.2       0 UNK         0.5000 
      3 O           3.6437  -16.1357  -45.7712 O.2       0 UNK        -0.5000 
      4 N           3.1832  -16.5045  -47.9501 N.am      1 UNK        -0.5000 
      5 CA          2.0464  -15.5858  -48.0681 C.3       1 UNK         0.1400 
      6 C6          1.3629  -15.6887  -49.4546 C.3       23 UNK        -0.0398 
      7 S7         -0.3832  -15.1614  -49.3959 S.3       23 UNK        -0.2404 
      8 C8         -1.2313  -16.7711  -49.3984 C.3       23 UNK        -0.0205 
      9 C9         -2.7141  -16.6187  -49.1050 C.ar      23 UNK        -0.0193 
     10 C10        -3.6585  -16.6818  -50.1336 C.ar      23 UNK        -0.1150 
     11 C11        -5.0203  -16.5348  -49.8523 C.ar      23 UNK        -0.0193 
     12 C12        -5.4324  -16.3355  -48.5309 C.ar      23 UNK        -0.1150 
     13 C13        -4.5003  -16.2659  -47.4908 C.ar      23 UNK        -0.0193 
     14 C14        -3.1396  -16.4078  -47.7913 C.ar      23 UNK        -0.1150 
     15 C15        -4.9946  -15.9706  -46.0742 C.3       23 UNK        -0.0205 
     16 S16        -3.8927  -16.5398  -44.7348 S.3       23 UNK        -0.2404 
     17 C17        -4.3706  -18.2872  -44.5496 C.3       23 UNK        -0.0398 
     18 CA         -3.6972  -19.2622  -45.5490 C.3       11 UNK         0.1400 
     19 N          -2.2299  -19.2789  -45.4804 N.am      11 UNK        -0.5000 
     20 C          -1.4426  -19.9244  -46.3552 C.2       10 UNK         0.5000 
     21 O          -1.8678  -20.4816  -47.3662 O.2       10 UNK        -0.5000 
     22 CA          0.0617  -20.0230  -46.0367 C.3       10 UNK         0.1400 
     23 CB          0.8287  -18.8036  -46.5619 C.3       10 UNK        -0.1800 
     24 N           0.3328  -20.2035  -44.6115 N.am      10 UNK        -0.5000 
     25 C          -0.0160  -21.2897  -43.9083 C.2       9 UNK         0.5000 
     26 O          -0.5736  -22.2693  -44.4001 O.2       9 UNK        -0.5000 
     27 CA          0.2539  -21.2579  -42.3944 C.3       9 UNK         0.1400 
     28 CB          1.7023  -21.6614  -42.0800 C.3       9 UNK        -0.1800 
     29 N          -0.0325  -19.9458  -41.8172 N.am      9 UNK        -0.5000 
     30 C          -1.2604  -19.4163  -41.7226 C.2       8 UNK         0.5000 
     31 O          -2.2895  -20.0048  -42.0589 O.2       8 UNK        -0.5000 
     32 CA         -1.3395  -17.9629  -41.2202 C.3       8 UNK         0.1400 
     33 CB         -1.2818  -17.9118  -39.6865 C.3       8 UNK        -0.1800 
     34 N          -0.2798  -17.1166  -41.7734 N.am      8 UNK        -0.5000 
     35 C          -0.1393  -16.8400  -43.0777 C.2       7 UNK         0.5000 
     36 O          -0.8877  -17.2695  -43.9501 O.2       7 UNK        -0.5000 
     37 CA          1.0770  -15.9973  -43.4883 C.3       7 UNK         0.1400 
     38 CB          0.7766  -14.5015  -43.3280 C.3       7 UNK        -0.1800 
     39 N           2.2838  -16.3486  -42.7410 N.am      7 UNK        -0.5000 
     40 C           2.8754  -17.5532  -42.7905 C.2       6 UNK         0.5000 
     41 O           2.4380  -18.4958  -43.4513 O.2       6 UNK        -0.5000 
     42 CA          4.1469  -17.7654  -41.9479 C.3       6 UNK         0.1400 
     43 CB          5.3899  -17.7966  -42.8481 C.3       6 UNK        -0.1800 
     44 N           4.3227  -16.7552  -40.9026 N.am      6 UNK        -0.5000 
     45 C           3.5849  -16.6997  -39.7836 C.2       5 UNK         0.5000 
     46 O           2.7028  -17.5158  -39.5127 O.2       5 UNK        -0.5000 
     47 CA          3.8472  -15.5276  -38.8163 C.3       5 UNK         0.1400 
     48 CB          4.7841  -15.9691  -37.6820 C.3       5 UNK        -0.1800 
     49 N           4.4028  -14.3298  -39.4525 N.am      5 UNK        -0.5000 
     50 C           3.7946  -13.6028  -40.3996 C.2       4 UNK         0.5000 
     51 O           2.6915  -13.8885  -40.8652 O.2       4 UNK        -0.5000 
     52 CA          4.5376  -12.3632  -40.9421 C.3       4 UNK         0.1400 
     53 CB          5.8568  -12.0401  -40.2044 C.3       4 UNK        -0.1800 
     54 N           4.7752  -12.4588  -42.3855 N.am      4 UNK        -0.5000 
     55 C           5.4257  -13.4337  -43.0359 C.2       3 UNK         0.5000 
     56 O           5.9036  -14.4259  -42.4816 O.2       3 UNK        -0.5000 
     57 CA          5.5452  -13.2560  -44.5623 C.3       3 UNK         0.1400 
     58 CB          6.4208  -14.3329  -45.2264 C.3       3 UNK        -0.1800 
     59 N           4.2255  -13.2402  -45.1983 N.am      3 UNK        -0.5000 
     60 C           3.4667  -12.1442  -45.3504 C.2       2 UNK         0.5000 
     61 O           3.8038  -11.0419  -44.9142 O.2       2 UNK        -0.5000 
     62 CA          2.0965  -12.2794  -46.0558 C.3       2 UNK         0.1400 
     63 CB          1.8447  -11.1356  -47.0605 C.3       2 UNK        -0.1800 
     64 N           1.8423  -13.5886  -46.6697 N.am      2 UNK        -0.5000 
     65 C           2.4621  -14.1384  -47.7240 C.2       1 UNK         0.5000 
     66 O           3.3473  -13.5872  -48.3813 O.2       1 UNK        -0.5000 
     67 C          -4.2828  -20.6747  -45.3501 C.2       11 UNK         0.5000 
     68 O          -5.1597  -21.0767  -46.1143 O.2       11 UNK        -0.5000 
     69 N          -3.7809  -21.4034  -44.3408 N.am      12 UNK        -0.5000 
     70 CA         -4.2098  -22.7635  -44.0037 C.3       12 UNK         0.1400 
     71 CB         -3.5903  -23.1797  -42.6610 C.3       12 UNK        -0.1800 
     72 C          -3.8818  -23.7914  -45.1033 C.2       12 UNK         0.5000 
     73 O          -4.7151  -24.6462  -45.4054 O.2       12 UNK        -0.5000 
     74 N          -2.6881  -23.6718  -45.6989 N.am      13 UNK        -0.5000 
     75 CA         -2.2339  -24.4786  -46.8333 C.3       13 UNK         0.1400 
     76 CB         -0.7107  -24.3262  -46.9680 C.3       13 UNK        -0.1800 
     77 C          -2.9192  -24.1065  -48.1632 C.2       13 UNK         0.5000 
     78 O          -2.9180  -24.9237  -49.0844 O.2       13 UNK        -0.5000 
     79 N          -3.4714  -22.8859  -48.2331 N.am      14 UNK        -0.5000 
     80 CA         -4.0179  -22.2126  -49.4119 C.3       14 UNK         0.1400 
     81 CB         -5.2709  -22.9354  -49.9466 C.3       14 UNK        -0.1800 
     82 C          -2.9223  -21.9898  -50.4715 C.2       14 UNK         0.5000 
     83 O          -3.0286  -22.4708  -51.5986 O.2       14 UNK        -0.5000 
     84 N          -1.8633  -21.2789  -50.0604 N.am      15 UNK        -0.5000 
     85 CA         -0.6719  -20.9415  -50.8430 C.3       15 UNK         0.1400 
     86 CB         -1.0463  -19.9431  -51.9630 C.3       15 UNK        -0.1800 
     87 C           0.0688  -22.1980  -51.3597 C.2       15 UNK         0.5000 
     88 O           0.0444  -23.2403  -50.7006 O.2       15 UNK        -0.5000 
     89 N           0.7279  -22.0782  -52.5191 N.am      16 UNK        -0.5000 
     90 CA          1.3766  -23.1910  -53.2163 C.3       16 UNK         0.1400 
     91 CB          2.5984  -22.6527  -53.9783 C.3       16 UNK        -0.1800 
     92 C           0.4183  -23.9120  -54.1862 C.2       16 UNK         0.5000 
     93 O           0.6408  -25.0842  -54.4926 O.2       16 UNK        -0.5000 
     94 N          -0.6119  -23.2012  -54.6707 N.am      17 UNK        -0.5000 
     95 CA         -1.5576  -23.6865  -55.6810 C.3       17 UNK         0.1400 
     96 CB         -2.0907  -22.4867  -56.4833 C.3       17 UNK        -0.1800 
     97 C          -2.7014  -24.5495  -55.1091 C.2       17 UNK         0.5000 
     98 O          -3.4012  -25.2003  -55.8876 O.2       17 UNK        -0.5000 
     99 N          -2.8684  -24.5588  -53.7777 N.am      18 UNK        -0.5000 
    100 CA        -3.8257  -25.3594  -53.0097 C.3       18 UNK         0.1400 
    101 CB        -3.4211  -26.8508  -53.0397 C.3       18 UNK        -0.1800 
    102 C         -5.2794  -25.0895  -53.4490 C.2       18 UNK         0.5000 
    103 O         -5.7694  -23.9757  -53.2673 O.2       18 UNK        -0.5000 
    104 N         -5.9399  -26.0887  -54.0492 N.am      19 UNK        -0.5000 
    105 CA        -7.3110  -26.0045  -54.5590 C.3       19 UNK         0.1400 
    106 CB        -7.7563  -27.4032  -55.0138 C.3       19 UNK        -0.1800 
    107 C         -7.5047  -24.9798  -55.6974 C.2       19 UNK         0.5000 
    108 O         -8.6283  -24.5183  -55.9015 O.2       19 UNK        -0.5000 
    109 N         -6.4227  -24.6400  -56.4118 N.am      20 UNK        -0.5000 
    110 CA        -6.4183  -23.6498  -57.4892 C.3       20 UNK         0.1400 
    111 CB        -5.4419  -24.1174  -58.5817 C.3       20 UNK        -0.1800 
    112 C         -6.0709  -22.2264  -57.0037 C.2       20 UNK         0.5000 
    113 O         -6.1157  -21.2972  -57.8124 O.2       20 UNK        -0.5000 
    114 N         -5.7160  -22.0605  -55.7209 N.am      21 UNK        -0.5000 
    115 CA        -5.3741  -20.7668  -55.1281 C.3       21 UNK         0.1400 
    116 CB        -4.5821  -20.9976  -53.8337 C.3       21 UNK        -0.1800 
    117 C         -6.6162  -19.9137  -54.8187 C.2       21 UNK         0.5000 
    118 O         -7.7282  -20.4376  -54.7130 O.2       21 UNK        -0.5000 
    119 N         -6.3718  -18.6128  -54.6196 N.am      22 UNK        -0.5000 
    120 CA        -7.3273  -17.6115  -54.1104 C.3       22 UNK         0.1400 
    121 C         -8.4972  -17.2517  -55.0786 C.2       22 UNK         0.5000 
    122 N         -8.4425  -17.6221  -56.3522 N.am      22 UNK        -0.7600 
    123 O         -9.4562  -16.5943  -54.6819 O.2       22 UNK        -0.5000 
    124 C124       -7.8240  -17.9194  -52.6657 C.3       23 UNK        -0.0398 
    125 S125       -6.4771  -18.2462  -51.4702 S.3       23 UNK        -0.2404 
    126 C126       -6.0446  -16.5510  -50.9770 C.3       23 UNK        -0.0205 
    127 H127        4.8764  -18.5013  -46.1538 H         1 UNK         0.0600 
    128 H128        5.9772  -17.2257  -46.6855 H         1 UNK         0.0600 
    129 H129        5.0977  -18.1882  -47.8776 H         1 UNK         0.0600 
    130 H130        3.4579  -16.9784  -48.7980 H         1 UNK         0.3000 
    131 H131        1.3257  -15.9197  -47.3188 H         1 UNK         0.0600 
    132 H132        1.3959  -16.7172  -49.8170 H         1 UNK         0.0800 
    133 H133        1.8914  -15.0981  -50.2053 H         1 UNK         0.0800 
    134 H134       -0.7880  -17.4229  -48.6466 H         1 UNK         0.0800 
    135 H135       -1.0760  -17.2546  -50.3627 H         1 UNK         0.0800 
    136 H136       -3.3357  -16.8354  -51.1538 H         1 UNK         0.1150 
    137 H137       -6.4843  -16.2109  -48.3145 H         1 UNK         0.1150 
    138 H138       -2.3969  -16.3410  -47.0092 H         1 UNK         0.1150 
    139 H139       -5.1051  -14.8898  -45.9810 H         1 UNK         0.0800 
    140 H140       -5.9894  -16.3923  -45.9237 H         1 UNK         0.0800 
    141 H141       -5.4576  -18.3484  -44.6284 H         1 UNK         0.0800 
    142 H142       -4.1313  -18.5770  -43.5253 H         1 UNK         0.0800 
    143 H143       -3.9686  -18.9460  -46.5580 H         1 UNK         0.0600 
    144 H144       -1.7978  -18.7484  -44.7280 H         1 UNK         0.3000 
    145 H145        0.4493  -20.9040  -46.5526 H         1 UNK         0.0600 
    146 H146        1.8765  -18.8429  -46.2649 H         1 UNK         0.0600 
    147 H147        0.4093  -17.8698  -46.1895 H         1 UNK         0.0600 
    148 H148        0.8044  -18.7705  -47.6507 H         1 UNK         0.0600 
    149 H149        0.8347  -19.4565  -44.1415 H         1 UNK         0.3000 
    150 H150       -0.4087  -21.9862  -41.9224 H         1 UNK         0.0600 
    151 H151        1.9185  -22.6586  -42.4653 H         1 UNK         0.0600 
    152 H152        1.8812  -21.6828  -41.0050 H         1 UNK         0.0600 
    153 H153        2.4230  -20.9764  -42.5263 H         1 UNK         0.0600 
    154 H154        0.7608  -19.3770  -41.5598 H         1 UNK         0.3000 
    155 H155       -2.2991  -17.5531  -41.5424 H         1 UNK         0.0600 
    156 H156       -2.0653  -18.5294  -39.2456 H         1 UNK         0.0600 
    157 H157       -1.4256  -16.8950  -39.3207 H         1 UNK         0.0600 
    158 H158       -0.3249  -18.2724  -39.3066 H         1 UNK         0.0600 
    159 H159        0.4025  -16.7505  -41.1248 H         1 UNK         0.3000 
    160 H160        1.2763  -16.1928  -44.5431 H         1 UNK         0.0600 
    161 H161        1.6537  -13.8976  -43.5566 H         1 UNK         0.0600 
    162 H162       -0.0271  -14.1912  -43.9965 H         1 UNK         0.0600 
    163 H163        0.4652  -14.2602  -42.3111 H         1 UNK         0.0600 
    164 H164        2.6790  -15.6269  -42.1503 H         1 UNK         0.3000 
    165 H165        4.0583  -18.7420  -41.4674 H         1 UNK         0.0600 
    166 H166        6.2996  -17.9482  -42.2673 H         1 UNK         0.0600 
    167 H167        5.3248  -18.6097  -43.5720 H         1 UNK         0.0600 
    168 H168        5.4977  -16.8709  -43.4108 H         1 UNK         0.0600 
    169 H169        4.9987  -16.0235  -41.0866 H         1 UNK         0.3000 
    170 H170        2.8865  -15.2513  -38.3770 H         1 UNK         0.0600 
    171 H171        5.7743  -16.2305  -38.0575 H         1 UNK         0.0600 
    172 H172        4.9031  -15.1811  -36.9381 H         1 UNK         0.0600 
    173 H173        4.3875  -16.8441  -37.1651 H         1 UNK         0.0600 
    174 H174        5.3206  -14.0422  -39.1455 H         1 UNK         0.3000 
    175 H175        3.8624  -11.5192  -40.7952 H         1 UNK         0.0600 
    176 H176        6.5971  -12.8335  -40.3134 H         1 UNK         0.0600 
    177 H177        6.3016  -11.1234  -40.5918 H         1 UNK         0.0600 
    178 H178        5.6861  -11.8831  -39.1386 H         1 UNK         0.0600 
    179 H179        4.3819  -11.7137  -42.9488 H         1 UNK         0.3000 
    180 H180        6.0401  -12.2979  -44.7351 H         1 UNK         0.0600 
    181 H181        6.4836  -14.1821  -46.3041 H         1 UNK         0.0600 
    182 H182        6.0345  -15.3349  -45.0511 H         1 UNK         0.0600 
    183 H183        7.4374  -14.3037  -44.8328 H         1 UNK         0.0600 
    184 H184        3.8740  -14.1393  -45.5134 H         1 UNK         0.3000 
    185 H185        1.3507  -12.1757  -45.2669 H         1 UNK         0.0600 
    186 H186        0.8728  -11.2400  -47.5427 H         1 UNK         0.0600 
    187 H187        1.8536  -10.1665  -46.5603 H         1 UNK         0.0600 
    188 H188        2.6056  -11.1031  -47.8405 H         1 UNK         0.0600 
    189 H189        1.1413  -14.1432  -46.2009 H         1 UNK         0.3000 
    190 H190       -3.0787  -20.9878  -43.7380 H         1 UNK         0.3000 
    191 H191       -5.2948  -22.7467  -43.8823 H         1 UNK         0.0600 
    192 H192       -3.8732  -22.4901  -41.8655 H         1 UNK         0.0600 
    193 H193       -2.5018  -23.2055  -42.7087 H         1 UNK         0.0600 
    194 H194       -3.9292  -24.1737  -42.3664 H         1 UNK         0.0600 
    195 H195       -2.0249  -22.9930  -45.3313 H         1 UNK         0.3000 
    196 H196       -2.4579  -25.5269  -46.6252 H         1 UNK         0.0600 
    197 H197       -0.1993  -24.6421  -46.0587 H         1 UNK         0.0600 
    198 H198       -0.4295  -23.2916  -47.1695 H         1 UNK         0.0600 
    199 H199       -0.3264  -24.9348  -47.7876 H         1 UNK         0.0600 
    200 H200       -3.3873  -22.2989  -47.4139 H         1 UNK         0.3000 
    201 H201       -4.3320  -21.2214  -49.0807 H         1 UNK         0.0600 
    202 H202       -5.7081  -22.3859  -50.7808 H         1 UNK         0.0600 
    203 H203       -6.0353  -23.0168  -49.1741 H         1 UNK         0.0600 
    204 H204       -5.0478  -23.9400  -50.3029 H         1 UNK         0.0600 
    205 H205       -1.8495  -20.9794  -49.0864 H         1 UNK         0.3000 
    206 H206        0.0084  -20.4387  -50.1547 H         1 UNK         0.0600 
    207 H207       -1.5865  -20.4292  -52.7761 H         1 UNK         0.0600 
    208 H208       -1.6878  -19.1486  -51.5830 H         1 UNK         0.0600 
    209 H209       -0.1615  -19.4659  -52.3854 H         1 UNK         0.0600 
    210 H210        0.7419  -21.1810  -52.9824 H         1 UNK         0.3000 
    211 H211        1.7315  -23.9271  -52.4908 H         1 UNK         0.0600 
    212 H212        2.3129  -21.9170  -54.7322 H         1 UNK         0.0600 
    213 H213        3.1257  -23.4596  -54.4896 H         1 UNK         0.0600 
    214 H214        3.3098  -22.1800  -53.2998 H         1 UNK         0.0600 
    215 H215       -0.7375  -22.2524  -54.3524 H         1 UNK         0.3000 
    216 H216       -1.0178  -24.3271  -56.3825 H         1 UNK         0.0600 
    217 H217       -2.8449  -22.7944  -57.2083 H         1 UNK         0.0600 
    218 H218       -1.2871  -22.0080  -57.0430 H         1 UNK         0.0600 
    219 H219       -2.5396  -21.7288  -55.8435 H         1 UNK         0.0600 
    220 H220       -2.3223  -23.9129  -53.2216 H         1 UNK         0.3000 
    221 H221       -3.7502  -25.0252  -51.9748 H         1 UNK         0.0600 
    222 H222       -3.4259  -27.2639  -54.0489 H         1 UNK         0.0600 
    223 H223       -2.4170  -26.9846  -52.6367 H         1 UNK         0.0600 
    224 H224       -4.0925  -27.4533  -52.4265 H         1 UNK         0.0600 
    225 H225       -5.4575  -26.9639  -54.1930 H         1 UNK         0.3000 
    226 H226       -7.9526  -25.6935  -53.7319 H         1 UNK         0.0600 
    227 H227       -7.7096  -28.1196  -54.1931 H         1 UNK         0.0600 
    228 H228       -8.7867  -27.3889  -55.3720 H         1 UNK         0.0600 
    229 H229       -7.1320  -27.7789  -55.8257 H         1 UNK         0.0600 
    230 H230       -5.5248  -25.0454  -56.1694 H         1 UNK         0.3000 
    231 H231       -7.4110  -23.5945  -57.9408 H         1 UNK         0.0600 
    232 H232       -5.4138  -23.4134  -59.4144 H         1 UNK         0.0600 
    233 H233       -5.7420  -25.0839  -58.9869 H         1 UNK         0.0600 
    234 H234       -4.4259  -24.2181  -58.2021 H         1 UNK         0.0600 
    235 H235       -5.7708  -22.8454  -55.0820 H         1 UNK         0.3000 
    236 H236       -4.7376  -20.2225  -55.8298 H         1 UNK         0.0600 
    237 H237       -5.2185  -21.3894  -53.0391 H         1 UNK         0.0600 
    238 H238       -3.7695  -21.7058  -53.9788 H         1 UNK         0.0600 
    239 H239       -4.1434  -20.0694  -53.4653 H         1 UNK         0.0600 
    240 H240       -5.4269  -18.2773  -54.7386 H         1 UNK         0.3000 
    241 H241       -6.7505  -16.6884  -54.0492 H         1 UNK         0.0600 
    242 H242       -7.6650  -18.1648  -56.6943 H         1 UNK         0.3800 
    243 H243       -9.1965  -17.3758  -56.9746 H         1 UNK         0.3800 
    244 H244       -8.4811  -18.7902  -52.6735 H         1 UNK         0.0800 
    245 H245       -8.4309  -17.0965  -52.2842 H         1 UNK         0.0800 
    246 H246       -6.9467  -16.0201  -50.6687 H         1 UNK         0.0800 
    247 H247       -5.6500  -16.0121  -51.8395 H         1 UNK         0.0800 
@<TRIPOS>BOND
     1    1    2 1    
     2    1  127 1    
     3    1  128 1    
     4    1  129 1    
     5    2    3 2    
     6    2    4 am   BACKBONE|DICT|INTERRES
     7    4    5 1    
     8    4  130 1    
     9    5    6 1    
    10    5   65 1    
    11    5  131 1    
    12    6    7 1    
    13    6  132 1    
    14    6  133 1    
    15    7    8 1    
    16    8    9 1    
    17    8  134 1    
    18    8  135 1    
    19    9   10 ar   
    20    9   14 ar   
    21   10   11 ar   
    22   10  136 1    
    23   11   12 ar   
    24   11  126 1    
    25   12   13 ar   
    26   12  137 1    
    27   13   14 ar   
    28   13   15 1    
    29   14  138 1    
    30   15   16 1    
    31   15  139 1    
    32   15  140 1    
    33   16   17 1    
    34   17   18 1    
    35   17  141 1    
    36   17  142 1    
    37   18   19 1    
    38   18   67 1    
    39   18  143 1    
    40   19   20 am   BACKBONE|DICT|INTERRES
    41   19  144 1    
    42   20   21 2    
    43   20   22 1    
    44   22   23 1    
    45   22   24 1    
    46   22  145 1    
    47   23  146 1    
    48   23  147 1    
    49   23  148 1    
    50   24   25 am   BACKBONE|DICT|INTERRES
    51   24  149 1    
    52   25   26 2    
    53   25   27 1    
    54   27   28 1    
    55   27   29 1    
    56   27  150 1    
    57   28  151 1    
    58   28  152 1    
    59   28  153 1    
    60   29   30 am   BACKBONE|DICT|INTERRES
    61   29  154 1    
    62   30   31 2    
    63   30   32 1    
    64   32   33 1    
    65   32   34 1    
    66   32  155 1    
    67   33  156 1    
    68   33  157 1    
    69   33  158 1    
    70   34   35 am   BACKBONE|DICT|INTERRES
    71   34  159 1    
    72   35   36 2    
    73   35   37 1    
    74   37   38 1    
    75   37   39 1    
    76   37  160 1    
    77   38  161 1    
    78   38  162 1    
    79   38  163 1    
    80   39   40 am   BACKBONE|DICT|INTERRES
    81   39  164 1    
    82   40   41 2    
    83   40   42 1    
    84   42   43 1    
    85   42   44 1    
    86   42  165 1    
    87   43  166 1    
    88   43  167 1    
    89   43  168 1    
    90   44   45 am   BACKBONE|DICT|INTERRES
    91   44  169 1    
    92   45   46 2    
    93   45   47 1    
    94   47   48 1    
    95   47   49 1    
    96   47  170 1    
    97   48  171 1    
    98   48  172 1    
    99   48  173 1    
   100   49   50 am   BACKBONE|DICT|INTERRES
   101   49  174 1    
   102   50   51 2    
   103   50   52 1    
   104   52   53 1    
   105   52   54 1    
   106   52  175 1    
   107   53  176 1    
   108   53  177 1    
   109   53  178 1    
   110   54   55 am   BACKBONE|DICT|INTERRES
   111   54  179 1    
   112   55   56 2    
   113   55   57 1    
   114   57   58 1    
   115   57   59 1    
   116   57  180 1    
   117   58  181 1    
   118   58  182 1    
   119   58  183 1    
   120   59   60 am   BACKBONE|DICT|INTERRES
   121   59  184 1    
   122   60   61 2    
   123   60   62 1    
   124   62   63 1    
   125   62   64 1    
   126   62  185 1    
   127   63  186 1    
   128   63  187 1    
   129   63  188 1    
   130   64   65 am   BACKBONE|DICT|INTERRES
   131   64  189 1    
   132   65   66 2    
   133   67   68 2    
   134   67   69 am   BACKBONE|DICT|INTERRES
   135   69   70 1    
   136   69  190 1    
   137   70   71 1    
   138   70   72 1    
   139   70  191 1    
   140   71  192 1    
   141   71  193 1    
   142   71  194 1    
   143   72   73 2    
   144   72   74 am   BACKBONE|DICT|INTERRES
   145   74   75 1    
   146   74  195 1    
   147   75   76 1    
   148   75   77 1    
   149   75  196 1    
   150   76  197 1    
   151   76  198 1    
   152   76  199 1    
   153   77   78 2    
   154   77   79 am   BACKBONE|DICT|INTERRES
   155   79   80 1    
   156   79  200 1    
   157   80   81 1    
   158   80   82 1    
   159   80  201 1    
   160   81  202 1    
   161   81  203 1    
   162   81  204 1    
   163   82   83 2    
   164   82   84 am   BACKBONE|DICT|INTERRES
   165   84   85 1    
   166   84  205 1    
   167   85   86 1    
   168   85   87 1    
   169   85  206 1    
   170   86  207 1    
   171   86  208 1    
   172   86  209 1    
   173   87   88 2    
   174   87   89 am   BACKBONE|DICT|INTERRES
   175   89   90 1    
   176   89  210 1    
   177   90   91 1    
   178   90   92 1    
   179   90  211 1    
   180   91  212 1    
   181   91  213 1    
   182   91  214 1    
   183   92   93 2    
   184   92   94 am   BACKBONE|DICT|INTERRES
   185   94   95 1    
   186   94  215 1    
   187   95   96 1    
   188   95   97 1    
   189   95  216 1    
   190   96  217 1    
   191   96  218 1    
   192   96  219 1    
   193   97   98 2    
   194   97   99 am   BACKBONE|DICT|INTERRES
   195   99  100 1    
   196   99  220 1    
   197  100  101 1    
   198  100  102 1    
   199  100  221 1    
   200  101  222 1    
   201  101  223 1    
   202  101  224 1    
   203  102  103 2    
   204  102  104 am   BACKBONE|DICT|INTERRES
   205  104  105 1    
   206  104  225 1    
   207  105  106 1    
   208  105  107 1    
   209  105  226 1    
   210  106  227 1    
   211  106  228 1    
   212  106  229 1    
   213  107  108 2    
   214  107  109 am   BACKBONE|DICT|INTERRES
   215  109  110 1    
   216  109  230 1    
   217  110  111 1    
   218  110  112 1    
   219  110  231 1    
   220  111  232 1    
   221  111  233 1    
   222  111  234 1    
   223  112  113 2    
   224  112  114 am   BACKBONE|DICT|INTERRES
   225  114  115 1    
   226  114  235 1    
   227  115  116 1    
   228  115  117 1    
   229  115  236 1    
   230  116  237 1    
   231  116  238 1    
   232  116  239 1    
   233  117  118 2    
   234  117  119 am   BACKBONE|DICT|INTERRES
   235  119  120 1    
   236  119  240 1    
   237  120  121 1    
   238  120  124 1    
   239  120  241 1    
   240  121  122 am   BACKBONE|DICT|INTERRES
   241  121  123 2    
   242  122  242 1    
   243  122  243 1    
   244  124  125 1    
   245  124  244 1    
   246  124  245 1    
   247  125  126 1    
   248  126  246 1    
   249  126  247 1    
@<TRIPOS>SUBSTRUCTURE
     1 UNK         1 GROUP             0       ****    0 ROOT    
