@<TRIPOS>MOLECULE
3R540
247   249    1
SMALL
USER_CHARGES


@<TRIPOS>ATOM
      1 CA          3.1526  -10.6056  -50.5020 C.3       0 UNK        -0.1800 
      2 C           2.2677  -11.6622  -51.1617 C.2       0 UNK         0.5000 
      3 O           2.1139  -11.6426  -52.3815 O.2       0 UNK        -0.5000 
      4 N           1.6804  -12.6072  -50.4155 N.am      1 UNK        -0.5000 
      5 CA          1.6973  -12.7174  -48.9520 C.3       1 UNK         0.1400 
      6 C6          1.2260  -14.1124  -48.4744 C.3       23 UNK        -0.0398 
      7 S7          2.3132  -15.4674  -49.0319 S.3       23 UNK        -0.2404 
      8 C8          1.1719  -16.3755  -50.1212 C.3       23 UNK        -0.0205 
      9 C9          1.6962  -17.7307  -50.5725 C.ar      23 UNK        -0.0193 
     10 C10         1.5560  -18.1099  -51.9091 C.ar      23 UNK        -0.1150 
     11 C11         1.9557  -19.3773  -52.3349 C.ar      23 UNK        -0.0193 
     12 C12         2.5360  -20.2599  -51.4190 C.ar      23 UNK        -0.1150 
     13 C13         2.6828  -19.8974  -50.0754 C.ar      23 UNK        -0.0193 
     14 C14         2.2523  -18.6336  -49.6593 C.ar      23 UNK        -0.1150 
     15 C15         3.2959  -20.8596  -49.0602 C.3       23 UNK        -0.0205 
     16 S16         2.6004  -22.5445  -49.1252 S.3       23 UNK        -0.2404 
     17 C17         0.8180  -22.2101  -48.9512 C.3       23 UNK        -0.0398 
     18 CA          0.1377  -23.0471  -47.8476 C.3       11 UNK         0.1400 
     19 N           0.7207  -22.8290  -46.5187 N.am      11 UNK        -0.5000 
     20 C           0.3709  -23.4900  -45.4086 C.2       10 UNK         0.5000 
     21 O          -0.5822  -24.2669  -45.3605 O.2       10 UNK        -0.5000 
     22 CA          1.1853  -23.2615  -44.1239 C.3       10 UNK         0.1400 
     23 CB          2.1354  -24.4437  -43.8544 C.3       10 UNK        -0.1800 
     24 N           1.8820  -21.9743  -44.0301 N.am      10 UNK        -0.5000 
     25 C           2.9729  -21.5402  -44.6774 C.2       9 UNK         0.5000 
     26 O           3.5230  -22.1763  -45.5753 O.2       9 UNK        -0.5000 
     27 CA          3.5439  -20.1609  -44.2731 C.3       9 UNK         0.1400 
     28 CB          3.7615  -19.2671  -45.5050 C.3       9 UNK        -0.1800 
     29 N           2.7049  -19.4373  -43.3157 N.am      9 UNK        -0.5000 
     30 C           2.6403  -19.6594  -41.9958 C.2       8 UNK         0.5000 
     31 O           3.3591  -20.4616  -41.4001 O.2       8 UNK        -0.5000 
     32 CA          1.5346  -18.9047  -41.2293 C.3       8 UNK         0.1400 
     33 CB          2.0286  -17.5202  -40.7860 C.3       8 UNK        -0.1800 
     34 N           0.3025  -18.7613  -42.0140 N.am      8 UNK        -0.5000 
     35 C          -0.4539  -19.7879  -42.4330 C.2       7 UNK         0.5000 
     36 O          -0.2270  -20.9614  -42.1438 O.2       7 UNK        -0.5000 
     37 CA         -1.6162  -19.4652  -43.3841 C.3       7 UNK         0.1400 
     38 CB         -2.8733  -19.0477  -42.6075 C.3       7 UNK        -0.1800 
     39 N          -1.2466  -18.4158  -44.3308 N.am      7 UNK        -0.5000 
     40 C          -0.5662  -18.6211  -45.4680 C.2       6 UNK         0.5000 
     41 O          -0.2521  -19.7365  -45.8875 O.2       6 UNK        -0.5000 
     42 CA         -0.1921  -17.3647  -46.2801 C.3       6 UNK         0.1400 
     43 CB         -1.3020  -17.0505  -47.2931 C.3       6 UNK        -0.1800 
     44 N           0.0247  -16.1846  -45.4401 N.am      6 UNK        -0.5000 
     45 C           1.0208  -16.0521  -44.5525 C.2       5 UNK         0.5000 
     46 O           1.8992  -16.8944  -44.3854 O.2       5 UNK        -0.5000 
     47 CA          0.9885  -14.8064  -43.6502 C.3       5 UNK         0.1400 
     48 CB          1.8587  -13.6823  -44.2266 C.3       5 UNK        -0.1800 
     49 N          -0.3745  -14.3237  -43.4119 N.am      5 UNK        -0.5000 
     50 C          -1.2742  -14.9776  -42.6616 C.2       4 UNK         0.5000 
     51 O          -1.0300  -16.0665  -42.1384 O.2       4 UNK        -0.5000 
     52 CA         -2.6911  -14.3816  -42.5083 C.3       4 UNK         0.1400 
     53 CB         -3.0638  -14.1820  -41.0257 C.3       4 UNK        -0.1800 
     54 N          -2.9499  -13.1692  -43.2981 N.am      4 UNK        -0.5000 
     55 C          -2.4385  -11.9414  -43.1332 C.2       3 UNK         0.5000 
     56 O          -1.6561  -11.6232  -42.2360 O.2       3 UNK        -0.5000 
     57 CA         -2.8363  -10.9017  -44.2000 C.3       3 UNK         0.1400 
     58 CB         -3.6103   -9.7343  -43.5679 C.3       3 UNK        -0.1800 
     59 N          -1.6738  -10.3767  -44.9211 N.am      3 UNK        -0.5000 
     60 C          -0.7736  -11.1163  -45.5827 C.2       2 UNK         0.5000 
     61 O          -0.8393  -12.3463  -45.6765 O.2       2 UNK        -0.5000 
     62 CA          0.4055  -10.3484  -46.2177 C.3       2 UNK         0.1400 
     63 CB          1.3306   -9.7702  -45.1337 C.3       2 UNK        -0.1800 
     64 N           1.2033  -11.2070  -47.0943 N.am      2 UNK        -0.5000 
     65 C           0.8152  -11.6309  -48.3026 C.2       1 UNK         0.5000 
     66 O          -0.1980  -11.2282  -48.8798 O.2       1 UNK        -0.5000 
     67 C          -1.3886  -22.8371  -47.9014 C.2       11 UNK         0.5000 
     68 O          -2.0812  -23.6499  -48.5152 O.2       11 UNK        -0.5000 
     69 N          -1.8947  -21.7748  -47.2593 N.am      12 UNK        -0.5000 
     70 CA         -3.3339  -21.4979  -47.2028 C.3       12 UNK         0.1400 
     71 CB         -3.5729  -19.9947  -47.0089 C.3       12 UNK        -0.1800 
     72 C          -4.0504  -22.3048  -46.1048 C.2       12 UNK         0.5000 
     73 O          -5.2495  -22.5507  -46.2292 O.2       12 UNK        -0.5000 
     74 N          -3.3142  -22.7104  -45.0603 N.am      13 UNK        -0.5000 
     75 CA         -3.8331  -23.4985  -43.9402 C.3       13 UNK         0.1400 
     76 CB         -2.8813  -23.3801  -42.7400 C.3       13 UNK        -0.1800 
     77 C          -4.0497  -24.9709  -44.3302 C.2       13 UNK         0.5000 
     78 O          -5.0907  -25.5436  -44.0074 O.2       13 UNK        -0.5000 
     79 N          -3.0747  -25.5423  -45.0492 N.am      14 UNK        -0.5000 
     80 CA         -3.1274  -26.8925  -45.6124 C.3       14 UNK         0.1400 
     81 CB         -1.6887  -27.3644  -45.8795 C.3       14 UNK        -0.1800 
     82 C          -3.9585  -26.9687  -46.9087 C.2       14 UNK         0.5000 
     83 O          -4.2771  -28.0712  -47.3540 O.2       14 UNK        -0.5000 
     84 N          -4.2553  -25.8025  -47.5034 N.am      15 UNK        -0.5000 
     85 CA         -4.9192  -25.5843  -48.7948 C.3       15 UNK         0.1400 
     86 CB         -6.3439  -26.1743  -48.8092 C.3       15 UNK        -0.1800 
     87 C          -4.0731  -26.0343  -50.0057 C.2       15 UNK         0.5000 
     88 O          -4.5983  -26.1476  -51.1142 O.2       15 UNK        -0.5000 
     89 N          -2.7634  -26.2209  -49.7885 N.am      16 UNK        -0.5000 
     90 CA         -1.7533  -26.5465  -50.7965 C.3       16 UNK         0.1400 
     91 CB         -0.4333  -26.8754  -50.0828 C.3       16 UNK        -0.1800 
     92 C          -1.5454  -25.4237  -51.8317 C.2       16 UNK         0.5000 
     93 O          -1.0993  -25.7021  -52.9449 O.2       16 UNK        -0.5000 
     94 N          -1.9033  -24.1860  -51.4591 N.am      17 UNK        -0.5000 
     95 CA         -1.9583  -23.0213  -52.3428 C.3       17 UNK         0.1400 
     96 CB         -2.2494  -21.7725  -51.4947 C.3       17 UNK        -0.1800 
     97 C          -3.0112  -23.1438  -53.4656 C.2       17 UNK         0.5000 
     98 O          -2.8683  -22.4874  -54.4963 O.2       17 UNK        -0.5000 
     99 N          -4.0612  -23.9508  -53.2326 N.am      18 UNK        -0.5000 
    100 CA        -5.2168  -24.2195  -54.1045 C.3       18 UNK         0.1400 
    101 CB        -4.7673  -24.8758  -55.4256 C.3       18 UNK        -0.1800 
    102 C         -6.1472  -23.0079  -54.3499 C.2       18 UNK         0.5000 
    103 O         -7.1291  -23.1341  -55.0833 O.2       18 UNK        -0.5000 
    104 N         -5.8473  -21.8725  -53.7153 N.am      19 UNK        -0.5000 
    105 CA        -6.5455  -20.5963  -53.7630 C.3       19 UNK         0.1400 
    106 CB        -6.3487  -19.9259  -55.1354 C.3       19 UNK        -0.1800 
    107 C         -5.9564  -19.7274  -52.6437 C.2       19 UNK         0.5000 
    108 O         -4.8372  -19.9947  -52.1939 O.2       19 UNK        -0.5000 
    109 N         -6.7028  -18.7012  -52.2173 N.am      20 UNK        -0.5000 
    110 CA        -6.3036  -17.7480  -51.1791 C.3       20 UNK         0.1400 
    111 CB        -7.4509  -16.7544  -50.9362 C.3       20 UNK        -0.1800 
    112 C         -5.0011  -17.0170  -51.5550 C.2       20 UNK         0.5000 
    113 O         -5.0008  -16.2262  -52.5008 O.2       20 UNK        -0.5000 
    114 N         -3.9092  -17.3563  -50.8533 N.am      21 UNK        -0.5000 
    115 CA        -2.5372  -16.8813  -51.0756 C.3       21 UNK         0.1400 
    116 CB        -2.4171  -15.3979  -50.6634 C.3       21 UNK        -0.1800 
    117 C         -2.0153  -17.1553  -52.5058 C.2       21 UNK         0.5000 
    118 O         -1.2710  -16.3402  -53.0520 O.2       21 UNK        -0.5000 
    119 N         -2.4456  -18.2835  -53.0904 N.am      22 UNK        -0.5000 
    120 CA        -2.2310  -18.6782  -54.4955 C.3       22 UNK         0.1400 
    121 C         -2.9851  -17.7885  -55.5357 C.2       22 UNK         0.5000 
    122 N         -3.9189  -16.9285  -55.1436 N.am      22 UNK        -0.7600 
    123 O         -2.7515  -17.9034  -56.7357 O.2       22 UNK        -0.5000 
    124 C124       -0.7322  -18.8932  -54.8716 C.3       23 UNK        -0.0398 
    125 S125        0.0173  -20.3394  -54.0466 S.3       23 UNK        -0.2404 
    126 C126        1.7363  -19.8001  -53.7777 C.3       23 UNK        -0.0205 
    127 H127        2.5569   -9.9200  -49.9001 H         1 UNK         0.0600 
    128 H128        3.9132  -11.0637  -49.8704 H         1 UNK         0.0600 
    129 H129        3.6694  -10.0164  -51.2599 H         1 UNK         0.0600 
    130 H130        1.0953  -13.2819  -50.8840 H         1 UNK         0.3000 
    131 H131        2.7236  -12.5785  -48.6075 H         1 UNK         0.0600 
    132 H132        0.2002  -14.2955  -48.7982 H         1 UNK         0.0800 
    133 H133        1.2027  -14.1587  -47.3852 H         1 UNK         0.0800 
    134 H134        0.9449  -15.7470  -50.9838 H         1 UNK         0.0800 
    135 H135        0.2334  -16.5461  -49.6002 H         1 UNK         0.0800 
    136 H136        1.1078  -17.4293  -52.6185 H         1 UNK         0.1150 
    137 H137        2.8528  -21.2401  -51.7465 H         1 UNK         0.1150 
    138 H138        2.3480  -18.3506  -48.6206 H         1 UNK         0.1150 
    139 H139        4.3721  -20.9131  -49.2282 H         1 UNK         0.0800 
    140 H140        3.1585  -20.4826  -48.0476 H         1 UNK         0.0800 
    141 H141        0.6480  -21.1470  -48.7721 H         1 UNK         0.0800 
    142 H142        0.3802  -22.4367  -49.9233 H         1 UNK         0.0800 
    143 H143        0.3104  -24.0990  -48.0827 H         1 UNK         0.0600 
    144 H144        1.5445  -22.2430  -46.4766 H         1 UNK         0.3000 
    145 H145        0.4594  -23.2507  -43.3109 H         1 UNK         0.0600 
    146 H146        2.6692  -24.3145  -42.9129 H         1 UNK         0.0600 
    147 H147        1.5793  -25.3796  -43.7865 H         1 UNK         0.0600 
    148 H148        2.8736  -24.5645  -44.6475 H         1 UNK         0.0600 
    149 H149        1.4796  -21.3497  -43.3421 H         1 UNK         0.3000 
    150 H150        4.5170  -20.3416  -43.8125 H         1 UNK         0.0600 
    151 H151        4.4614  -19.7243  -46.2050 H         1 UNK         0.0600 
    152 H152        4.1801  -18.3012  -45.2218 H         1 UNK         0.0600 
    153 H153        2.8266  -19.0828  -46.0356 H         1 UNK         0.0600 
    154 H154        2.1373  -18.6895  -43.7041 H         1 UNK         0.3000 
    155 H155        1.2920  -19.4826  -40.3351 H         1 UNK         0.0600 
    156 H156        1.2439  -16.9618  -40.2749 H         1 UNK         0.0600 
    157 H157        2.3699  -16.9259  -41.6329 H         1 UNK         0.0600 
    158 H158        2.8676  -17.6119  -40.0953 H         1 UNK         0.0600 
    159 H159        0.0117  -17.8166  -42.2406 H         1 UNK         0.3000 
    160 H160       -1.8546  -20.3754  -43.9380 H         1 UNK         0.0600 
    161 H161       -2.7092  -18.1444  -42.0198 H         1 UNK         0.0600 
    162 H162       -3.1832  -19.8339  -41.9180 H         1 UNK         0.0600 
    163 H163       -3.7083  -18.8617  -43.2833 H         1 UNK         0.0600 
    164 H164       -1.4424  -17.4665  -44.0492 H         1 UNK         0.3000 
    165 H165        0.7327  -17.5702  -46.8231 H         1 UNK         0.0600 
    166 H166       -2.2810  -16.9862  -46.8161 H         1 UNK         0.0600 
    167 H167       -1.1245  -16.1032  -47.7997 H         1 UNK         0.0600 
    168 H168       -1.3547  -17.8274  -48.0556 H         1 UNK         0.0600 
    169 H169       -0.6530  -15.4391  -45.5097 H         1 UNK         0.3000 
    170 H170        1.4141  -15.0862  -42.6854 H         1 UNK         0.0600 
    171 H171        2.8932  -14.0099  -44.3367 H         1 UNK         0.0600 
    172 H172        1.5123  -13.3652  -45.2076 H         1 UNK         0.0600 
    173 H173        1.8609  -12.8126  -43.5699 H         1 UNK         0.0600 
    174 H174       -0.6445  -13.4630  -43.8734 H         1 UNK         0.3000 
    175 H175       -3.3680  -15.1375  -42.9092 H         1 UNK         0.0600 
    176 H176       -4.0769  -13.7937  -40.9215 H         1 UNK         0.0600 
    177 H177       -3.0227  -15.1276  -40.4836 H         1 UNK         0.0600 
    178 H178       -2.3851  -13.4930  -40.5227 H         1 UNK         0.0600 
    179 H179       -3.5544  -13.3134  -44.0953 H         1 UNK         0.3000 
    180 H180       -3.4875  -11.3792  -44.9351 H         1 UNK         0.0600 
    181 H181       -3.9562   -9.0320  -44.3266 H         1 UNK         0.0600 
    182 H182       -4.4906  -10.0940  -43.0336 H         1 UNK         0.0600 
    183 H183       -2.9961   -9.1831  -42.8545 H         1 UNK         0.0600 
    184 H184       -1.5339   -9.3785  -44.8654 H         1 UNK         0.3000 
    185 H185       -0.0019   -9.5246  -46.8076 H         1 UNK         0.0600 
    186 H186        2.1606   -9.2199  -45.5773 H         1 UNK         0.0600 
    187 H187        0.7967   -9.0750  -44.4848 H         1 UNK         0.0600 
    188 H188        1.7488  -10.5524  -44.4999 H         1 UNK         0.0600 
    189 H189        2.0403  -11.5938  -46.6843 H         1 UNK         0.3000 
    190 H190       -1.2694  -21.1344  -46.7757 H         1 UNK         0.3000 
    191 H191       -3.7851  -21.7754  -48.1584 H         1 UNK         0.0600 
    192 H192       -4.6374  -19.7622  -47.0583 H         1 UNK         0.0600 
    193 H193       -3.0803  -19.4161  -47.7888 H         1 UNK         0.0600 
    194 H194       -3.2126  -19.6488  -46.0414 H         1 UNK         0.0600 
    195 H195       -2.3213  -22.5309  -45.0720 H         1 UNK         0.3000 
    196 H196       -4.7994  -23.0845  -43.6434 H         1 UNK         0.0600 
    197 H197       -3.2662  -23.9341  -41.8831 H         1 UNK         0.0600 
    198 H198       -2.7652  -22.3426  -42.4280 H         1 UNK         0.0600 
    199 H199       -1.8911  -23.7755  -42.9652 H         1 UNK         0.0600 
    200 H200       -2.2207  -25.0151  -45.2267 H         1 UNK         0.3000 
    201 H201       -3.5827  -27.5657  -44.8831 H         1 UNK         0.0600 
    202 H202       -1.0927  -27.3477  -44.9668 H         1 UNK         0.0600 
    203 H203       -1.1883  -26.7337  -46.6157 H         1 UNK         0.0600 
    204 H204       -1.6742  -28.3871  -46.2586 H         1 UNK         0.0600 
    205 H205       -3.9209  -24.9651  -47.0484 H         1 UNK         0.3000 
    206 H206       -5.0161  -24.5020  -48.8921 H         1 UNK         0.0600 
    207 H207       -6.9162  -25.8428  -47.9427 H         1 UNK         0.0600 
    208 H208       -6.8891  -25.8550  -49.6981 H         1 UNK         0.0600 
    209 H209       -6.3341  -27.2643  -48.8101 H         1 UNK         0.0600 
    210 H210       -2.4202  -26.0187  -48.8609 H         1 UNK         0.3000 
    211 H211       -2.0891  -27.4350  -51.3348 H         1 UNK         0.0600 
    212 H212       -0.0573  -26.0210  -49.5196 H         1 UNK         0.0600 
    213 H213        0.3377  -27.1612  -50.7995 H         1 UNK         0.0600 
    214 H214       -0.5560  -27.7075  -49.3891 H         1 UNK         0.0600 
    215 H215       -2.2052  -24.0476  -50.5003 H         1 UNK         0.3000 
    216 H216       -0.9803  -22.9069  -52.8137 H         1 UNK         0.0600 
    217 H217       -2.3198  -20.8874  -52.1249 H         1 UNK         0.0600 
    218 H218       -1.4625  -21.5760  -50.7716 H         1 UNK         0.0600 
    219 H219       -3.1892  -21.8643  -50.9490 H         1 UNK         0.0600 
    220 H220       -4.0723  -24.4654  -52.3598 H         1 UNK         0.3000 
    221 H221       -5.8215  -24.9515  -53.5673 H         1 UNK         0.0600 
    222 H222       -4.2128  -24.1812  -56.0569 H         1 UNK         0.0600 
    223 H223       -4.1316  -25.7415  -55.2389 H         1 UNK         0.0600 
    224 H224       -5.6256  -25.2230  -56.0018 H         1 UNK         0.0600 
    225 H225       -5.0285  -21.8501  -53.1200 H         1 UNK         0.3000 
    226 H226       -7.6074  -20.7585  -53.5692 H         1 UNK         0.0600 
    227 H227       -6.7985  -18.9326  -55.1585 H         1 UNK         0.0600 
    228 H228       -5.2912  -19.8135  -55.3761 H         1 UNK         0.0600 
    229 H229       -6.8111  -20.5070  -55.9330 H         1 UNK         0.0600 
    230 H230       -7.5954  -18.5313  -52.6572 H         1 UNK         0.3000 
    231 H231       -6.1416  -18.3073  -50.2553 H         1 UNK         0.0600 
    232 H232       -7.1827  -16.0303  -50.1658 H         1 UNK         0.0600 
    233 H233       -8.3525  -17.2667  -50.5999 H         1 UNK         0.0600 
    234 H234       -7.6996  -16.1955  -51.8394 H         1 UNK         0.0600 
    235 H235       -4.0114  -18.0636  -50.1394 H         1 UNK         0.3000 
    236 H236       -1.8989  -17.4657  -50.4128 H         1 UNK         0.0600 
    237 H237       -3.0239  -14.7531  -51.2997 H         1 UNK         0.0600 
    238 H238       -2.7393  -15.2481  -49.6331 H         1 UNK         0.0600 
    239 H239       -1.3896  -15.0433  -50.7355 H         1 UNK         0.0600 
    240 H240       -3.0963  -18.8686  -52.5782 H         1 UNK         0.3000 
    241 H241       -2.7222  -19.6476  -54.5878 H         1 UNK         0.0600 
    242 H242       -4.3947  -16.3776  -55.8396 H         1 UNK         0.3800 
    243 H243       -4.1451  -16.7889  -54.1641 H         1 UNK         0.3800 
    244 H244       -0.1488  -17.9963  -54.6670 H         1 UNK         0.0800 
    245 H245       -0.6236  -19.0753  -55.9417 H         1 UNK         0.0800 
    246 H246        2.4022  -20.6268  -54.0295 H         1 UNK         0.0800 
    247 H247        1.9978  -18.9866  -54.4558 H         1 UNK         0.0800 
@<TRIPOS>BOND
     1    1    2 1    
     2    1  127 1    
     3    1  128 1    
     4    1  129 1    
     5    2    3 2    
     6    2    4 am   BACKBONE|DICT|INTERRES
     7    4    5 1    
     8    4  130 1    
     9    5    6 1    
    10    5   65 1    
    11    5  131 1    
    12    6    7 1    
    13    6  132 1    
    14    6  133 1    
    15    7    8 1    
    16    8    9 1    
    17    8  134 1    
    18    8  135 1    
    19    9   10 ar   
    20    9   14 ar   
    21   10   11 ar   
    22   10  136 1    
    23   11   12 ar   
    24   11  126 1    
    25   12   13 ar   
    26   12  137 1    
    27   13   14 ar   
    28   13   15 1    
    29   14  138 1    
    30   15   16 1    
    31   15  139 1    
    32   15  140 1    
    33   16   17 1    
    34   17   18 1    
    35   17  141 1    
    36   17  142 1    
    37   18   19 1    
    38   18   67 1    
    39   18  143 1    
    40   19   20 am   BACKBONE|DICT|INTERRES
    41   19  144 1    
    42   20   21 2    
    43   20   22 1    
    44   22   23 1    
    45   22   24 1    
    46   22  145 1    
    47   23  146 1    
    48   23  147 1    
    49   23  148 1    
    50   24   25 am   BACKBONE|DICT|INTERRES
    51   24  149 1    
    52   25   26 2    
    53   25   27 1    
    54   27   28 1    
    55   27   29 1    
    56   27  150 1    
    57   28  151 1    
    58   28  152 1    
    59   28  153 1    
    60   29   30 am   BACKBONE|DICT|INTERRES
    61   29  154 1    
    62   30   31 2    
    63   30   32 1    
    64   32   33 1    
    65   32   34 1    
    66   32  155 1    
    67   33  156 1    
    68   33  157 1    
    69   33  158 1    
    70   34   35 am   BACKBONE|DICT|INTERRES
    71   34  159 1    
    72   35   36 2    
    73   35   37 1    
    74   37   38 1    
    75   37   39 1    
    76   37  160 1    
    77   38  161 1    
    78   38  162 1    
    79   38  163 1    
    80   39   40 am   BACKBONE|DICT|INTERRES
    81   39  164 1    
    82   40   41 2    
    83   40   42 1    
    84   42   43 1    
    85   42   44 1    
    86   42  165 1    
    87   43  166 1    
    88   43  167 1    
    89   43  168 1    
    90   44   45 am   BACKBONE|DICT|INTERRES
    91   44  169 1    
    92   45   46 2    
    93   45   47 1    
    94   47   48 1    
    95   47   49 1    
    96   47  170 1    
    97   48  171 1    
    98   48  172 1    
    99   48  173 1    
   100   49   50 am   BACKBONE|DICT|INTERRES
   101   49  174 1    
   102   50   51 2    
   103   50   52 1    
   104   52   53 1    
   105   52   54 1    
   106   52  175 1    
   107   53  176 1    
   108   53  177 1    
   109   53  178 1    
   110   54   55 am   BACKBONE|DICT|INTERRES
   111   54  179 1    
   112   55   56 2    
   113   55   57 1    
   114   57   58 1    
   115   57   59 1    
   116   57  180 1    
   117   58  181 1    
   118   58  182 1    
   119   58  183 1    
   120   59   60 am   BACKBONE|DICT|INTERRES
   121   59  184 1    
   122   60   61 2    
   123   60   62 1    
   124   62   63 1    
   125   62   64 1    
   126   62  185 1    
   127   63  186 1    
   128   63  187 1    
   129   63  188 1    
   130   64   65 am   BACKBONE|DICT|INTERRES
   131   64  189 1    
   132   65   66 2    
   133   67   68 2    
   134   67   69 am   BACKBONE|DICT|INTERRES
   135   69   70 1    
   136   69  190 1    
   137   70   71 1    
   138   70   72 1    
   139   70  191 1    
   140   71  192 1    
   141   71  193 1    
   142   71  194 1    
   143   72   73 2    
   144   72   74 am   BACKBONE|DICT|INTERRES
   145   74   75 1    
   146   74  195 1    
   147   75   76 1    
   148   75   77 1    
   149   75  196 1    
   150   76  197 1    
   151   76  198 1    
   152   76  199 1    
   153   77   78 2    
   154   77   79 am   BACKBONE|DICT|INTERRES
   155   79   80 1    
   156   79  200 1    
   157   80   81 1    
   158   80   82 1    
   159   80  201 1    
   160   81  202 1    
   161   81  203 1    
   162   81  204 1    
   163   82   83 2    
   164   82   84 am   BACKBONE|DICT|INTERRES
   165   84   85 1    
   166   84  205 1    
   167   85   86 1    
   168   85   87 1    
   169   85  206 1    
   170   86  207 1    
   171   86  208 1    
   172   86  209 1    
   173   87   88 2    
   174   87   89 am   BACKBONE|DICT|INTERRES
   175   89   90 1    
   176   89  210 1    
   177   90   91 1    
   178   90   92 1    
   179   90  211 1    
   180   91  212 1    
   181   91  213 1    
   182   91  214 1    
   183   92   93 2    
   184   92   94 am   BACKBONE|DICT|INTERRES
   185   94   95 1    
   186   94  215 1    
   187   95   96 1    
   188   95   97 1    
   189   95  216 1    
   190   96  217 1    
   191   96  218 1    
   192   96  219 1    
   193   97   98 2    
   194   97   99 am   BACKBONE|DICT|INTERRES
   195   99  100 1    
   196   99  220 1    
   197  100  101 1    
   198  100  102 1    
   199  100  221 1    
   200  101  222 1    
   201  101  223 1    
   202  101  224 1    
   203  102  103 2    
   204  102  104 am   BACKBONE|DICT|INTERRES
   205  104  105 1    
   206  104  225 1    
   207  105  106 1    
   208  105  107 1    
   209  105  226 1    
   210  106  227 1    
   211  106  228 1    
   212  106  229 1    
   213  107  108 2    
   214  107  109 am   BACKBONE|DICT|INTERRES
   215  109  110 1    
   216  109  230 1    
   217  110  111 1    
   218  110  112 1    
   219  110  231 1    
   220  111  232 1    
   221  111  233 1    
   222  111  234 1    
   223  112  113 2    
   224  112  114 am   BACKBONE|DICT|INTERRES
   225  114  115 1    
   226  114  235 1    
   227  115  116 1    
   228  115  117 1    
   229  115  236 1    
   230  116  237 1    
   231  116  238 1    
   232  116  239 1    
   233  117  118 2    
   234  117  119 am   BACKBONE|DICT|INTERRES
   235  119  120 1    
   236  119  240 1    
   237  120  121 1    
   238  120  124 1    
   239  120  241 1    
   240  121  122 am   BACKBONE|DICT|INTERRES
   241  121  123 2    
   242  122  242 1    
   243  122  243 1    
   244  124  125 1    
   245  124  244 1    
   246  124  245 1    
   247  125  126 1    
   248  126  246 1    
   249  126  247 1    
@<TRIPOS>SUBSTRUCTURE
     1 UNK         1 GROUP             0       ****    0 ROOT    
