@<TRIPOS>MOLECULE
3R540
247   249    1
SMALL
USER_CHARGES


@<TRIPOS>ATOM
      1 CA         -4.8972  -12.6708  -47.7488 C.3       0 UNK        -0.1800 
      2 C          -3.4277  -13.0439  -47.6152 C.2       0 UNK         0.5000 
      3 O          -2.6112  -12.1999  -47.2467 O.2       0 UNK        -0.5000 
      4 N          -3.0902  -14.3064  -47.9080 N.am      1 UNK        -0.5000 
      5 CA         -1.7231  -14.8453  -47.8587 C.3       1 UNK         0.1400 
      6 C6         -1.5904  -16.1651  -48.6575 C.3       23 UNK        -0.0398 
      7 S7         -1.9373  -15.9165  -50.4294 S.3       23 UNK        -0.2404 
      8 C8         -0.2590  -15.7905  -51.1159 C.3       23 UNK        -0.0205 
      9 C9          0.3354  -17.1522  -51.4465 C.ar      23 UNK        -0.0193 
     10 C10         0.0506  -17.7511  -52.6776 C.ar      23 UNK        -0.1150 
     11 C11         0.6510  -18.9606  -53.0369 C.ar      23 UNK        -0.0193 
     12 C12         1.5342  -19.5775  -52.1471 C.ar      23 UNK        -0.1150 
     13 C13         1.8319  -18.9891  -50.9138 C.ar      23 UNK        -0.0193 
     14 C14         1.2204  -17.7807  -50.5631 C.ar      23 UNK        -0.1150 
     15 C15         2.8806  -19.6229  -50.0103 C.3       23 UNK        -0.0205 
     16 S16         2.3041  -21.1762  -49.2598 S.3       23 UNK        -0.2404 
     17 C17         1.9097  -20.6479  -47.5596 C.3       23 UNK        -0.0398 
     18 CA          0.8564  -21.5733  -46.9048 C.3       11 UNK         0.1400 
     19 N           0.9910  -21.6404  -45.4471 N.am      11 UNK        -0.5000 
     20 C           0.3490  -22.5224  -44.6663 C.2       10 UNK         0.5000 
     21 O          -0.3878  -23.4070  -45.1000 O.2       10 UNK        -0.5000 
     22 CA          0.4994  -22.3506  -43.1437 C.3       10 UNK         0.1400 
     23 CB          1.8271  -22.9402  -42.6479 C.3       10 UNK        -0.1800 
     24 N           0.3830  -20.9507  -42.7331 N.am      10 UNK        -0.5000 
     25 C          -0.7261  -20.2156  -42.8955 C.2       9 UNK         0.5000 
     26 O          -1.7830  -20.6678  -43.3358 O.2       9 UNK        -0.5000 
     27 CA         -0.6330  -18.7176  -42.5570 C.3       9 UNK         0.1400 
     28 CB         -0.9354  -18.4746  -41.0723 C.3       9 UNK        -0.1800 
     29 N           0.6604  -18.1247  -42.9078 N.am      9 UNK        -0.5000 
     30 C           1.1336  -18.0195  -44.1584 C.2       8 UNK         0.5000 
     31 O           0.5040  -18.3709  -45.1564 O.2       8 UNK        -0.5000 
     32 CA          2.5753  -17.4985  -44.3116 C.3       8 UNK         0.1400 
     33 CB          2.6804  -15.9966  -44.0106 C.3       8 UNK        -0.1800 
     34 N           3.5160  -18.2246  -43.4590 N.am      8 UNK        -0.5000 
     35 C           3.8156  -19.5234  -43.5951 C.2       7 UNK         0.5000 
     36 O           3.3510  -20.2410  -44.4795 O.2       7 UNK        -0.5000 
     37 CA          4.7683  -20.1347  -42.5499 C.3       7 UNK         0.1400 
     38 CB          6.2269  -19.9962  -43.0101 C.3       7 UNK        -0.1800 
     39 N           4.6319  -19.5682  -41.2046 N.am      7 UNK        -0.5000 
     40 C           3.5101  -19.5632  -40.4711 C.2       6 UNK         0.5000 
     41 O           2.4299  -19.9930  -40.8811 O.2       6 UNK        -0.5000 
     42 CA          3.5894  -18.9647  -39.0566 C.3       6 UNK         0.1400 
     43 CB          4.9164  -18.2431  -38.7358 C.3       6 UNK        -0.1800 
     44 N           2.4760  -18.0402  -38.9004 N.am      6 UNK        -0.5000 
     45 C           1.8443  -17.7360  -37.7657 C.2       5 UNK         0.5000 
     46 O           2.1446  -18.2103  -36.6684 O.2       5 UNK        -0.5000 
     47 CA          0.7026  -16.7026  -37.8924 C.3       5 UNK         0.1400 
     48 CB          0.0367  -16.3830  -36.5418 C.3       5 UNK        -0.1800 
     49 N           1.1570  -15.4482  -38.5007 N.am      5 UNK        -0.5000 
     50 C           1.4032  -15.2497  -39.8010 C.2       4 UNK         0.5000 
     51 O           1.2856  -16.1235  -40.6667 O.2       4 UNK        -0.5000 
     52 CA          1.9131  -13.8604  -40.1957 C.3       4 UNK         0.1400 
     53 CB          3.4506  -13.8191  -40.1734 C.3       4 UNK        -0.1800 
     54 N           1.4284  -13.5648  -41.5364 N.am      4 UNK        -0.5000 
     55 C           1.2138  -12.3463  -42.0427 C.2       3 UNK         0.5000 
     56 O           1.4538  -11.3024  -41.4345 O.2       3 UNK        -0.5000 
     57 CA          0.6311  -12.2738  -43.4687 C.3       3 UNK         0.1400 
     58 CB          1.7448  -11.9898  -44.4883 C.3       3 UNK        -0.1800 
     59 N          -0.0817  -13.4846  -43.8825 N.am      3 UNK        -0.5000 
     60 C          -1.2434  -13.9191  -43.3807 C.2       2 UNK         0.5000 
     61 O          -1.8609  -13.3343  -42.4895 O.2       2 UNK        -0.5000 
     62 CA         -1.8024  -15.2171  -44.0007 C.3       2 UNK         0.1400 
     63 CB         -3.0633  -15.7263  -43.2799 C.3       2 UNK        -0.1800 
     64 N          -2.1009  -15.0655  -45.4257 N.am      2 UNK        -0.5000 
     65 C          -1.1998  -15.0312  -46.4186 C.2       1 UNK         0.5000 
     66 O           0.0126  -15.1326  -46.2326 O.2       1 UNK        -0.5000 
     67 C          -0.5737  -21.1908  -47.3317 C.2       11 UNK         0.5000 
     68 O          -1.1205  -21.8193  -48.2360 O.2       11 UNK        -0.5000 
     69 N          -1.1766  -20.2112  -46.6418 N.am      12 UNK        -0.5000 
     70 CA         -2.5621  -19.7844  -46.8482 C.3       12 UNK         0.1400 
     71 CB         -2.8758  -18.5903  -45.9360 C.3       12 UNK        -0.1800 
     72 C          -3.5809  -20.9186  -46.6288 C.2       12 UNK         0.5000 
     73 O          -4.5427  -21.0200  -47.3875 O.2       12 UNK        -0.5000 
     74 N          -3.3345  -21.7699  -45.6254 N.am      13 UNK        -0.5000 
     75 CA         -4.1145  -22.9767  -45.3675 C.3       13 UNK         0.1400 
     76 CB         -3.8134  -23.4893  -43.9503 C.3       13 UNK        -0.1800 
     77 C          -3.8614  -24.0713  -46.4219 C.2       13 UNK         0.5000 
     78 O          -4.8194  -24.6058  -46.9809 O.2       13 UNK        -0.5000 
     79 N          -2.5830  -24.3892  -46.6697 N.am      14 UNK        -0.5000 
     80 CA         -2.1508  -25.4919  -47.5311 C.3       14 UNK         0.1400 
     81 CB         -0.6525  -25.7537  -47.3133 C.3       14 UNK        -0.1800 
     82 C          -2.4440  -25.2736  -49.0255 C.2       14 UNK         0.5000 
     83 O          -2.9261  -26.1933  -49.6877 O.2       14 UNK        -0.5000 
     84 N          -2.1437  -24.0714  -49.5306 N.am      15 UNK        -0.5000 
     85 CA         -2.2979  -23.6962  -50.9380 C.3       15 UNK         0.1400 
     86 CB         -1.1178  -22.7965  -51.3426 C.3       15 UNK        -0.1800 
     87 C          -3.6440  -23.0021  -51.2203 C.2       15 UNK         0.5000 
     88 O          -3.8891  -22.6198  -52.3622 O.2       15 UNK        -0.5000 
     89 N          -4.4811  -22.8377  -50.1842 N.am      16 UNK        -0.5000 
     90 CA         -5.8110  -22.2141  -50.1957 C.3       16 UNK         0.1400 
     91 CB         -6.8005  -23.0365  -51.0452 C.3       16 UNK        -0.1800 
     92 C          -5.8038  -20.7125  -50.5645 C.2       16 UNK         0.5000 
     93 O          -6.8288  -20.1895  -51.0044 O.2       16 UNK        -0.5000 
     94 N          -4.6618  -20.0513  -50.3248 N.am      17 UNK        -0.5000 
     95 CA         -4.3996  -18.6176  -50.4511 C.3       17 UNK         0.1400 
     96 CB         -5.1949  -17.8288  -49.3897 C.3       17 UNK        -0.1800 
     97 C          -4.6144  -18.0785  -51.8802 C.2       17 UNK         0.5000 
     98 O          -5.6126  -17.4056  -52.1483 O.2       17 UNK        -0.5000 
     99 N          -3.6397  -18.3634  -52.7544 N.am      18 UNK        -0.5000 
    100 CA        -3.5475  -17.9119  -54.1463 C.3       18 UNK         0.1400 
    101 CB        -3.4894  -16.3679  -54.2280 C.3       18 UNK        -0.1800 
    102 C         -4.6141  -18.5515  -55.0615 C.2       18 UNK         0.5000 
    103 O         -5.1182  -19.6359  -54.7602 O.2       18 UNK        -0.5000 
    104 N         -4.8991  -17.8850  -56.1900 N.am      19 UNK        -0.5000 
    105 CA        -5.7848  -18.3163  -57.2761 C.3       19 UNK         0.1400 
    106 CB        -7.2501  -18.3911  -56.7888 C.3       19 UNK        -0.1800 
    107 C         -5.2898  -19.6106  -57.9611 C.2       19 UNK         0.5000 
    108 O         -4.0895  -19.8972  -57.9453 O.2       19 UNK        -0.5000 
    109 N         -6.2152  -20.3641  -58.5705 N.am      20 UNK        -0.5000 
    110 CA        -5.9451  -21.6026  -59.3070 C.3       20 UNK         0.1400 
    111 CB        -7.2245  -22.0359  -60.0388 C.3       20 UNK        -0.1800 
    112 C         -5.4118  -22.7529  -58.4303 C.2       20 UNK         0.5000 
    113 O         -4.7460  -23.6488  -58.9505 O.2       20 UNK        -0.5000 
    114 N         -5.6838  -22.7017  -57.1188 N.am      21 UNK        -0.5000 
    115 CA        -5.2353  -23.6799  -56.1251 C.3       21 UNK         0.1400 
    116 CB        -5.9400  -23.3934  -54.7942 C.3       21 UNK        -0.1800 
    117 C         -3.7030  -23.7356  -55.9453 C.2       21 UNK         0.5000 
    118 O         -3.1829  -24.7818  -55.5547 O.2       21 UNK        -0.5000 
    119 N         -3.0076  -22.6414  -56.2827 N.am      22 UNK        -0.5000 
    120 CA        -1.5422  -22.5893  -56.4064 C.3       22 UNK         0.1400 
    121 C         -0.9922  -23.2250  -57.7211 C.2       22 UNK         0.5000 
    122 N         -1.8143  -23.6607  -58.6693 N.am      22 UNK        -0.7600 
    123 O          0.2198  -23.3413  -57.8816 O.2       22 UNK        -0.5000 
    124 C124       -1.0097  -21.1455  -56.2160 C.3       23 UNK        -0.0398 
    125 S125       -1.0725  -20.6069  -54.4736 S.3       23 UNK        -0.2404 
    126 C126        0.4117  -19.5581  -54.4153 C.3       23 UNK        -0.0205 
    127 H127       -5.2873  -12.3328  -46.7888 H         1 UNK         0.0600 
    128 H128       -5.0143  -11.8616  -48.4696 H         1 UNK         0.0600 
    129 H129       -5.5014  -13.5143  -48.0839 H         1 UNK         0.0600 
    130 H130       -3.8024  -14.9452  -48.2301 H         1 UNK         0.3000 
    131 H131       -1.0623  -14.1110  -48.3250 H         1 UNK         0.0600 
    132 H132       -2.2870  -16.9131  -48.2791 H         1 UNK         0.0800 
    133 H133       -0.5947  -16.5969  -48.5443 H         1 UNK         0.0800 
    134 H134       -0.3037  -15.1882  -52.0245 H         1 UNK         0.0800 
    135 H135        0.3865  -15.2428  -50.4274 H         1 UNK         0.0800 
    136 H136       -0.6144  -17.2568  -53.3711 H         1 UNK         0.1150 
    137 H137        2.0181  -20.5030  -52.4268 H         1 UNK         0.1150 
    138 H138        1.4648  -17.3098  -49.6215 H         1 UNK         0.1150 
    139 H139        3.7684  -19.8391  -50.6065 H         1 UNK         0.0800 
    140 H140        3.2060  -18.9255  -49.2369 H         1 UNK         0.0800 
    141 H141        1.5937  -19.6028  -47.5421 H         1 UNK         0.0800 
    142 H142        2.8456  -20.6884  -47.0023 H         1 UNK         0.0800 
    143 H143        1.0337  -22.5903  -47.2619 H         1 UNK         0.0600 
    144 H144        1.6172  -20.9663  -45.0167 H         1 UNK         0.3000 
    145 H145       -0.3123  -22.9025  -42.6649 H         1 UNK         0.0600 
    146 H146        1.9428  -22.8083  -41.5719 H         1 UNK         0.0600 
    147 H147        1.8751  -24.0102  -42.8531 H         1 UNK         0.0600 
    148 H148        2.6821  -22.4777  -43.1380 H         1 UNK         0.0600 
    149 H149        1.1947  -20.5237  -42.2963 H         1 UNK         0.3000 
    150 H150       -1.4019  -18.2118  -43.1417 H         1 UNK         0.0600 
    151 H151       -1.8739  -18.9477  -40.7805 H         1 UNK         0.0600 
    152 H152       -1.0350  -17.4099  -40.8626 H         1 UNK         0.0600 
    153 H153       -0.1502  -18.8767  -40.4313 H         1 UNK         0.0600 
    154 H154        1.2270  -17.7953  -42.1376 H         1 UNK         0.3000 
    155 H155        2.8708  -17.6543  -45.3515 H         1 UNK         0.0600 
    156 H156        1.9835  -15.4238  -44.6188 H         1 UNK         0.0600 
    157 H157        3.6800  -15.6221  -44.2316 H         1 UNK         0.0600 
    158 H158        2.4698  -15.7776  -42.9659 H         1 UNK         0.0600 
    159 H159        3.9384  -17.7118  -42.6997 H         1 UNK         0.3000 
    160 H160        4.5378  -21.1987  -42.4786 H         1 UNK         0.0600 
    161 H161        6.3669  -20.4307  -44.0010 H         1 UNK         0.0600 
    162 H162        6.9061  -20.5135  -42.3322 H         1 UNK         0.0600 
    163 H163        6.5352  -18.9513  -43.0632 H         1 UNK         0.0600 
    164 H164        5.4711  -19.1848  -40.7946 H         1 UNK         0.3000 
    165 H165        3.4654  -19.7968  -38.3609 H         1 UNK         0.0600 
    166 H166        4.9081  -17.8450  -37.7210 H         1 UNK         0.0600 
    167 H167        5.7665  -18.9233  -38.7990 H         1 UNK         0.0600 
    168 H168        5.0972  -17.4075  -39.4134 H         1 UNK         0.0600 
    169 H169        2.1388  -17.6029  -39.7524 H         1 UNK         0.3000 
    170 H170       -0.0596  -17.1451  -38.5361 H         1 UNK         0.0600 
    171 H171       -0.3569  -17.2870  -36.0753 H         1 UNK         0.0600 
    172 H172        0.7404  -15.9303  -35.8422 H         1 UNK         0.0600 
    173 H173       -0.8001  -15.6957  -36.6681 H         1 UNK         0.0600 
    174 H174        1.3256  -14.6883  -37.8574 H         1 UNK         0.3000 
    175 H175        1.5132  -13.1264  -39.4928 H         1 UNK         0.0600 
    176 H176        3.8349  -14.0576  -39.1810 H         1 UNK         0.0600 
    177 H177        3.8812  -14.5357  -40.8742 H         1 UNK         0.0600 
    178 H178        3.8235  -12.8292  -40.4366 H         1 UNK         0.0600 
    179 H179        1.1627  -14.3787  -42.0735 H         1 UNK         0.3000 
    180 H180       -0.0762  -11.4422  -43.4919 H         1 UNK         0.0600 
    181 H181        2.4774  -12.7973  -44.5186 H         1 UNK         0.0600 
    182 H182        2.2783  -11.0714  -44.2398 H         1 UNK         0.0600 
    183 H183        1.3385  -11.8670  -45.4926 H         1 UNK         0.0600 
    184 H184        0.3085  -14.0022  -44.6643 H         1 UNK         0.3000 
    185 H185       -1.0289  -15.9775  -43.8913 H         1 UNK         0.0600 
    186 H186       -3.4042  -16.6732  -43.6977 H         1 UNK         0.0600 
    187 H187       -2.8663  -15.8940  -42.2202 H         1 UNK         0.0600 
    188 H188       -3.8855  -15.0136  -43.3539 H         1 UNK         0.0600 
    189 H189       -3.0711  -14.9259  -45.6663 H         1 UNK         0.3000 
    190 H190       -0.6409  -19.7077  -45.9398 H         1 UNK         0.3000 
    191 H191       -2.6453  -19.4549  -47.8853 H         1 UNK         0.0600 
    192 H192       -2.9502  -18.8892  -44.8913 H         1 UNK         0.0600 
    193 H193       -3.8251  -18.1283  -46.2077 H         1 UNK         0.0600 
    194 H194       -2.1039  -17.8265  -46.0062 H         1 UNK         0.0600 
    195 H195       -2.5538  -21.5820  -45.0052 H         1 UNK         0.3000 
    196 H196       -5.1738  -22.7139  -45.4077 H         1 UNK         0.0600 
    197 H197       -2.7608  -23.7435  -43.8243 H         1 UNK         0.0600 
    198 H198       -4.3969  -24.3830  -43.7261 H         1 UNK         0.0600 
    199 H199       -4.0648  -22.7389  -43.2005 H         1 UNK         0.0600 
    200 H200       -1.8488  -23.9091  -46.1539 H         1 UNK         0.3000 
    201 H201       -2.6934  -26.3867  -47.2186 H         1 UNK         0.0600 
    202 H202       -0.4446  -26.0113  -46.2746 H         1 UNK         0.0600 
    203 H203       -0.0510  -24.8802  -47.5677 H         1 UNK         0.0600 
    204 H204       -0.3052  -26.5838  -47.9298 H         1 UNK         0.0600 
    205 H205       -1.7614  -23.3487  -48.9210 H         1 UNK         0.3000 
    206 H206       -2.2588  -24.5914  -51.5619 H         1 UNK         0.0600 
    207 H207       -1.1861  -21.8046  -50.8945 H         1 UNK         0.0600 
    208 H208       -1.0915  -22.6655  -52.4237 H         1 UNK         0.0600 
    209 H209       -0.1628  -23.2319  -51.0483 H         1 UNK         0.0600 
    210 H210       -4.1717  -23.1764  -49.2835 H         1 UNK         0.3000 
    211 H211       -6.1630  -22.2618  -49.1645 H         1 UNK         0.0600 
    212 H212       -6.5860  -22.9456  -52.1084 H         1 UNK         0.0600 
    213 H213       -7.8248  -22.6955  -50.8912 H         1 UNK         0.0600 
    214 H214       -6.7676  -24.0936  -50.7817 H         1 UNK         0.0600 
    215 H215       -3.9009  -20.6046  -49.9590 H         1 UNK         0.3000 
    216 H216       -3.3418  -18.4907  -50.2190 H         1 UNK         0.0600 
    217 H217       -4.9450  -16.7681  -49.4270 H         1 UNK         0.0600 
    218 H218       -4.9703  -18.1835  -48.3846 H         1 UNK         0.0600 
    219 H219       -6.2714  -17.9156  -49.5396 H         1 UNK         0.0600 
    220 H220       -2.8954  -18.9779  -52.4570 H         1 UNK         0.3000 
    221 H221       -2.5903  -18.2734  -54.5149 H         1 UNK         0.0600 
    222 H222       -4.4616  -15.9123  -54.0374 H         1 UNK         0.0600 
    223 H223       -2.7860  -15.9617  -53.5010 H         1 UNK         0.0600 
    224 H224       -3.1544  -16.0332  -55.2100 H         1 UNK         0.0600 
    225 H225       -4.4042  -17.0214  -56.3600 H         1 UNK         0.3000 
    226 H226       -5.7297  -17.5351  -58.0353 H         1 UNK         0.0600 
    227 H227       -7.5289  -17.4855  -56.2497 H         1 UNK         0.0600 
    228 H228       -7.9447  -18.4866  -57.6237 H         1 UNK         0.0600 
    229 H229       -7.4154  -19.2369  -56.1203 H         1 UNK         0.0600 
    230 H230       -7.1784  -20.0628  -58.5395 H         1 UNK         0.3000 
    231 H231       -5.1803  -21.3858  -60.0556 H         1 UNK         0.0600 
    232 H232       -7.0536  -22.9413  -60.6229 H         1 UNK         0.0600 
    233 H233       -7.5645  -21.2651  -60.7307 H         1 UNK         0.0600 
    234 H234       -8.0363  -22.2442  -59.3407 H         1 UNK         0.0600 
    235 H235       -6.2123  -21.9153  -56.7702 H         1 UNK         0.3000 
    236 H236       -5.5531  -24.6667  -56.4679 H         1 UNK         0.0600 
    237 H237       -5.6950  -22.3986  -54.4196 H         1 UNK         0.0600 
    238 H238       -7.0234  -23.4583  -54.8951 H         1 UNK         0.0600 
    239 H239       -5.6398  -24.1153  -54.0337 H         1 UNK         0.0600 
    240 H240       -3.5119  -21.8228  -56.5965 H         1 UNK         0.3000 
    241 H241       -1.1190  -23.1993  -55.6058 H         1 UNK         0.0600 
    242 H242       -1.4230  -24.0724  -59.5015 H         1 UNK         0.3800 
    243 H243       -2.8227  -23.6021  -58.5755 H         1 UNK         0.3800 
    244 H244       -1.5732  -20.4405  -56.8291 H         1 UNK         0.0800 
    245 H245        0.0264  -21.0706  -56.5504 H         1 UNK         0.0800 
    246 H246        1.2803  -20.1457  -54.7170 H         1 UNK         0.0800 
    247 H247        0.3140  -18.7577  -55.1505 H         1 UNK         0.0800 
@<TRIPOS>BOND
     1    1    2 1    
     2    1  127 1    
     3    1  128 1    
     4    1  129 1    
     5    2    3 2    
     6    2    4 am   BACKBONE|DICT|INTERRES
     7    4    5 1    
     8    4  130 1    
     9    5    6 1    
    10    5   65 1    
    11    5  131 1    
    12    6    7 1    
    13    6  132 1    
    14    6  133 1    
    15    7    8 1    
    16    8    9 1    
    17    8  134 1    
    18    8  135 1    
    19    9   10 ar   
    20    9   14 ar   
    21   10   11 ar   
    22   10  136 1    
    23   11   12 ar   
    24   11  126 1    
    25   12   13 ar   
    26   12  137 1    
    27   13   14 ar   
    28   13   15 1    
    29   14  138 1    
    30   15   16 1    
    31   15  139 1    
    32   15  140 1    
    33   16   17 1    
    34   17   18 1    
    35   17  141 1    
    36   17  142 1    
    37   18   19 1    
    38   18   67 1    
    39   18  143 1    
    40   19   20 am   BACKBONE|DICT|INTERRES
    41   19  144 1    
    42   20   21 2    
    43   20   22 1    
    44   22   23 1    
    45   22   24 1    
    46   22  145 1    
    47   23  146 1    
    48   23  147 1    
    49   23  148 1    
    50   24   25 am   BACKBONE|DICT|INTERRES
    51   24  149 1    
    52   25   26 2    
    53   25   27 1    
    54   27   28 1    
    55   27   29 1    
    56   27  150 1    
    57   28  151 1    
    58   28  152 1    
    59   28  153 1    
    60   29   30 am   BACKBONE|DICT|INTERRES
    61   29  154 1    
    62   30   31 2    
    63   30   32 1    
    64   32   33 1    
    65   32   34 1    
    66   32  155 1    
    67   33  156 1    
    68   33  157 1    
    69   33  158 1    
    70   34   35 am   BACKBONE|DICT|INTERRES
    71   34  159 1    
    72   35   36 2    
    73   35   37 1    
    74   37   38 1    
    75   37   39 1    
    76   37  160 1    
    77   38  161 1    
    78   38  162 1    
    79   38  163 1    
    80   39   40 am   BACKBONE|DICT|INTERRES
    81   39  164 1    
    82   40   41 2    
    83   40   42 1    
    84   42   43 1    
    85   42   44 1    
    86   42  165 1    
    87   43  166 1    
    88   43  167 1    
    89   43  168 1    
    90   44   45 am   BACKBONE|DICT|INTERRES
    91   44  169 1    
    92   45   46 2    
    93   45   47 1    
    94   47   48 1    
    95   47   49 1    
    96   47  170 1    
    97   48  171 1    
    98   48  172 1    
    99   48  173 1    
   100   49   50 am   BACKBONE|DICT|INTERRES
   101   49  174 1    
   102   50   51 2    
   103   50   52 1    
   104   52   53 1    
   105   52   54 1    
   106   52  175 1    
   107   53  176 1    
   108   53  177 1    
   109   53  178 1    
   110   54   55 am   BACKBONE|DICT|INTERRES
   111   54  179 1    
   112   55   56 2    
   113   55   57 1    
   114   57   58 1    
   115   57   59 1    
   116   57  180 1    
   117   58  181 1    
   118   58  182 1    
   119   58  183 1    
   120   59   60 am   BACKBONE|DICT|INTERRES
   121   59  184 1    
   122   60   61 2    
   123   60   62 1    
   124   62   63 1    
   125   62   64 1    
   126   62  185 1    
   127   63  186 1    
   128   63  187 1    
   129   63  188 1    
   130   64   65 am   BACKBONE|DICT|INTERRES
   131   64  189 1    
   132   65   66 2    
   133   67   68 2    
   134   67   69 am   BACKBONE|DICT|INTERRES
   135   69   70 1    
   136   69  190 1    
   137   70   71 1    
   138   70   72 1    
   139   70  191 1    
   140   71  192 1    
   141   71  193 1    
   142   71  194 1    
   143   72   73 2    
   144   72   74 am   BACKBONE|DICT|INTERRES
   145   74   75 1    
   146   74  195 1    
   147   75   76 1    
   148   75   77 1    
   149   75  196 1    
   150   76  197 1    
   151   76  198 1    
   152   76  199 1    
   153   77   78 2    
   154   77   79 am   BACKBONE|DICT|INTERRES
   155   79   80 1    
   156   79  200 1    
   157   80   81 1    
   158   80   82 1    
   159   80  201 1    
   160   81  202 1    
   161   81  203 1    
   162   81  204 1    
   163   82   83 2    
   164   82   84 am   BACKBONE|DICT|INTERRES
   165   84   85 1    
   166   84  205 1    
   167   85   86 1    
   168   85   87 1    
   169   85  206 1    
   170   86  207 1    
   171   86  208 1    
   172   86  209 1    
   173   87   88 2    
   174   87   89 am   BACKBONE|DICT|INTERRES
   175   89   90 1    
   176   89  210 1    
   177   90   91 1    
   178   90   92 1    
   179   90  211 1    
   180   91  212 1    
   181   91  213 1    
   182   91  214 1    
   183   92   93 2    
   184   92   94 am   BACKBONE|DICT|INTERRES
   185   94   95 1    
   186   94  215 1    
   187   95   96 1    
   188   95   97 1    
   189   95  216 1    
   190   96  217 1    
   191   96  218 1    
   192   96  219 1    
   193   97   98 2    
   194   97   99 am   BACKBONE|DICT|INTERRES
   195   99  100 1    
   196   99  220 1    
   197  100  101 1    
   198  100  102 1    
   199  100  221 1    
   200  101  222 1    
   201  101  223 1    
   202  101  224 1    
   203  102  103 2    
   204  102  104 am   BACKBONE|DICT|INTERRES
   205  104  105 1    
   206  104  225 1    
   207  105  106 1    
   208  105  107 1    
   209  105  226 1    
   210  106  227 1    
   211  106  228 1    
   212  106  229 1    
   213  107  108 2    
   214  107  109 am   BACKBONE|DICT|INTERRES
   215  109  110 1    
   216  109  230 1    
   217  110  111 1    
   218  110  112 1    
   219  110  231 1    
   220  111  232 1    
   221  111  233 1    
   222  111  234 1    
   223  112  113 2    
   224  112  114 am   BACKBONE|DICT|INTERRES
   225  114  115 1    
   226  114  235 1    
   227  115  116 1    
   228  115  117 1    
   229  115  236 1    
   230  116  237 1    
   231  116  238 1    
   232  116  239 1    
   233  117  118 2    
   234  117  119 am   BACKBONE|DICT|INTERRES
   235  119  120 1    
   236  119  240 1    
   237  120  121 1    
   238  120  124 1    
   239  120  241 1    
   240  121  122 am   BACKBONE|DICT|INTERRES
   241  121  123 2    
   242  122  242 1    
   243  122  243 1    
   244  124  125 1    
   245  124  244 1    
   246  124  245 1    
   247  125  126 1    
   248  126  246 1    
   249  126  247 1    
@<TRIPOS>SUBSTRUCTURE
     1 UNK         1 GROUP             0       ****    0 ROOT    
