@<TRIPOS>MOLECULE
3R540
247   249    1
SMALL
USER_CHARGES


@<TRIPOS>ATOM
      1 CA          4.1841  -10.4910  -47.2192 C.3       0 UNK        -0.1800 
      2 C           5.3694  -11.4072  -46.9501 C.2       0 UNK         0.5000 
      3 O           6.4505  -10.9281  -46.6085 O.2       0 UNK        -0.5000 
      4 N           5.1681  -12.7227  -47.1007 N.am      1 UNK        -0.5000 
      5 CA          6.1828  -13.7628  -46.8659 C.3       1 UNK         0.1400 
      6 C6          5.8070  -15.1051  -47.5428 C.3       23 UNK        -0.0398 
      7 S7          5.6515  -14.9371  -49.3562 S.3       23 UNK        -0.2404 
      8 C8          3.8465  -14.7848  -49.5634 C.3       23 UNK        -0.0205 
      9 C9          3.2085  -16.0438  -50.1339 C.ar      23 UNK        -0.0193 
     10 C10         2.4629  -15.9723  -51.3130 C.ar      23 UNK        -0.1150 
     11 C11         1.8184  -17.1041  -51.8188 C.ar      23 UNK        -0.0193 
     12 C12         1.9263  -18.3206  -51.1396 C.ar      23 UNK        -0.1150 
     13 C13         2.6821  -18.4121  -49.9670 C.ar      23 UNK        -0.0193 
     14 C14         3.3231  -17.2700  -49.4727 C.ar      23 UNK        -0.1150 
     15 C15         2.8062  -19.7435  -49.2385 C.3       23 UNK        -0.0205 
     16 S16         2.2890  -19.5973  -47.5037 S.3       23 UNK        -0.2404 
     17 C17         2.3057  -21.3255  -46.9389 C.3       23 UNK        -0.0398 
     18 CA          0.9025  -21.9475  -46.7337 C.3       11 UNK         0.1400 
     19 N           0.0145  -21.1422  -45.8836 N.am      11 UNK        -0.5000 
     20 C          -0.9684  -21.6707  -45.1400 C.2       10 UNK         0.5000 
     21 O          -1.1831  -22.8801  -45.0615 O.2       10 UNK        -0.5000 
     22 CA         -1.8860  -20.7009  -44.3736 C.3       10 UNK         0.1400 
     23 CB         -1.2346  -20.2379  -43.0616 C.3       10 UNK        -0.1800 
     24 N          -2.2930  -19.5438  -45.1703 N.am      10 UNK        -0.5000 
     25 C          -3.0776  -19.6173  -46.2545 C.2       9 UNK         0.5000 
     26 O          -3.5253  -20.6747  -46.6972 O.2       9 UNK        -0.5000 
     27 CA         -3.4042  -18.2971  -46.9771 C.3       9 UNK         0.1400 
     28 CB         -4.5932  -17.5925  -46.3078 C.3       9 UNK        -0.1800 
     29 N          -2.2685  -17.3787  -47.0351 N.am      9 UNK        -0.5000 
     30 C          -1.1267  -17.6209  -47.6935 C.2       8 UNK         0.5000 
     31 O          -0.9326  -18.6286  -48.3698 O.2       8 UNK        -0.5000 
     32 CA          0.0106  -16.5981  -47.5111 C.3       8 UNK         0.1400 
     33 CB         -0.1820  -15.3867  -48.4335 C.3       8 UNK        -0.1800 
     34 N           0.1612  -16.1566  -46.1211 N.am      8 UNK        -0.5000 
     35 C           0.4164  -16.9781  -45.0899 C.2       7 UNK         0.5000 
     36 O           0.5575  -18.1954  -45.1918 O.2       7 UNK        -0.5000 
     37 CA          0.4770  -16.3426  -43.6940 C.3       7 UNK         0.1400 
     38 CB          1.8312  -15.6624  -43.4694 C.3       7 UNK        -0.1800 
     39 N          -0.6160  -15.3984  -43.4699 N.am      7 UNK        -0.5000 
     40 C          -1.9045  -15.7609  -43.3894 C.2       6 UNK         0.5000 
     41 O          -2.2905  -16.9301  -43.4087 O.2       6 UNK        -0.5000 
     42 CA         -2.9379  -14.6229  -43.3432 C.3       6 UNK         0.1400 
     43 CB         -3.0829  -14.0595  -41.9216 C.3       6 UNK        -0.1800 
     44 N          -2.6039  -13.5466  -44.2773 N.am      6 UNK        -0.5000 
     45 C          -2.6324  -13.6806  -45.6118 C.2       5 UNK         0.5000 
     46 O          -2.9824  -14.7120  -46.1829 O.2       5 UNK        -0.5000 
     47 CA         -2.1746  -12.4779  -46.4561 C.3       5 UNK         0.1400 
     48 CB         -3.3807  -11.6168  -46.8592 C.3       5 UNK        -0.1800 
     49 N          -1.1856  -11.6337  -45.7874 N.am      5 UNK        -0.5000 
     50 C           0.0571  -12.0068  -45.4534 C.2       4 UNK         0.5000 
     51 O           0.5142  -13.1307  -45.6782 O.2       4 UNK        -0.5000 
     52 CA          0.9376  -10.9420  -44.7582 C.3       4 UNK         0.1400 
     53 CB          0.1670   -9.6724  -44.3309 C.3       4 UNK        -0.1800 
     54 N           1.6931  -11.4530  -43.6115 N.am      4 UNK        -0.5000 
     55 C           1.2352  -12.1415  -42.5580 C.2       3 UNK         0.5000 
     56 O           0.0808  -12.5641  -42.4659 O.2       3 UNK        -0.5000 
     57 CA          2.2536  -12.3971  -41.4207 C.3       3 UNK         0.1400 
     58 CB          1.6334  -13.1565  -40.2332 C.3       3 UNK        -0.1800 
     59 N           3.4513  -13.1162  -41.8693 N.am      3 UNK        -0.5000 
     60 C           4.4430  -12.6118  -42.6146 C.2       2 UNK         0.5000 
     61 O           4.4693  -11.4415  -43.0009 O.2       2 UNK        -0.5000 
     62 CA          5.5608  -13.5655  -43.0649 C.3       2 UNK         0.1400 
     63 CB          5.5032  -14.9800  -42.4486 C.3       2 UNK        -0.1800 
     64 N           5.4836  -13.6246  -44.5185 N.am      2 UNK        -0.5000 
     65 C           6.4661  -13.9649  -45.3597 C.2       1 UNK         0.5000 
     66 O           7.5614  -14.3960  -44.9971 O.2       1 UNK        -0.5000 
     67 C           0.2340  -22.3686  -48.0605 C.2       11 UNK         0.5000 
     68 O           0.5935  -23.4188  -48.5947 O.2       11 UNK        -0.5000 
     69 N          -0.7410  -21.5888  -48.5563 N.am      12 UNK        -0.5000 
     70 CA         -1.5778  -21.9508  -49.7052 C.3       12 UNK         0.1400 
     71 CB         -2.4222  -20.7481  -50.1477 C.3       12 UNK        -0.1800 
     72 C          -2.4795  -23.1675  -49.4297 C.2       12 UNK         0.5000 
     73 O          -2.7021  -23.9674  -50.3376 O.2       12 UNK        -0.5000 
     74 N          -2.9427  -23.3142  -48.1797 N.am      13 UNK        -0.5000 
     75 CA         -3.7145  -24.4502  -47.6709 C.3       13 UNK         0.1400 
     76 CB         -4.3930  -24.0341  -46.3552 C.3       13 UNK        -0.1800 
     77 C          -2.8532  -25.7237  -47.5113 C.2       13 UNK         0.5000 
     78 O          -2.7120  -26.2563  -46.4094 O.2       13 UNK        -0.5000 
     79 N          -2.2863  -26.1884  -48.6280 N.am      14 UNK        -0.5000 
     80 CA         -1.4012  -27.3467  -48.7344 C.3       14 UNK         0.1400 
     81 CB         -0.5373  -27.1656  -49.9940 C.3       14 UNK        -0.1800 
     82 C          -2.1487  -28.6951  -48.7825 C.2       14 UNK         0.5000 
     83 O          -1.4972  -29.7335  -48.8940 O.2       14 UNK        -0.5000 
     84 N          -3.4902  -28.6635  -48.7757 N.am      15 UNK        -0.5000 
     85 CA         -4.4513  -29.7674  -48.9351 C.3       15 UNK         0.1400 
     86 CB         -4.1996  -30.9227  -47.9473 C.3       15 UNK        -0.1800 
     87 C          -4.5544  -30.2639  -50.3896 C.2       15 UNK         0.5000 
     88 O          -5.6584  -30.5374  -50.8609 O.2       15 UNK        -0.5000 
     89 N          -3.4203  -30.2860  -51.1020 N.am      16 UNK        -0.5000 
     90 CA         -3.3399  -30.3635  -52.5627 C.3       16 UNK         0.1400 
     91 CB         -1.8925  -30.6916  -52.9597 C.3       16 UNK        -0.1800 
     92 C          -3.8056  -29.0573  -53.2453 C.2       16 UNK         0.5000 
     93 O          -4.1438  -29.0754  -54.4292 O.2       16 UNK        -0.5000 
     94 N          -3.8278  -27.9593  -52.4809 N.am      17 UNK        -0.5000 
     95 CA         -4.3856  -26.6613  -52.8309 C.3       17 UNK         0.1400 
     96 CB         -3.2530  -25.7145  -53.2584 C.3       17 UNK        -0.1800 
     97 C          -5.1331  -26.1219  -51.6013 C.2       17 UNK         0.5000 
     98 O          -4.8231  -26.5150  -50.4711 O.2       17 UNK        -0.5000 
     99 N          -6.1088  -25.2437  -51.8474 N.am      18 UNK        -0.5000 
    100 CA        -6.8989  -24.5663  -50.8222 C.3       18 UNK         0.1400 
    101 CB        -8.3327  -24.3920  -51.3492 C.3       18 UNK        -0.1800 
    102 C         -6.2908  -23.1950  -50.4898 C.2       18 UNK         0.5000 
    103 O         -5.5545  -22.6331  -51.3036 O.2       18 UNK        -0.5000 
    104 N         -6.6703  -22.6480  -49.3254 N.am      19 UNK        -0.5000 
    105 CA        -6.2425  -21.3383  -48.8146 C.3       19 UNK         0.1400 
    106 CB        -6.9663  -21.0568  -47.4887 C.3       19 UNK        -0.1800 
    107 C         -6.4890  -20.1725  -49.7909 C.2       19 UNK         0.5000 
    108 O         -5.6786  -19.2485  -49.8648 O.2       19 UNK        -0.5000 
    109 N         -7.5795  -20.2716  -50.5631 N.am      20 UNK        -0.5000 
    110 CA        -7.9932  -19.3309  -51.6052 C.3       20 UNK         0.1400 
    111 CB        -9.3583  -19.7790  -52.1506 C.3       20 UNK        -0.1800 
    112 C         -6.9838  -19.1535  -52.7597 C.2       20 UNK         0.5000 
    113 O         -7.1062  -18.1837  -53.5089 O.2       20 UNK        -0.5000 
    114 N         -6.0047  -20.0633  -52.8877 N.am      21 UNK        -0.5000 
    115 CA        -4.9218  -19.9743  -53.8674 C.3       21 UNK         0.1400 
    116 CB        -4.2000  -21.3278  -53.9662 C.3       21 UNK        -0.1800 
    117 C         -3.9244  -18.8282  -53.5930 C.2       21 UNK         0.5000 
    118 O         -3.2368  -18.4181  -54.5291 O.2       21 UNK        -0.5000 
    119 N         -3.8654  -18.3118  -52.3543 N.am      22 UNK        -0.5000 
    120 CA        -3.0615  -17.1245  -52.0116 C.3       22 UNK         0.1400 
    121 C         -3.5557  -16.3058  -50.7841 C.2       22 UNK         0.5000 
    122 N         -4.5362  -16.7480  -50.0086 N.am      22 UNK        -0.7600 
    123 O         -3.0603  -15.2094  -50.5425 O.2       22 UNK        -0.5000 
    124 C124       -1.5327  -17.4161  -51.9564 C.3       23 UNK        -0.0398 
    125 S125       -0.5664  -16.1377  -52.8288 S.3       23 UNK        -0.2404 
    126 C126        1.0098  -17.0018  -53.1017 C.3       23 UNK        -0.0205 
    127 H127        4.4162   -9.8084  -48.0366 H         1 UNK         0.0600 
    128 H128        3.9612   -9.8983  -46.3320 H         1 UNK         0.0600 
    129 H129        3.2894  -11.0527  -47.4891 H         1 UNK         0.0600 
    130 H130        4.2641  -13.0507  -47.4049 H         1 UNK         0.3000 
    131 H131        7.1184  -13.4196  -47.3135 H         1 UNK         0.0600 
    132 H132        6.5812  -15.8511  -47.3542 H         1 UNK         0.0800 
    133 H133        4.8876  -15.5149  -47.1211 H         1 UNK         0.0800 
    134 H134        3.3625  -14.5450  -48.6166 H         1 UNK         0.0800 
    135 H135        3.6574  -13.9336  -50.2193 H         1 UNK         0.0800 
    136 H136        2.3647  -15.0299  -51.8335 H         1 UNK         0.1150 
    137 H137        1.4232  -19.1960  -51.5255 H         1 UNK         0.1150 
    138 H138        3.8995  -17.3343  -48.5610 H         1 UNK         0.1150 
    139 H139        2.1984  -20.5069  -49.7267 H         1 UNK         0.0800 
    140 H140        3.8415  -20.0836  -49.2832 H         1 UNK         0.0800 
    141 H141        2.9087  -21.9339  -47.6154 H         1 UNK         0.0800 
    142 H142        2.8379  -21.3403  -45.9871 H         1 UNK         0.0800 
    143 H143        1.0862  -22.8852  -46.2040 H         1 UNK         0.0600 
    144 H144        0.1599  -20.1364  -45.8855 H         1 UNK         0.3000 
    145 H145       -2.7936  -21.2500  -44.1134 H         1 UNK         0.0600 
    146 H146       -1.9067  -19.5955  -42.4925 H         1 UNK         0.0600 
    147 H147       -0.9879  -21.0914  -42.4290 H         1 UNK         0.0600 
    148 H148       -0.3120  -19.6857  -43.2365 H         1 UNK         0.0600 
    149 H149       -1.9659  -18.6369  -44.8604 H         1 UNK         0.3000 
    150 H150       -3.6886  -18.5423  -48.0009 H         1 UNK         0.0600 
    151 H151       -4.8944  -16.7092  -46.8707 H         1 UNK         0.0600 
    152 H152       -4.3523  -17.2748  -45.2928 H         1 UNK         0.0600 
    153 H153       -5.4596  -18.2506  -46.2490 H         1 UNK         0.0600 
    154 H154       -2.3752  -16.4934  -46.5476 H         1 UNK         0.3000 
    155 H155        0.9443  -17.0813  -47.7971 H         1 UNK         0.0600 
    156 H156       -0.1406  -15.6908  -49.4802 H         1 UNK         0.0600 
    157 H157       -1.1485  -14.9105  -48.2748 H         1 UNK         0.0600 
    158 H158        0.5970  -14.6396  -48.2811 H         1 UNK         0.0600 
    159 H159        0.0868  -15.1609  -45.9433 H         1 UNK         0.3000 
    160 H160        0.3833  -17.1477  -42.9619 H         1 UNK         0.0600 
    161 H161        1.9486  -15.3819  -42.4250 H         1 UNK         0.0600 
    162 H162        1.9494  -14.7692  -44.0830 H         1 UNK         0.0600 
    163 H163        2.6476  -16.3417  -43.7170 H         1 UNK         0.0600 
    164 H164       -0.3824  -14.4123  -43.4361 H         1 UNK         0.3000 
    165 H165       -3.9031  -15.0394  -43.6397 H         1 UNK         0.0600 
    166 H166       -3.8517  -13.2879  -41.8799 H         1 UNK         0.0600 
    167 H167       -3.3719  -14.8443  -41.2215 H         1 UNK         0.0600 
    168 H168       -2.1518  -13.6252  -41.5580 H         1 UNK         0.0600 
    169 H169       -2.2592  -12.6847  -43.8792 H         1 UNK         0.3000 
    170 H170       -1.7170  -12.8656  -47.3672 H         1 UNK         0.0600 
    171 H171       -3.8701  -11.1761  -45.9897 H         1 UNK         0.0600 
    172 H172       -3.0831  -10.8068  -47.5253 H         1 UNK         0.0600 
    173 H173       -4.1255  -12.2131  -47.3884 H         1 UNK         0.0600 
    174 H174       -1.4787  -10.6943  -45.5614 H         1 UNK         0.3000 
    175 H175        1.6783  -10.6425  -45.4994 H         1 UNK         0.0600 
    176 H176        0.8373   -8.9512  -43.8628 H         1 UNK         0.0600 
    177 H177       -0.6225   -9.8989  -43.6129 H         1 UNK         0.0600 
    178 H178       -0.2853   -9.1685  -45.1859 H         1 UNK         0.0600 
    179 H179        2.6798  -11.2103  -43.5902 H         1 UNK         0.3000 
    180 H180        2.5642  -11.4170  -41.0526 H         1 UNK         0.0600 
    181 H181        1.2824  -14.1477  -40.5209 H         1 UNK         0.0600 
    182 H182        0.7787  -12.6137  -39.8274 H         1 UNK         0.0600 
    183 H183        2.3522  -13.2767  -39.4225 H         1 UNK         0.0600 
    184 H184        3.5010  -14.0914  -41.6148 H         1 UNK         0.3000 
    185 H185        6.5061  -13.0995  -42.7796 H         1 UNK         0.0600 
    186 H186        4.6146  -15.5268  -42.7584 H         1 UNK         0.0600 
    187 H187        6.3685  -15.5712  -42.7483 H         1 UNK         0.0600 
    188 H188        5.5135  -14.9377  -41.3588 H         1 UNK         0.0600 
    189 H189        4.6442  -13.2265  -44.9155 H         1 UNK         0.3000 
    190 H190       -0.9261  -20.6889  -48.1259 H         1 UNK         0.3000 
    191 H191       -0.9165  -22.2176  -50.5321 H         1 UNK         0.0600 
    192 H192       -1.7916  -19.9478  -50.5308 H         1 UNK         0.0600 
    193 H193       -3.1180  -21.0223  -50.9389 H         1 UNK         0.0600 
    194 H194       -3.0143  -20.3477  -49.3273 H         1 UNK         0.0600 
    195 H195       -2.7283  -22.5877  -47.5073 H         1 UNK         0.3000 
    196 H196       -4.5007  -24.6783  -48.3927 H         1 UNK         0.0600 
    197 H197       -5.0591  -24.8175  -45.9921 H         1 UNK         0.0600 
    198 H198       -4.9882  -23.1338  -46.4883 H         1 UNK         0.0600 
    199 H199       -3.6631  -23.8307  -45.5714 H         1 UNK         0.0600 
    200 H200       -2.4583  -25.6625  -49.4816 H         1 UNK         0.3000 
    201 H201       -0.7423  -27.3681  -47.8642 H         1 UNK         0.0600 
    202 H202        0.0199  -26.2289  -49.9566 H         1 UNK         0.0600 
    203 H203       -1.1443  -27.1574  -50.9002 H         1 UNK         0.0600 
    204 H204        0.1918  -27.9707  -50.0931 H         1 UNK         0.0600 
    205 H205       -3.9114  -27.7423  -48.7809 H         1 UNK         0.3000 
    206 H206       -5.4227  -29.3369  -48.6867 H         1 UNK         0.0600 
    207 H207       -4.1245  -30.5573  -46.9232 H         1 UNK         0.0600 
    208 H208       -5.0208  -31.6397  -47.9778 H         1 UNK         0.0600 
    209 H209       -3.2866  -31.4717  -48.1779 H         1 UNK         0.0600 
    210 H210       -2.5564  -30.1041  -50.6032 H         1 UNK         0.3000 
    211 H211       -3.9882  -31.1717  -52.9073 H         1 UNK         0.0600 
    212 H212       -1.1997  -29.9159  -52.6305 H         1 UNK         0.0600 
    213 H213       -1.7950  -30.7821  -54.0424 H         1 UNK         0.0600 
    214 H214       -1.5691  -31.6374  -52.5247 H         1 UNK         0.0600 
    215 H215       -3.6055  -28.0534  -51.4996 H         1 UNK         0.3000 
    216 H216       -5.1011  -26.7691  -53.6489 H         1 UNK         0.0600 
    217 H217       -3.6344  -24.7151  -53.4725 H         1 UNK         0.0600 
    218 H218       -2.7577  -26.0763  -54.1594 H         1 UNK         0.0600 
    219 H219       -2.4971  -25.6160  -52.4789 H         1 UNK         0.0600 
    220 H220       -6.2512  -24.9239  -52.7942 H         1 UNK         0.3000 
    221 H221       -6.9292  -25.1685  -49.9115 H         1 UNK         0.0600 
    222 H222       -8.3614  -23.7675  -52.2433 H         1 UNK         0.0600 
    223 H223       -8.7788  -25.3548  -51.5995 H         1 UNK         0.0600 
    224 H224       -8.9746  -23.9246  -50.6016 H         1 UNK         0.0600 
    225 H225       -7.3004  -23.1668  -48.7310 H         1 UNK         0.3000 
    226 H226       -5.1697  -21.3951  -48.6283 H         1 UNK         0.0600 
    227 H227       -6.8051  -21.8492  -46.7601 H         1 UNK         0.0600 
    228 H228       -6.6069  -20.1308  -47.0407 H         1 UNK         0.0600 
    229 H229       -8.0428  -20.9550  -47.6316 H         1 UNK         0.0600 
    230 H230       -8.1688  -21.0807  -50.4368 H         1 UNK         0.3000 
    231 H231       -8.1146  -18.3533  -51.1345 H         1 UNK         0.0600 
    232 H232       -9.3017  -20.7668  -52.6099 H         1 UNK         0.0600 
    233 H233       -9.7259  -19.0853  -52.9080 H         1 UNK         0.0600 
    234 H234      -10.1071  -19.8178  -51.3592 H         1 UNK         0.0600 
    235 H235       -5.9635  -20.8451  -52.2417 H         1 UNK         0.3000 
    236 H236       -5.3745  -19.7737  -54.8407 H         1 UNK         0.0600 
    237 H237       -4.8947  -22.1271  -54.2248 H         1 UNK         0.0600 
    238 H238       -3.4303  -21.3043  -54.7386 H         1 UNK         0.0600 
    239 H239       -3.7139  -21.6014  -53.0313 H         1 UNK         0.0600 
    240 H240       -4.4610  -18.6882  -51.6286 H         1 UNK         0.3000 
    241 H241       -3.2425  -16.4325  -52.8369 H         1 UNK         0.0600 
    242 H242       -4.8259  -16.1580  -49.2468 H         1 UNK         0.3800 
    243 H243       -4.9593  -17.6690  -50.0985 H         1 UNK         0.3800 
    244 H244       -1.1731  -17.5048  -50.9299 H         1 UNK         0.0800 
    245 H245       -1.3071  -18.3740  -52.4259 H         1 UNK         0.0800 
    246 H246        1.5878  -16.4510  -53.8452 H         1 UNK         0.0800 
    247 H247        0.8246  -17.9877  -53.5308 H         1 UNK         0.0800 
@<TRIPOS>BOND
     1    1    2 1    
     2    1  127 1    
     3    1  128 1    
     4    1  129 1    
     5    2    3 2    
     6    2    4 am   BACKBONE|DICT|INTERRES
     7    4    5 1    
     8    4  130 1    
     9    5    6 1    
    10    5   65 1    
    11    5  131 1    
    12    6    7 1    
    13    6  132 1    
    14    6  133 1    
    15    7    8 1    
    16    8    9 1    
    17    8  134 1    
    18    8  135 1    
    19    9   10 ar   
    20    9   14 ar   
    21   10   11 ar   
    22   10  136 1    
    23   11   12 ar   
    24   11  126 1    
    25   12   13 ar   
    26   12  137 1    
    27   13   14 ar   
    28   13   15 1    
    29   14  138 1    
    30   15   16 1    
    31   15  139 1    
    32   15  140 1    
    33   16   17 1    
    34   17   18 1    
    35   17  141 1    
    36   17  142 1    
    37   18   19 1    
    38   18   67 1    
    39   18  143 1    
    40   19   20 am   BACKBONE|DICT|INTERRES
    41   19  144 1    
    42   20   21 2    
    43   20   22 1    
    44   22   23 1    
    45   22   24 1    
    46   22  145 1    
    47   23  146 1    
    48   23  147 1    
    49   23  148 1    
    50   24   25 am   BACKBONE|DICT|INTERRES
    51   24  149 1    
    52   25   26 2    
    53   25   27 1    
    54   27   28 1    
    55   27   29 1    
    56   27  150 1    
    57   28  151 1    
    58   28  152 1    
    59   28  153 1    
    60   29   30 am   BACKBONE|DICT|INTERRES
    61   29  154 1    
    62   30   31 2    
    63   30   32 1    
    64   32   33 1    
    65   32   34 1    
    66   32  155 1    
    67   33  156 1    
    68   33  157 1    
    69   33  158 1    
    70   34   35 am   BACKBONE|DICT|INTERRES
    71   34  159 1    
    72   35   36 2    
    73   35   37 1    
    74   37   38 1    
    75   37   39 1    
    76   37  160 1    
    77   38  161 1    
    78   38  162 1    
    79   38  163 1    
    80   39   40 am   BACKBONE|DICT|INTERRES
    81   39  164 1    
    82   40   41 2    
    83   40   42 1    
    84   42   43 1    
    85   42   44 1    
    86   42  165 1    
    87   43  166 1    
    88   43  167 1    
    89   43  168 1    
    90   44   45 am   BACKBONE|DICT|INTERRES
    91   44  169 1    
    92   45   46 2    
    93   45   47 1    
    94   47   48 1    
    95   47   49 1    
    96   47  170 1    
    97   48  171 1    
    98   48  172 1    
    99   48  173 1    
   100   49   50 am   BACKBONE|DICT|INTERRES
   101   49  174 1    
   102   50   51 2    
   103   50   52 1    
   104   52   53 1    
   105   52   54 1    
   106   52  175 1    
   107   53  176 1    
   108   53  177 1    
   109   53  178 1    
   110   54   55 am   BACKBONE|DICT|INTERRES
   111   54  179 1    
   112   55   56 2    
   113   55   57 1    
   114   57   58 1    
   115   57   59 1    
   116   57  180 1    
   117   58  181 1    
   118   58  182 1    
   119   58  183 1    
   120   59   60 am   BACKBONE|DICT|INTERRES
   121   59  184 1    
   122   60   61 2    
   123   60   62 1    
   124   62   63 1    
   125   62   64 1    
   126   62  185 1    
   127   63  186 1    
   128   63  187 1    
   129   63  188 1    
   130   64   65 am   BACKBONE|DICT|INTERRES
   131   64  189 1    
   132   65   66 2    
   133   67   68 2    
   134   67   69 am   BACKBONE|DICT|INTERRES
   135   69   70 1    
   136   69  190 1    
   137   70   71 1    
   138   70   72 1    
   139   70  191 1    
   140   71  192 1    
   141   71  193 1    
   142   71  194 1    
   143   72   73 2    
   144   72   74 am   BACKBONE|DICT|INTERRES
   145   74   75 1    
   146   74  195 1    
   147   75   76 1    
   148   75   77 1    
   149   75  196 1    
   150   76  197 1    
   151   76  198 1    
   152   76  199 1    
   153   77   78 2    
   154   77   79 am   BACKBONE|DICT|INTERRES
   155   79   80 1    
   156   79  200 1    
   157   80   81 1    
   158   80   82 1    
   159   80  201 1    
   160   81  202 1    
   161   81  203 1    
   162   81  204 1    
   163   82   83 2    
   164   82   84 am   BACKBONE|DICT|INTERRES
   165   84   85 1    
   166   84  205 1    
   167   85   86 1    
   168   85   87 1    
   169   85  206 1    
   170   86  207 1    
   171   86  208 1    
   172   86  209 1    
   173   87   88 2    
   174   87   89 am   BACKBONE|DICT|INTERRES
   175   89   90 1    
   176   89  210 1    
   177   90   91 1    
   178   90   92 1    
   179   90  211 1    
   180   91  212 1    
   181   91  213 1    
   182   91  214 1    
   183   92   93 2    
   184   92   94 am   BACKBONE|DICT|INTERRES
   185   94   95 1    
   186   94  215 1    
   187   95   96 1    
   188   95   97 1    
   189   95  216 1    
   190   96  217 1    
   191   96  218 1    
   192   96  219 1    
   193   97   98 2    
   194   97   99 am   BACKBONE|DICT|INTERRES
   195   99  100 1    
   196   99  220 1    
   197  100  101 1    
   198  100  102 1    
   199  100  221 1    
   200  101  222 1    
   201  101  223 1    
   202  101  224 1    
   203  102  103 2    
   204  102  104 am   BACKBONE|DICT|INTERRES
   205  104  105 1    
   206  104  225 1    
   207  105  106 1    
   208  105  107 1    
   209  105  226 1    
   210  106  227 1    
   211  106  228 1    
   212  106  229 1    
   213  107  108 2    
   214  107  109 am   BACKBONE|DICT|INTERRES
   215  109  110 1    
   216  109  230 1    
   217  110  111 1    
   218  110  112 1    
   219  110  231 1    
   220  111  232 1    
   221  111  233 1    
   222  111  234 1    
   223  112  113 2    
   224  112  114 am   BACKBONE|DICT|INTERRES
   225  114  115 1    
   226  114  235 1    
   227  115  116 1    
   228  115  117 1    
   229  115  236 1    
   230  116  237 1    
   231  116  238 1    
   232  116  239 1    
   233  117  118 2    
   234  117  119 am   BACKBONE|DICT|INTERRES
   235  119  120 1    
   236  119  240 1    
   237  120  121 1    
   238  120  124 1    
   239  120  241 1    
   240  121  122 am   BACKBONE|DICT|INTERRES
   241  121  123 2    
   242  122  242 1    
   243  122  243 1    
   244  124  125 1    
   245  124  244 1    
   246  124  245 1    
   247  125  126 1    
   248  126  246 1    
   249  126  247 1    
@<TRIPOS>SUBSTRUCTURE
     1 UNK         1 GROUP             0       ****    0 ROOT    
