@<TRIPOS>MOLECULE
3R540
247   249    1
SMALL
USER_CHARGES


@<TRIPOS>ATOM
      1 CA          3.2198  -14.3081  -49.0538 C.3       0 UNK        -0.1800 
      2 C           2.6759  -13.4435  -47.9260 C.2       0 UNK         0.5000 
      3 O           3.3945  -13.1641  -46.9681 O.2       0 UNK        -0.5000 
      4 N           1.4196  -12.9962  -48.0550 N.am      1 UNK        -0.5000 
      5 CA          0.6306  -12.2812  -47.0378 C.3       1 UNK         0.1400 
      6 C6         -0.8644  -12.1851  -47.4427 C.3       23 UNK        -0.0398 
      7 S7         -1.6935  -13.8094  -47.4055 S.3       23 UNK        -0.2404 
      8 C8         -1.5781  -14.3446  -49.1388 C.3       23 UNK        -0.0205 
      9 C9         -1.5590  -15.8612  -49.2304 C.ar      23 UNK        -0.0193 
     10 C10        -2.6963  -16.5638  -49.6394 C.ar      23 UNK        -0.1150 
     11 C11        -2.6765  -17.9597  -49.7242 C.ar      23 UNK        -0.0193 
     12 C12        -1.5037  -18.6476  -49.3988 C.ar      23 UNK        -0.1150 
     13 C13        -0.3582  -17.9567  -48.9970 C.ar      23 UNK        -0.0193 
     14 C14        -0.3916  -16.5632  -48.9142 C.ar      23 UNK        -0.1150 
     15 C15         0.9157  -18.7208  -48.6763 C.3       23 UNK        -0.0205 
     16 S16         1.0013  -19.1582  -46.9126 S.3       23 UNK        -0.2404 
     17 C17         1.9570  -20.7123  -46.9738 C.3       23 UNK        -0.0398 
     18 CA          1.1289  -21.9981  -46.7191 C.3       11 UNK         0.1400 
     19 N           0.6682  -22.1193  -45.3297 N.am      11 UNK        -0.5000 
     20 C           0.3327  -23.2918  -44.7697 C.2       10 UNK         0.5000 
     21 O           0.3622  -24.3651  -45.3732 O.2       10 UNK        -0.5000 
     22 CA         -0.1518  -23.2665  -43.3082 C.3       10 UNK         0.1400 
     23 CB          1.0424  -23.2135  -42.3439 C.3       10 UNK        -0.1800 
     24 N          -1.0694  -22.1676  -43.0037 N.am      10 UNK        -0.5000 
     25 C          -2.2493  -21.9579  -43.6021 C.2       9 UNK         0.5000 
     26 O          -2.6761  -22.6547  -44.5216 O.2       9 UNK        -0.5000 
     27 CA         -3.0970  -20.7635  -43.1213 C.3       9 UNK         0.1400 
     28 CB         -2.7153  -20.2452  -41.7163 C.3       9 UNK        -0.1800 
     29 N          -3.0904  -19.6694  -44.0969 N.am      9 UNK        -0.5000 
     30 C          -2.0169  -19.0026  -44.5453 C.2       8 UNK         0.5000 
     31 O          -0.8636  -19.2583  -44.1913 O.2       8 UNK        -0.5000 
     32 CA         -2.2553  -17.8625  -45.5603 C.3       8 UNK         0.1400 
     33 CB         -3.7384  -17.5024  -45.7981 C.3       8 UNK        -0.1800 
     34 N          -1.4809  -16.6724  -45.2061 N.am      8 UNK        -0.5000 
     35 C          -1.5488  -15.9610  -44.0721 C.2       7 UNK         0.5000 
     36 O          -2.3743  -16.1626  -43.1788 O.2       7 UNK        -0.5000 
     37 CA         -0.4772  -14.8637  -43.9017 C.3       7 UNK         0.1400 
     38 CB         -0.7002  -13.9890  -42.6565 C.3       7 UNK        -0.1800 
     39 N           0.8653  -15.4416  -43.8401 N.am      7 UNK        -0.5000 
     40 C           1.5654  -15.8795  -44.8958 C.2       6 UNK         0.5000 
     41 O           1.1654  -15.7764  -46.0547 O.2       6 UNK        -0.5000 
     42 CA          2.9088  -16.5683  -44.6007 C.3       6 UNK         0.1400 
     43 CB          3.8931  -16.5211  -45.7827 C.3       6 UNK        -0.1800 
     44 N           3.5398  -15.9848  -43.4187 N.am      6 UNK        -0.5000 
     45 C           4.0484  -16.6798  -42.3934 C.2       5 UNK         0.5000 
     46 O           4.0502  -17.9100  -42.3373 O.2       5 UNK        -0.5000 
     47 CA          4.6674  -15.8797  -41.2283 C.3       5 UNK         0.1400 
     48 CB          6.2015  -15.9526  -41.2858 C.3       5 UNK        -0.1800 
     49 N           4.2699  -14.4713  -41.1920 N.am      5 UNK        -0.5000 
     50 C           3.0432  -14.0153  -40.9034 C.2       4 UNK         0.5000 
     51 O           2.0918  -14.7435  -40.6212 O.2       4 UNK        -0.5000 
     52 CA          2.8443  -12.4880  -40.9780 C.3       4 UNK         0.1400 
     53 CB          3.0385  -11.8527  -39.5931 C.3       4 UNK        -0.1800 
     54 N           3.7397  -11.8325  -41.9386 N.am      4 UNK        -0.5000 
     55 C           3.6954  -12.0229  -43.2636 C.2       3 UNK         0.5000 
     56 O           2.8957  -12.7820  -43.8145 O.2       3 UNK        -0.5000 
     57 CA          4.7565  -11.2925  -44.0990 C.3       3 UNK         0.1400 
     58 CB          5.9065  -12.2522  -44.4437 C.3       3 UNK        -0.1800 
     59 N           4.1459  -10.8232  -45.3374 N.am      3 UNK        -0.5000 
     60 C           3.8522   -9.5464  -45.6206 C.2       2 UNK         0.5000 
     61 O           4.1738   -8.5966  -44.9051 O.2       2 UNK        -0.5000 
     62 CA          3.0486   -9.2742  -46.9118 C.3       2 UNK         0.1400 
     63 CB          3.9919   -8.8966  -48.0640 C.3       2 UNK        -0.1800 
     64 N           2.2293  -10.4143  -47.3239 N.am      2 UNK        -0.5000 
     65 C           1.1885  -10.8971  -46.6315 C.2       1 UNK         0.5000 
     66 O           0.6857  -10.3041  -45.6758 O.2       1 UNK        -0.5000 
     67 C          -0.0229  -22.1874  -47.7315 C.2       11 UNK         0.5000 
     68 O           0.2219  -22.6462  -48.8472 O.2       11 UNK        -0.5000 
     69 N          -1.2571  -21.8655  -47.3148 N.am      12 UNK        -0.5000 
     70 CA         -2.4736  -22.1277  -48.0770 C.3       12 UNK         0.1400 
     71 CB         -3.6291  -21.2671  -47.5454 C.3       12 UNK        -0.1800 
     72 C          -2.8219  -23.6212  -48.0464 C.2       12 UNK         0.5000 
     73 O          -3.0618  -24.2005  -49.1028 O.2       12 UNK        -0.5000 
     74 N          -2.7873  -24.2333  -46.8545 N.am      13 UNK        -0.5000 
     75 CA         -3.0312  -25.6605  -46.6311 C.3       13 UNK         0.1400 
     76 CB         -2.9690  -25.9633  -45.1270 C.3       13 UNK        -0.1800 
     77 C          -2.0650  -26.5694  -47.4127 C.2       13 UNK         0.5000 
     78 O          -2.5046  -27.5610  -47.9952 O.2       13 UNK        -0.5000 
     79 N          -0.7851  -26.1750  -47.4775 N.am      14 UNK        -0.5000 
     80 CA          0.2579  -26.8267  -48.2761 C.3       14 UNK         0.1400 
     81 CB          1.6100  -26.1707  -47.9581 C.3       14 UNK        -0.1800 
     82 C          -0.0056  -26.7994  -49.7978 C.2       14 UNK         0.5000 
     83 O           0.4806  -27.6775  -50.5110 O.2       14 UNK        -0.5000 
     84 N          -0.7786  -25.8096  -50.2609 N.am      15 UNK        -0.5000 
     85 CA         -1.2043  -25.6314  -51.6492 C.3       15 UNK         0.1400 
     86 CB         -1.1004  -24.1337  -51.9829 C.3       15 UNK        -0.1800 
     87 C          -2.6392  -26.1465  -51.8925 C.2       15 UNK         0.5000 
     88 O          -3.1772  -25.9306  -52.9796 O.2       15 UNK        -0.5000 
     89 N          -3.2567  -26.7719  -50.8754 N.am      16 UNK        -0.5000 
     90 CA         -4.6546  -27.2228  -50.8278 C.3       16 UNK         0.1400 
     91 CB         -4.8758  -28.4078  -51.7902 C.3       16 UNK        -0.1800 
     92 C          -5.6671  -26.0753  -51.0484 C.2       16 UNK         0.5000 
     93 O          -6.7424  -26.2953  -51.6096 O.2       16 UNK        -0.5000 
     94 N          -5.2796  -24.8625  -50.6274 N.am      17 UNK        -0.5000 
     95 CA         -5.9129  -23.5530  -50.7946 C.3       17 UNK         0.1400 
     96 CB         -7.2821  -23.4932  -50.0938 C.3       17 UNK        -0.1800 
     97 C          -6.0001  -23.0786  -52.2569 C.2       17 UNK         0.5000 
     98 O          -5.5568  -21.9695  -52.5592 O.2       17 UNK        -0.5000 
     99 N          -6.5634  -23.9224  -53.1281 N.am      18 UNK        -0.5000 
    100 CA        -6.9213  -23.6324  -54.5140 C.3       18 UNK         0.1400 
    101 CB        -7.6391  -24.8512  -55.1124 C.3       18 UNK        -0.1800 
    102 C         -5.7429  -23.2088  -55.4054 C.2       18 UNK         0.5000 
    103 O         -5.8920  -22.2621  -56.1782 O.2       18 UNK        -0.5000 
    104 N         -4.5884  -23.8805  -55.2755 N.am      19 UNK        -0.5000 
    105 CA        -3.3995  -23.5946  -56.0890 C.3       19 UNK         0.1400 
    106 CB        -2.4211  -24.7765  -56.0235 C.3       19 UNK        -0.1800 
    107 C         -2.7017  -22.2749  -55.7042 C.2       19 UNK         0.5000 
    108 O         -1.9929  -21.7033  -56.5330 O.2       19 UNK        -0.5000 
    109 N         -2.9365  -21.8035  -54.4728 N.am      20 UNK        -0.5000 
    110 CA        -2.4848  -20.5055  -53.9700 C.3       20 UNK         0.1400 
    111 CB        -2.0479  -20.6759  -52.5076 C.3       20 UNK        -0.1800 
    112 C         -3.5644  -19.4103  -54.1134 C.2       20 UNK         0.5000 
    113 O         -3.2962  -18.2583  -53.7732 O.2       20 UNK        -0.5000 
    114 N         -4.7522  -19.7808  -54.6156 N.am      21 UNK        -0.5000 
    115 CA        -5.9402  -18.9494  -54.8313 C.3       21 UNK         0.1400 
    116 CB        -5.6567  -17.8193  -55.8438 C.3       21 UNK        -0.1800 
    117 C         -6.6079  -18.4497  -53.5307 C.2       21 UNK         0.5000 
    118 O         -7.2499  -17.3973  -53.5405 O.2       21 UNK        -0.5000 
    119 N         -6.4873  -19.2257  -52.4462 N.am      22 UNK        -0.5000 
    120 CA        -7.2884  -19.0635  -51.2226 C.3       22 UNK         0.1400 
    121 C         -8.6796  -19.7400  -51.3804 C.2       22 UNK         0.5000 
    122 N         -9.6879  -19.2625  -50.6640 N.am      22 UNK        -0.7600 
    123 O         -8.8516  -20.7107  -52.1150 O.2       22 UNK        -0.5000 
    124 C124       -6.5453  -19.6076  -49.9727 C.3       23 UNK        -0.0398 
    125 S125       -5.3922  -18.3942  -49.2481 S.3       23 UNK        -0.2404 
    126 C126       -3.8951  -18.7261  -50.2205 C.3       23 UNK        -0.0205 
    127 H127        2.5016  -14.4142  -49.8672 H         1 UNK         0.0600 
    128 H128        4.1321  -13.8697  -49.4580 H         1 UNK         0.0600 
    129 H129        3.4550  -15.3036  -48.6779 H         1 UNK         0.0600 
    130 H130        0.9083  -13.2459  -48.8869 H         1 UNK         0.3000 
    131 H131        0.6978  -12.8794  -46.1279 H         1 UNK         0.0600 
    132 H132       -0.9775  -11.7251  -48.4257 H         1 UNK         0.0800 
    133 H133       -1.4148  -11.5475  -46.7483 H         1 UNK         0.0800 
    134 H134       -0.6762  -13.9507  -49.6060 H         1 UNK         0.0800 
    135 H135       -2.4186  -13.9308  -49.6978 H         1 UNK         0.0800 
    136 H136       -3.5982  -16.0264  -49.8963 H         1 UNK         0.1150 
    137 H137       -1.4701  -19.7239  -49.4748 H         1 UNK         0.1150 
    138 H138        0.4899  -16.0241  -48.5968 H         1 UNK         0.1150 
    139 H139        0.9571  -19.6207  -49.2919 H         1 UNK         0.0800 
    140 H140        1.7916  -18.1262  -48.9402 H         1 UNK         0.0800 
    141 H141        2.4715  -20.7866  -47.9331 H         1 UNK         0.0800 
    142 H142        2.7521  -20.6412  -46.2305 H         1 UNK         0.0800 
    143 H143        1.8149  -22.8301  -46.8949 H         1 UNK         0.0600 
    144 H144        0.5745  -21.2631  -44.7980 H         1 UNK         0.3000 
    145 H145       -0.6901  -24.1991  -43.1276 H         1 UNK         0.0600 
    146 H146        0.7168  -23.3026  -41.3073 H         1 UNK         0.0600 
    147 H147        1.7367  -24.0326  -42.5363 H         1 UNK         0.0600 
    148 H148        1.5991  -22.2807  -42.4424 H         1 UNK         0.0600 
    149 H149       -0.7760  -21.5168  -42.2899 H         1 UNK         0.3000 
    150 H150       -4.1250  -21.1249  -43.0676 H         1 UNK         0.0600 
    151 H151       -2.7508  -21.0479  -40.9785 H         1 UNK         0.0600 
    152 H152       -3.4137  -19.4761  -41.3861 H         1 UNK         0.0600 
    153 H153       -1.7159  -19.8103  -41.6873 H         1 UNK         0.0600 
    154 H154       -3.9959  -19.4003  -44.4538 H         1 UNK         0.3000 
    155 H155       -1.8520  -18.2154  -46.5088 H         1 UNK         0.0600 
    156 H156       -3.8261  -16.7022  -46.5337 H         1 UNK         0.0600 
    157 H157       -4.2336  -17.1692  -44.8856 H         1 UNK         0.0600 
    158 H158       -4.2964  -18.3522  -46.1921 H         1 UNK         0.0600 
    159 H159       -0.7172  -16.4487  -45.8381 H         1 UNK         0.3000 
    160 H160       -0.5443  -14.2100  -44.7699 H         1 UNK         0.0600 
    161 H161       -0.6021  -14.5640  -41.7349 H         1 UNK         0.0600 
    162 H162       -1.6949  -13.5419  -42.6646 H         1 UNK         0.0600 
    163 H163        0.0203  -13.1721  -42.6227 H         1 UNK         0.0600 
    164 H164        1.2517  -15.5773  -42.9164 H         1 UNK         0.3000 
    165 H165        2.6590  -17.6155  -44.4182 H         1 UNK         0.0600 
    166 H166        4.1951  -15.4991  -46.0092 H         1 UNK         0.0600 
    167 H167        4.7941  -17.0942  -45.5646 H         1 UNK         0.0600 
    168 H168        3.4501  -16.9467  -46.6839 H         1 UNK         0.0600 
    169 H169        3.5423  -14.9724  -43.3812 H         1 UNK         0.3000 
    170 H170        4.3360  -16.3489  -40.2996 H         1 UNK         0.0600 
    171 H171        6.5452  -16.9879  -41.2791 H         1 UNK         0.0600 
    172 H172        6.5924  -15.4830  -42.1894 H         1 UNK         0.0600 
    173 H173        6.6533  -15.4573  -40.4261 H         1 UNK         0.0600 
    174 H174        4.9863  -13.7960  -41.4134 H         1 UNK         0.3000 
    175 H175        1.8163  -12.3039  -41.2951 H         1 UNK         0.0600 
    176 H176        4.0581  -11.9837  -39.2285 H         1 UNK         0.0600 
    177 H177        2.8234  -10.7841  -39.6153 H         1 UNK         0.0600 
    178 H178        2.3674  -12.3023  -38.8599 H         1 UNK         0.0600 
    179 H179        4.4272  -11.2003  -41.5538 H         1 UNK         0.3000 
    180 H180        5.1590  -10.4575  -43.5219 H         1 UNK         0.0600 
    181 H181        5.5537  -13.1180  -45.0067 H         1 UNK         0.0600 
    182 H182        6.3932  -12.6226  -43.5407 H         1 UNK         0.0600 
    183 H183        6.6681  -11.7531  -45.0429 H         1 UNK         0.0600 
    184 H184        3.7957  -11.5603  -45.9455 H         1 UNK         0.3000 
    185 H185        2.3851   -8.4288  -46.7184 H         1 UNK         0.0600 
    186 H186        4.6017   -8.0311  -47.8015 H         1 UNK         0.0600 
    187 H187        4.6708   -9.7137  -48.3117 H         1 UNK         0.0600 
    188 H188        3.4330   -8.6384  -48.9637 H         1 UNK         0.0600 
    189 H189        2.5851  -10.9754  -48.0839 H         1 UNK         0.3000 
    190 H190       -1.3718  -21.5409  -46.3658 H         1 UNK         0.3000 
    191 H191       -2.3003  -21.8521  -49.1192 H         1 UNK         0.0600 
    192 H192       -4.5261  -21.4062  -48.1495 H         1 UNK         0.0600 
    193 H193       -3.3760  -20.2081  -47.5786 H         1 UNK         0.0600 
    194 H194       -3.8899  -21.5140  -46.5171 H         1 UNK         0.0600 
    195 H195       -2.6171  -23.6709  -46.0229 H         1 UNK         0.3000 
    196 H196       -4.0425  -25.8772  -46.9810 H         1 UNK         0.0600 
    197 H197       -3.1774  -27.0158  -44.9306 H         1 UNK         0.0600 
    198 H198       -3.7051  -25.3773  -44.5765 H         1 UNK         0.0600 
    199 H199       -1.9861  -25.7393  -44.7119 H         1 UNK         0.0600 
    200 H200       -0.4965  -25.3761  -46.9214 H         1 UNK         0.3000 
    201 H201        0.3042  -27.8740  -47.9710 H         1 UNK         0.0600 
    202 H202        1.8511  -26.2566  -46.8984 H         1 UNK         0.0600 
    203 H203        1.6115  -25.1114  -48.2175 H         1 UNK         0.0600 
    204 H204        2.4182  -26.6472  -48.5145 H         1 UNK         0.0600 
    205 H205       -1.1609  -25.1436  -49.6008 H         1 UNK         0.3000 
    206 H206       -0.5415  -26.1793  -52.3214 H         1 UNK         0.0600 
    207 H207       -0.0946  -23.7570  -51.7962 H         1 UNK         0.0600 
    208 H208       -1.3265  -23.9406  -53.0307 H         1 UNK         0.0600 
    209 H209       -1.7927  -23.5408  -51.3847 H         1 UNK         0.0600 
    210 H210       -2.7393  -26.8945  -50.0130 H         1 UNK         0.3000 
    211 H211       -4.8233  -27.5839  -49.8125 H         1 UNK         0.0600 
    212 H212       -4.7872  -28.1044  -52.8338 H         1 UNK         0.0600 
    213 H213       -5.8688  -28.8390  -51.6587 H         1 UNK         0.0600 
    214 H214       -4.1520  -29.2023  -51.6090 H         1 UNK         0.0600 
    215 H215       -4.3696  -24.8093  -50.1721 H         1 UNK         0.3000 
    216 H216       -5.2552  -22.8498  -50.2821 H         1 UNK         0.0600 
    217 H217       -8.0020  -24.1790  -50.5408 H         1 UNK         0.0600 
    218 H218       -7.7093  -22.4923  -50.1561 H         1 UNK         0.0600 
    219 H219       -7.1927  -23.7431  -49.0367 H         1 UNK         0.0600 
    220 H220       -6.8402  -24.8313  -52.7655 H         1 UNK         0.3000 
    221 H221       -7.6276  -22.7998  -54.4930 H         1 UNK         0.0600 
    222 H222       -7.0002  -25.7354  -55.1089 H         1 UNK         0.0600 
    223 H223       -8.5433  -25.0900  -54.5520 H         1 UNK         0.0600 
    224 H224       -7.9374  -24.6635  -56.1447 H         1 UNK         0.0600 
    225 H225       -4.5148  -24.6277  -54.5963 H         1 UNK         0.3000 
    226 H226       -3.7215  -23.4960  -57.1280 H         1 UNK         0.0600 
    227 H227       -2.9116  -25.7133  -56.2879 H         1 UNK         0.0600 
    228 H228       -1.5950  -24.6338  -56.7211 H         1 UNK         0.0600 
    229 H229       -1.9883  -24.8920  -55.0318 H         1 UNK         0.0600 
    230 H230       -3.5564  -22.3258  -53.8683 H         1 UNK         0.3000 
    231 H231       -1.6161  -20.1655  -54.5373 H         1 UNK         0.0600 
    232 H232       -2.8398  -21.1134  -51.8998 H         1 UNK         0.0600 
    233 H233       -1.1734  -21.3213  -52.4355 H         1 UNK         0.0600 
    234 H234       -1.7696  -19.7186  -52.0672 H         1 UNK         0.0600 
    235 H235       -4.8678  -20.7532  -54.8695 H         1 UNK         0.3000 
    236 H236       -6.6735  -19.6123  -55.2926 H         1 UNK         0.0600 
    237 H237       -5.1961  -18.2095  -56.7514 H         1 UNK         0.0600 
    238 H238       -6.5795  -17.3194  -56.1402 H         1 UNK         0.0600 
    239 H239       -4.9943  -17.0589  -55.4298 H         1 UNK         0.0600 
    240 H240       -6.0127  -20.1188  -52.5468 H         1 UNK         0.3000 
    241 H241       -7.4750  -17.9987  -51.0681 H         1 UNK         0.0600 
    242 H242       -9.5757  -18.4700  -50.0502 H         1 UNK         0.3800 
    243 H243      -10.5940  -19.6972  -50.7468 H         1 UNK         0.3800 
    244 H244       -7.2490  -19.8573  -49.1763 H         1 UNK         0.0800 
    245 H245       -6.0193  -20.5345  -50.1990 H         1 UNK         0.0800 
    246 H246       -4.0798  -18.4514  -51.2578 H         1 UNK         0.0800 
    247 H247       -3.7037  -19.7984  -50.2045 H         1 UNK         0.0800 
@<TRIPOS>BOND
     1    1    2 1    
     2    1  127 1    
     3    1  128 1    
     4    1  129 1    
     5    2    3 2    
     6    2    4 am   BACKBONE|DICT|INTERRES
     7    4    5 1    
     8    4  130 1    
     9    5    6 1    
    10    5   65 1    
    11    5  131 1    
    12    6    7 1    
    13    6  132 1    
    14    6  133 1    
    15    7    8 1    
    16    8    9 1    
    17    8  134 1    
    18    8  135 1    
    19    9   10 ar   
    20    9   14 ar   
    21   10   11 ar   
    22   10  136 1    
    23   11   12 ar   
    24   11  126 1    
    25   12   13 ar   
    26   12  137 1    
    27   13   14 ar   
    28   13   15 1    
    29   14  138 1    
    30   15   16 1    
    31   15  139 1    
    32   15  140 1    
    33   16   17 1    
    34   17   18 1    
    35   17  141 1    
    36   17  142 1    
    37   18   19 1    
    38   18   67 1    
    39   18  143 1    
    40   19   20 am   BACKBONE|DICT|INTERRES
    41   19  144 1    
    42   20   21 2    
    43   20   22 1    
    44   22   23 1    
    45   22   24 1    
    46   22  145 1    
    47   23  146 1    
    48   23  147 1    
    49   23  148 1    
    50   24   25 am   BACKBONE|DICT|INTERRES
    51   24  149 1    
    52   25   26 2    
    53   25   27 1    
    54   27   28 1    
    55   27   29 1    
    56   27  150 1    
    57   28  151 1    
    58   28  152 1    
    59   28  153 1    
    60   29   30 am   BACKBONE|DICT|INTERRES
    61   29  154 1    
    62   30   31 2    
    63   30   32 1    
    64   32   33 1    
    65   32   34 1    
    66   32  155 1    
    67   33  156 1    
    68   33  157 1    
    69   33  158 1    
    70   34   35 am   BACKBONE|DICT|INTERRES
    71   34  159 1    
    72   35   36 2    
    73   35   37 1    
    74   37   38 1    
    75   37   39 1    
    76   37  160 1    
    77   38  161 1    
    78   38  162 1    
    79   38  163 1    
    80   39   40 am   BACKBONE|DICT|INTERRES
    81   39  164 1    
    82   40   41 2    
    83   40   42 1    
    84   42   43 1    
    85   42   44 1    
    86   42  165 1    
    87   43  166 1    
    88   43  167 1    
    89   43  168 1    
    90   44   45 am   BACKBONE|DICT|INTERRES
    91   44  169 1    
    92   45   46 2    
    93   45   47 1    
    94   47   48 1    
    95   47   49 1    
    96   47  170 1    
    97   48  171 1    
    98   48  172 1    
    99   48  173 1    
   100   49   50 am   BACKBONE|DICT|INTERRES
   101   49  174 1    
   102   50   51 2    
   103   50   52 1    
   104   52   53 1    
   105   52   54 1    
   106   52  175 1    
   107   53  176 1    
   108   53  177 1    
   109   53  178 1    
   110   54   55 am   BACKBONE|DICT|INTERRES
   111   54  179 1    
   112   55   56 2    
   113   55   57 1    
   114   57   58 1    
   115   57   59 1    
   116   57  180 1    
   117   58  181 1    
   118   58  182 1    
   119   58  183 1    
   120   59   60 am   BACKBONE|DICT|INTERRES
   121   59  184 1    
   122   60   61 2    
   123   60   62 1    
   124   62   63 1    
   125   62   64 1    
   126   62  185 1    
   127   63  186 1    
   128   63  187 1    
   129   63  188 1    
   130   64   65 am   BACKBONE|DICT|INTERRES
   131   64  189 1    
   132   65   66 2    
   133   67   68 2    
   134   67   69 am   BACKBONE|DICT|INTERRES
   135   69   70 1    
   136   69  190 1    
   137   70   71 1    
   138   70   72 1    
   139   70  191 1    
   140   71  192 1    
   141   71  193 1    
   142   71  194 1    
   143   72   73 2    
   144   72   74 am   BACKBONE|DICT|INTERRES
   145   74   75 1    
   146   74  195 1    
   147   75   76 1    
   148   75   77 1    
   149   75  196 1    
   150   76  197 1    
   151   76  198 1    
   152   76  199 1    
   153   77   78 2    
   154   77   79 am   BACKBONE|DICT|INTERRES
   155   79   80 1    
   156   79  200 1    
   157   80   81 1    
   158   80   82 1    
   159   80  201 1    
   160   81  202 1    
   161   81  203 1    
   162   81  204 1    
   163   82   83 2    
   164   82   84 am   BACKBONE|DICT|INTERRES
   165   84   85 1    
   166   84  205 1    
   167   85   86 1    
   168   85   87 1    
   169   85  206 1    
   170   86  207 1    
   171   86  208 1    
   172   86  209 1    
   173   87   88 2    
   174   87   89 am   BACKBONE|DICT|INTERRES
   175   89   90 1    
   176   89  210 1    
   177   90   91 1    
   178   90   92 1    
   179   90  211 1    
   180   91  212 1    
   181   91  213 1    
   182   91  214 1    
   183   92   93 2    
   184   92   94 am   BACKBONE|DICT|INTERRES
   185   94   95 1    
   186   94  215 1    
   187   95   96 1    
   188   95   97 1    
   189   95  216 1    
   190   96  217 1    
   191   96  218 1    
   192   96  219 1    
   193   97   98 2    
   194   97   99 am   BACKBONE|DICT|INTERRES
   195   99  100 1    
   196   99  220 1    
   197  100  101 1    
   198  100  102 1    
   199  100  221 1    
   200  101  222 1    
   201  101  223 1    
   202  101  224 1    
   203  102  103 2    
   204  102  104 am   BACKBONE|DICT|INTERRES
   205  104  105 1    
   206  104  225 1    
   207  105  106 1    
   208  105  107 1    
   209  105  226 1    
   210  106  227 1    
   211  106  228 1    
   212  106  229 1    
   213  107  108 2    
   214  107  109 am   BACKBONE|DICT|INTERRES
   215  109  110 1    
   216  109  230 1    
   217  110  111 1    
   218  110  112 1    
   219  110  231 1    
   220  111  232 1    
   221  111  233 1    
   222  111  234 1    
   223  112  113 2    
   224  112  114 am   BACKBONE|DICT|INTERRES
   225  114  115 1    
   226  114  235 1    
   227  115  116 1    
   228  115  117 1    
   229  115  236 1    
   230  116  237 1    
   231  116  238 1    
   232  116  239 1    
   233  117  118 2    
   234  117  119 am   BACKBONE|DICT|INTERRES
   235  119  120 1    
   236  119  240 1    
   237  120  121 1    
   238  120  124 1    
   239  120  241 1    
   240  121  122 am   BACKBONE|DICT|INTERRES
   241  121  123 2    
   242  122  242 1    
   243  122  243 1    
   244  124  125 1    
   245  124  244 1    
   246  124  245 1    
   247  125  126 1    
   248  126  246 1    
   249  126  247 1    
@<TRIPOS>SUBSTRUCTURE
     1 UNK         1 GROUP             0       ****    0 ROOT    
