@<TRIPOS>MOLECULE
3R540
247   249    1
SMALL
USER_CHARGES


@<TRIPOS>ATOM
      1 CA          4.2876  -10.8970  -48.2856 C.3       0 UNK        -0.1800 
      2 C           3.8719  -11.8695  -47.1917 C.2       0 UNK         0.5000 
      3 O           4.4571  -11.8617  -46.1082 O.2       0 UNK        -0.5000 
      4 N           2.8505  -12.6955  -47.4613 N.am      1 UNK        -0.5000 
      5 CA          2.3434  -13.7437  -46.5608 C.3       1 UNK         0.1400 
      6 C6          1.3143  -14.6761  -47.2466 C.3       23 UNK        -0.0398 
      7 S7          1.9540  -15.4292  -48.7812 S.3       23 UNK        -0.2404 
      8 C8          0.6945  -14.9235  -49.9936 C.3       23 UNK        -0.0205 
      9 C9         -0.4183  -15.9535  -50.1492 C.ar      23 UNK        -0.0193 
     10 C10        -0.4528  -16.7649  -51.2869 C.ar      23 UNK        -0.1150 
     11 C11        -1.5123  -17.6494  -51.5016 C.ar      23 UNK        -0.0193 
     12 C12        -2.5339  -17.7348  -50.5526 C.ar      23 UNK        -0.1150 
     13 C13        -2.5071  -16.9482  -49.3967 C.ar      23 UNK        -0.0193 
     14 C14        -1.4441  -16.0578  -49.2021 C.ar      23 UNK        -0.1150 
     15 C15        -3.6634  -16.9946  -48.3999 C.3       23 UNK        -0.0205 
     16 S16        -4.1459  -18.6818  -47.8917 S.3       23 UNK        -0.2404 
     17 C17        -2.6766  -19.2084  -46.9501 C.3       23 UNK        -0.0398 
     18 CA         -1.9380  -20.3809  -47.6445 C.3       11 UNK         0.1400 
     19 N          -0.5035  -20.1213  -47.7659 N.am      11 UNK        -0.5000 
     20 C           0.3594  -20.8407  -48.4877 C.2       10 UNK         0.5000 
     21 O           0.0677  -21.9096  -49.0212 O.2       10 UNK        -0.5000 
     22 CA          1.7852  -20.2822  -48.6562 C.3       10 UNK         0.1400 
     23 CB          1.8036  -19.1673  -49.7171 C.3       10 UNK        -0.1800 
     24 N           2.4526  -19.8448  -47.4219 N.am      10 UNK        -0.5000 
     25 C           2.1246  -18.8533  -46.5819 C.2       9 UNK         0.5000 
     26 O           1.1047  -18.1666  -46.6682 O.2       9 UNK        -0.5000 
     27 CA          3.1093  -18.5921  -45.4320 C.3       9 UNK         0.1400 
     28 CB          3.5557  -17.1231  -45.4059 C.3       9 UNK        -0.1800 
     29 N           2.4784  -18.9350  -44.1627 N.am      9 UNK        -0.5000 
     30 C           2.3650  -20.1839  -43.6953 C.2       8 UNK         0.5000 
     31 O           2.8912  -21.1632  -44.2257 O.2       8 UNK        -0.5000 
     32 CA          1.4995  -20.3797  -42.4365 C.3       8 UNK         0.1400 
     33 CB          2.3632  -20.3430  -41.1674 C.3       8 UNK        -0.1800 
     34 N           0.3986  -19.4198  -42.3041 N.am      8 UNK        -0.5000 
     35 C          -0.6354  -19.3233  -43.1526 C.2       7 UNK         0.5000 
     36 O          -0.7076  -19.9398  -44.2150 O.2       7 UNK        -0.5000 
     37 CA         -1.7807  -18.3861  -42.7501 C.3       7 UNK         0.1400 
     38 CB         -2.0787  -18.4113  -41.2387 C.3       7 UNK        -0.1800 
     39 N          -1.4378  -17.0286  -43.1462 N.am      7 UNK        -0.5000 
     40 C          -2.0403  -16.3314  -44.1185 C.2       6 UNK         0.5000 
     41 O          -2.9724  -16.7640  -44.7958 O.2       6 UNK        -0.5000 
     42 CA         -1.5096  -14.9031  -44.3641 C.3       6 UNK         0.1400 
     43 CB         -2.5234  -13.9764  -45.0649 C.3       6 UNK        -0.1800 
     44 N          -0.9711  -14.2806  -43.1505 N.am      6 UNK        -0.5000 
     45 C          -1.6282  -14.0292  -42.0072 C.2       5 UNK         0.5000 
     46 O          -2.8460  -14.1620  -41.8780 O.2       5 UNK        -0.5000 
     47 CA         -0.7844  -13.5718  -40.7967 C.3       5 UNK         0.1400 
     48 CB         -1.3191  -14.1503  -39.4702 C.3       5 UNK        -0.1800 
     49 N           0.6566  -13.8334  -40.9146 N.am      5 UNK        -0.5000 
     50 C           1.2779  -15.0172  -41.0467 C.2       4 UNK         0.5000 
     51 O           0.6849  -16.0911  -41.1785 O.2       4 UNK        -0.5000 
     52 CA          2.8187  -14.9732  -41.0832 C.3       4 UNK         0.1400 
     53 CB          3.4189  -16.2045  -41.7781 C.3       4 UNK        -0.1800 
     54 N           3.2655  -13.7695  -41.7823 N.am      4 UNK        -0.5000 
     55 C           4.0012  -12.7806  -41.2569 C.2       3 UNK         0.5000 
     56 O           4.4810  -12.8125  -40.1233 O.2       3 UNK        -0.5000 
     57 CA          4.2130  -11.5246  -42.1310 C.3       3 UNK         0.1400 
     58 CB          5.5796  -11.5840  -42.8293 C.3       3 UNK        -0.1800 
     59 N           3.1709  -11.3301  -43.1437 N.am      3 UNK        -0.5000 
     60 C           1.8715  -11.1162  -42.8831 C.2       2 UNK         0.5000 
     61 O           1.4230  -10.9648  -41.7466 O.2       2 UNK        -0.5000 
     62 CA          0.8935  -11.1466  -44.0763 C.3       2 UNK         0.1400 
     63 CB          0.5490   -9.7191  -44.5242 C.3       2 UNK        -0.1800 
     64 N           1.3786  -11.9032  -45.2343 N.am      2 UNK        -0.5000 
     65 C           1.7590  -13.1899  -45.2433 C.2       1 UNK         0.5000 
     66 O           1.6926  -13.9226  -44.2548 O.2       1 UNK        -0.5000 
     67 C          -2.2484  -21.7397  -46.9832 C.2       11 UNK         0.5000 
     68 O          -3.1127  -22.4708  -47.4678 O.2       11 UNK        -0.5000 
     69 N          -1.5091  -22.0734  -45.9168 N.am      12 UNK        -0.5000 
     70 CA         -1.5865  -23.3533  -45.2122 C.3       12 UNK         0.1400 
     71 CB         -0.7950  -23.2662  -43.8996 C.3       12 UNK        -0.1800 
     72 C          -1.0874  -24.5354  -46.0615 C.2       12 UNK         0.5000 
     73 O          -1.6844  -25.6102  -46.0070 O.2       12 UNK        -0.5000 
     74 N          -0.0337  -24.3128  -46.8613 N.am      13 UNK        -0.5000 
     75 CA          0.5008  -25.2928  -47.8137 C.3       13 UNK         0.1400 
     76 CB          1.8730  -24.8267  -48.3238 C.3       13 UNK        -0.1800 
     77 C          -0.4708  -25.5496  -48.9818 C.2       13 UNK         0.5000 
     78 O          -0.5941  -26.6847  -49.4412 O.2       13 UNK        -0.5000 
     79 N          -1.1900  -24.4963  -49.3878 N.am      14 UNK        -0.5000 
     80 CA         -2.3058  -24.5249  -50.3306 C.3       14 UNK         0.1400 
     81 CB         -2.4766  -23.1132  -50.9156 C.3       14 UNK        -0.1800 
     82 C          -3.6263  -25.0352  -49.7111 C.2       14 UNK         0.5000 
     83 O          -4.6471  -25.0255  -50.3973 O.2       14 UNK        -0.5000 
     84 N          -3.6124  -25.4406  -48.4308 N.am      15 UNK        -0.5000 
     85 CA         -4.7361  -25.9786  -47.6528 C.3       15 UNK         0.1400 
     86 CB         -5.1095  -27.3849  -48.1649 C.3       15 UNK        -0.1800 
     87 C          -5.9514  -25.0277  -47.5815 C.2       15 UNK         0.5000 
     88 O          -7.0939  -25.4874  -47.5455 O.2       15 UNK        -0.5000 
     89 N          -5.6747  -23.7153  -47.5941 N.am      16 UNK        -0.5000 
     90 CA         -6.6184  -22.5951  -47.6473 C.3       16 UNK         0.1400 
     91 CB         -7.5210  -22.5650  -46.3967 C.3       16 UNK        -0.1800 
     92 C          -7.4237  -22.4947  -48.9637 C.2       16 UNK         0.5000 
     93 O          -8.3558  -21.6922  -49.0331 O.2       16 UNK        -0.5000 
     94 N          -7.0413  -23.2565  -50.0021 N.am      17 UNK        -0.5000 
     95 CA         -7.6067  -23.1539  -51.3531 C.3       17 UNK         0.1400 
     96 CB         -7.3987  -24.4821  -52.0971 C.3       17 UNK        -0.1800 
     97 C          -6.9990  -21.9822  -52.1515 C.2       17 UNK         0.5000 
     98 O          -7.5435  -21.6093  -53.1918 O.2       17 UNK        -0.5000 
     99 N          -5.8892  -21.4257  -51.6431 N.am      18 UNK        -0.5000 
    100 CA        -5.1392  -20.2833  -52.1590 C.3       18 UNK         0.1400 
    101 CB        -5.9310  -18.9746  -51.9452 C.3       18 UNK        -0.1800 
    102 C         -4.6600  -20.5145  -53.6027 C.2       18 UNK         0.5000 
    103 O         -3.9775  -21.5091  -53.8442 O.2       18 UNK        -0.5000 
    104 N         -5.0107  -19.6176  -54.5348 N.am      19 UNK        -0.5000 
    105 CA        -4.5691  -19.6005  -55.9355 C.3       19 UNK         0.1400 
    106 CB        -5.2420  -18.4191  -56.6501 C.3       19 UNK        -0.1800 
    107 C         -4.8001  -20.9073  -56.7239 C.2       19 UNK         0.5000 
    108 O         -4.0847  -21.1593  -57.6939 O.2       19 UNK        -0.5000 
    109 N         -5.7642  -21.7255  -56.2818 N.am      20 UNK        -0.5000 
    110 CA        -6.0425  -23.0557  -56.8200 C.3       20 UNK         0.1400 
    111 CB        -7.4110  -23.5196  -56.2985 C.3       20 UNK        -0.1800 
    112 C         -4.9592  -24.1059  -56.4909 C.2       20 UNK         0.5000 
    113 O         -4.8953  -25.1203  -57.1872 O.2       20 UNK        -0.5000 
    114 N         -4.1464  -23.8695  -55.4499 N.am      21 UNK        -0.5000 
    115 CA        -3.1284  -24.8044  -54.9623 C.3       21 UNK         0.1400 
    116 CB        -3.6492  -25.4957  -53.6949 C.3       21 UNK        -0.1800 
    117 C         -1.7462  -24.1583  -54.7400 C.2       21 UNK         0.5000 
    118 O         -0.7569  -24.8917  -54.7115 O.2       21 UNK        -0.5000 
    119 N         -1.6692  -22.8227  -54.6305 N.am      22 UNK        -0.5000 
    120 CA        -0.4079  -22.0541  -54.6422 C.3       22 UNK         0.1400 
    121 C          0.4022  -22.1824  -55.9692 C.2       22 UNK         0.5000 
    122 N         -0.2196  -22.4925  -57.1012 N.am      22 UNK        -0.7600 
    123 O          1.6155  -21.9932  -55.9693 O.2       22 UNK        -0.5000 
    124 C124       -0.6265  -20.5486  -54.3299 C.3       23 UNK        -0.0398 
    125 S125       -1.0356  -20.1709  -52.5933 S.3       23 UNK        -0.2404 
    126 C126       -1.5849  -18.4471  -52.7951 C.3       23 UNK        -0.0205 
    127 H127        4.1860   -9.8706  -47.9331 H         1 UNK         0.0600 
    128 H128        3.6788  -11.0113  -49.1828 H         1 UNK         0.0600 
    129 H129        5.3297  -11.0636  -48.5580 H         1 UNK         0.0600 
    130 H130        2.4205  -12.6636  -48.3747 H         1 UNK         0.3000 
    131 H131        3.2059  -14.3501  -46.2795 H         1 UNK         0.0600 
    132 H132        0.3912  -14.1328  -47.4517 H         1 UNK         0.0800 
    133 H133        1.0393  -15.4953  -46.5817 H         1 UNK         0.0800 
    134 H134        1.1949  -14.7720  -50.9512 H         1 UNK         0.0800 
    135 H135        0.2705  -13.9537  -49.7311 H         1 UNK         0.0800 
    136 H136        0.3315  -16.6830  -52.0264 H         1 UNK         0.1150 
    137 H137       -3.3662  -18.3979  -50.7192 H         1 UNK         0.1150 
    138 H138       -1.4299  -15.4244  -48.3273 H         1 UNK         0.1150 
    139 H139       -3.4282  -16.4144  -47.5065 H         1 UNK         0.0800 
    140 H140       -4.5280  -16.5121  -48.8570 H         1 UNK         0.0800 
    141 H141       -2.9847  -19.4547  -45.9321 H         1 UNK         0.0800 
    142 H142       -2.0133  -18.3493  -46.8367 H         1 UNK         0.0800 
    143 H143       -2.2934  -20.4564  -48.6745 H         1 UNK         0.0600 
    144 H144       -0.1447  -19.2745  -47.3281 H         1 UNK         0.3000 
    145 H145        2.3928  -21.1030  -49.0406 H         1 UNK         0.0600 
    146 H146        2.8169  -18.8143  -49.9070 H         1 UNK         0.0600 
    147 H147        1.3971  -19.5222  -50.6649 H         1 UNK         0.0600 
    148 H148        1.2030  -18.3118  -49.4090 H         1 UNK         0.0600 
    149 H149        3.2842  -20.3730  -47.1966 H         1 UNK         0.3000 
    150 H150        4.0013  -19.2064  -45.5735 H         1 UNK         0.0600 
    151 H151        3.9411  -16.8142  -46.3785 H         1 UNK         0.0600 
    152 H152        4.3515  -16.9665  -44.6779 H         1 UNK         0.0600 
    153 H153        2.7298  -16.4594  -45.1516 H         1 UNK         0.0600 
    154 H154        1.9598  -18.2044  -43.6994 H         1 UNK         0.3000 
    155 H155        1.0562  -21.3743  -42.5042 H         1 UNK         0.0600 
    156 H156        2.8205  -19.3661  -41.0175 H         1 UNK         0.0600 
    157 H157        3.1688  -21.0763  -41.2224 H         1 UNK         0.0600 
    158 H158        1.7730  -20.5773  -40.2812 H         1 UNK         0.0600 
    159 H159        0.3967  -18.8443  -41.4737 H         1 UNK         0.3000 
    160 H160       -2.6765  -18.7316  -43.2702 H         1 UNK         0.0600 
    161 H161       -1.2636  -17.9946  -40.6463 H         1 UNK         0.0600 
    162 H162       -2.2581  -19.4294  -40.8908 H         1 UNK         0.0600 
    163 H163       -2.9731  -17.8301  -41.0134 H         1 UNK         0.0600 
    164 H164       -0.6832  -16.5930  -42.6257 H         1 UNK         0.3000 
    165 H165       -0.6664  -15.0263  -45.0408 H         1 UNK         0.0600 
    166 H166       -3.4369  -13.8593  -44.4816 H         1 UNK         0.0600 
    167 H167       -2.1002  -12.9857  -45.2311 H         1 UNK         0.0600 
    168 H168       -2.8076  -14.3741  -46.0396 H         1 UNK         0.0600 
    169 H169        0.0342  -14.1445  -43.1604 H         1 UNK         0.3000 
    170 H170       -0.8905  -12.4870  -40.7519 H         1 UNK         0.0600 
    171 H171       -2.3467  -13.8342  -39.2875 H         1 UNK         0.0600 
    172 H172       -1.3087  -15.2409  -39.4726 H         1 UNK         0.0600 
    173 H173       -0.7234  -13.8108  -38.6229 H         1 UNK         0.0600 
    174 H174        1.2369  -13.0039  -40.8781 H         1 UNK         0.3000 
    175 H175        3.1587  -14.9656  -40.0460 H         1 UNK         0.0600 
    176 H176        3.0089  -16.3258  -42.7788 H         1 UNK         0.0600 
    177 H177        4.5028  -16.1268  -41.8622 H         1 UNK         0.0600 
    178 H178        3.1998  -17.1115  -41.2168 H         1 UNK         0.0600 
    179 H179        2.8885  -13.6541  -42.7182 H         1 UNK         0.3000 
    180 H180        4.2019  -10.6569  -41.4684 H         1 UNK         0.0600 
    181 H181        5.6420  -12.4287  -43.5167 H         1 UNK         0.0600 
    182 H182        6.3867  -11.6900  -42.1032 H         1 UNK         0.0600 
    183 H183        5.7721  -10.6747  -43.3989 H         1 UNK         0.0600 
    184 H184        3.4577  -11.4506  -44.1080 H         1 UNK         0.3000 
    185 H185       -0.0242  -11.6260  -43.7313 H         1 UNK         0.0600 
    186 H186        1.4248   -9.1975  -44.9123 H         1 UNK         0.0600 
    187 H187       -0.2137   -9.7228  -45.3031 H         1 UNK         0.0600 
    188 H188        0.1582   -9.1313  -43.6924 H         1 UNK         0.0600 
    189 H189        1.4846  -11.3817  -46.0922 H         1 UNK         0.3000 
    190 H190       -0.8968  -21.3675  -45.5169 H         1 UNK         0.3000 
    191 H191       -2.6343  -23.5399  -44.9671 H         1 UNK         0.0600 
    192 H192       -0.8322  -24.2110  -43.3558 H         1 UNK         0.0600 
    193 H193       -1.2049  -22.4994  -43.2424 H         1 UNK         0.0600 
    194 H194        0.2546  -23.0316  -44.0809 H         1 UNK         0.0600 
    195 H195        0.3718  -23.3887  -46.8808 H         1 UNK         0.3000 
    196 H196        0.6407  -26.2379  -47.2845 H         1 UNK         0.0600 
    197 H197        1.8059  -23.8910  -48.8783 H         1 UNK         0.0600 
    198 H198        2.5713  -24.6797  -47.4998 H         1 UNK         0.0600 
    199 H199        2.3104  -25.5698  -48.9916 H         1 UNK         0.0600 
    200 H200       -0.9564  -23.5843  -49.0061 H         1 UNK         0.3000 
    201 H201       -2.0514  -25.2029  -51.1466 H         1 UNK         0.0600 
    202 H202       -2.6784  -22.3750  -50.1407 H         1 UNK         0.0600 
    203 H203       -3.2960  -23.0616  -51.6309 H         1 UNK         0.0600 
    204 H204       -1.5732  -22.8060  -51.4410 H         1 UNK         0.0600 
    205 H205       -2.7379  -25.3765  -47.9261 H         1 UNK         0.3000 
    206 H206       -4.3763  -26.0841  -46.6287 H         1 UNK         0.0600 
    207 H207       -4.2377  -28.0387  -48.1898 H         1 UNK         0.0600 
    208 H208       -5.8482  -27.8566  -47.5160 H         1 UNK         0.0600 
    209 H209       -5.5309  -27.3493  -49.1702 H         1 UNK         0.0600 
    210 H210       -4.6941  -23.4394  -47.6199 H         1 UNK         0.3000 
    211 H211       -5.9986  -21.6975  -47.6175 H         1 UNK         0.0600 
    212 H212       -8.0943  -21.6384  -46.3506 H         1 UNK         0.0600 
    213 H213       -6.9302  -22.6238  -45.4826 H         1 UNK         0.0600 
    214 H214       -8.2354  -23.3884  -46.3900 H         1 UNK         0.0600 
    215 H215       -6.2686  -23.9058  -49.8894 H         1 UNK         0.3000 
    216 H216       -8.6816  -22.9793  -51.2732 H         1 UNK         0.0600 
    217 H217       -6.3514  -24.6454  -52.3502 H         1 UNK         0.0600 
    218 H218       -7.9636  -24.4957  -53.0293 H         1 UNK         0.0600 
    219 H219       -7.7370  -25.3296  -51.5007 H         1 UNK         0.0600 
    220 H220       -5.5131  -21.8514  -50.8096 H         1 UNK         0.3000 
    221 H221       -4.2323  -20.2351  -51.5571 H         1 UNK         0.0600 
    222 H222       -6.1737  -18.8393  -50.8909 H         1 UNK         0.0600 
    223 H223       -6.8691  -18.9662  -52.5014 H         1 UNK         0.0600 
    224 H224       -5.3506  -18.1029  -52.2501 H         1 UNK         0.0600 
    225 H225       -5.6065  -18.8532  -54.2519 H         1 UNK         0.3000 
    226 H226       -3.4929  -19.4215  -55.9294 H         1 UNK         0.0600 
    227 H227       -6.3283  -18.5178  -56.6516 H         1 UNK         0.0600 
    228 H228       -4.9903  -17.4722  -56.1722 H         1 UNK         0.0600 
    229 H229       -4.9169  -18.3520  -57.6893 H         1 UNK         0.0600 
    230 H230       -6.2918  -21.4484  -55.4646 H         1 UNK         0.3000 
    231 H231       -6.1017  -22.9773  -57.9076 H         1 UNK         0.0600 
    232 H232       -7.4159  -23.6032  -55.2118 H         1 UNK         0.0600 
    233 H233       -7.6759  -24.4966  -56.7048 H         1 UNK         0.0600 
    234 H234       -8.2001  -22.8241  -56.5850 H         1 UNK         0.0600 
    235 H235       -4.2528  -23.0051  -54.9258 H         1 UNK         0.3000 
    236 H236       -2.9561  -25.5831  -55.7080 H         1 UNK         0.0600 
    237 H237       -4.5167  -26.1172  -53.9170 H         1 UNK         0.0600 
    238 H238       -2.8915  -26.1428  -53.2520 H         1 UNK         0.0600 
    239 H239       -3.9519  -24.7677  -52.9462 H         1 UNK         0.0600 
    240 H240       -2.5229  -22.2809  -54.5280 H         1 UNK         0.3000 
    241 H241        0.2275  -22.4693  -53.8576 H         1 UNK         0.0600 
    242 H242        0.3130  -22.5744  -57.9530 H         1 UNK         0.3800 
    243 H243       -1.2170  -22.6349  -57.1185 H         1 UNK         0.3800 
    244 H244       -1.4060  -20.1459  -54.9776 H         1 UNK         0.0800 
    245 H245        0.2747  -19.9737  -54.5535 H         1 UNK         0.0800 
    246 H246       -0.9726  -17.9606  -53.5561 H         1 UNK         0.0800 
    247 H247       -2.6046  -18.4320  -53.1793 H         1 UNK         0.0800 
@<TRIPOS>BOND
     1    1    2 1    
     2    1  127 1    
     3    1  128 1    
     4    1  129 1    
     5    2    3 2    
     6    2    4 am   BACKBONE|DICT|INTERRES
     7    4    5 1    
     8    4  130 1    
     9    5    6 1    
    10    5   65 1    
    11    5  131 1    
    12    6    7 1    
    13    6  132 1    
    14    6  133 1    
    15    7    8 1    
    16    8    9 1    
    17    8  134 1    
    18    8  135 1    
    19    9   10 ar   
    20    9   14 ar   
    21   10   11 ar   
    22   10  136 1    
    23   11   12 ar   
    24   11  126 1    
    25   12   13 ar   
    26   12  137 1    
    27   13   14 ar   
    28   13   15 1    
    29   14  138 1    
    30   15   16 1    
    31   15  139 1    
    32   15  140 1    
    33   16   17 1    
    34   17   18 1    
    35   17  141 1    
    36   17  142 1    
    37   18   19 1    
    38   18   67 1    
    39   18  143 1    
    40   19   20 am   BACKBONE|DICT|INTERRES
    41   19  144 1    
    42   20   21 2    
    43   20   22 1    
    44   22   23 1    
    45   22   24 1    
    46   22  145 1    
    47   23  146 1    
    48   23  147 1    
    49   23  148 1    
    50   24   25 am   BACKBONE|DICT|INTERRES
    51   24  149 1    
    52   25   26 2    
    53   25   27 1    
    54   27   28 1    
    55   27   29 1    
    56   27  150 1    
    57   28  151 1    
    58   28  152 1    
    59   28  153 1    
    60   29   30 am   BACKBONE|DICT|INTERRES
    61   29  154 1    
    62   30   31 2    
    63   30   32 1    
    64   32   33 1    
    65   32   34 1    
    66   32  155 1    
    67   33  156 1    
    68   33  157 1    
    69   33  158 1    
    70   34   35 am   BACKBONE|DICT|INTERRES
    71   34  159 1    
    72   35   36 2    
    73   35   37 1    
    74   37   38 1    
    75   37   39 1    
    76   37  160 1    
    77   38  161 1    
    78   38  162 1    
    79   38  163 1    
    80   39   40 am   BACKBONE|DICT|INTERRES
    81   39  164 1    
    82   40   41 2    
    83   40   42 1    
    84   42   43 1    
    85   42   44 1    
    86   42  165 1    
    87   43  166 1    
    88   43  167 1    
    89   43  168 1    
    90   44   45 am   BACKBONE|DICT|INTERRES
    91   44  169 1    
    92   45   46 2    
    93   45   47 1    
    94   47   48 1    
    95   47   49 1    
    96   47  170 1    
    97   48  171 1    
    98   48  172 1    
    99   48  173 1    
   100   49   50 am   BACKBONE|DICT|INTERRES
   101   49  174 1    
   102   50   51 2    
   103   50   52 1    
   104   52   53 1    
   105   52   54 1    
   106   52  175 1    
   107   53  176 1    
   108   53  177 1    
   109   53  178 1    
   110   54   55 am   BACKBONE|DICT|INTERRES
   111   54  179 1    
   112   55   56 2    
   113   55   57 1    
   114   57   58 1    
   115   57   59 1    
   116   57  180 1    
   117   58  181 1    
   118   58  182 1    
   119   58  183 1    
   120   59   60 am   BACKBONE|DICT|INTERRES
   121   59  184 1    
   122   60   61 2    
   123   60   62 1    
   124   62   63 1    
   125   62   64 1    
   126   62  185 1    
   127   63  186 1    
   128   63  187 1    
   129   63  188 1    
   130   64   65 am   BACKBONE|DICT|INTERRES
   131   64  189 1    
   132   65   66 2    
   133   67   68 2    
   134   67   69 am   BACKBONE|DICT|INTERRES
   135   69   70 1    
   136   69  190 1    
   137   70   71 1    
   138   70   72 1    
   139   70  191 1    
   140   71  192 1    
   141   71  193 1    
   142   71  194 1    
   143   72   73 2    
   144   72   74 am   BACKBONE|DICT|INTERRES
   145   74   75 1    
   146   74  195 1    
   147   75   76 1    
   148   75   77 1    
   149   75  196 1    
   150   76  197 1    
   151   76  198 1    
   152   76  199 1    
   153   77   78 2    
   154   77   79 am   BACKBONE|DICT|INTERRES
   155   79   80 1    
   156   79  200 1    
   157   80   81 1    
   158   80   82 1    
   159   80  201 1    
   160   81  202 1    
   161   81  203 1    
   162   81  204 1    
   163   82   83 2    
   164   82   84 am   BACKBONE|DICT|INTERRES
   165   84   85 1    
   166   84  205 1    
   167   85   86 1    
   168   85   87 1    
   169   85  206 1    
   170   86  207 1    
   171   86  208 1    
   172   86  209 1    
   173   87   88 2    
   174   87   89 am   BACKBONE|DICT|INTERRES
   175   89   90 1    
   176   89  210 1    
   177   90   91 1    
   178   90   92 1    
   179   90  211 1    
   180   91  212 1    
   181   91  213 1    
   182   91  214 1    
   183   92   93 2    
   184   92   94 am   BACKBONE|DICT|INTERRES
   185   94   95 1    
   186   94  215 1    
   187   95   96 1    
   188   95   97 1    
   189   95  216 1    
   190   96  217 1    
   191   96  218 1    
   192   96  219 1    
   193   97   98 2    
   194   97   99 am   BACKBONE|DICT|INTERRES
   195   99  100 1    
   196   99  220 1    
   197  100  101 1    
   198  100  102 1    
   199  100  221 1    
   200  101  222 1    
   201  101  223 1    
   202  101  224 1    
   203  102  103 2    
   204  102  104 am   BACKBONE|DICT|INTERRES
   205  104  105 1    
   206  104  225 1    
   207  105  106 1    
   208  105  107 1    
   209  105  226 1    
   210  106  227 1    
   211  106  228 1    
   212  106  229 1    
   213  107  108 2    
   214  107  109 am   BACKBONE|DICT|INTERRES
   215  109  110 1    
   216  109  230 1    
   217  110  111 1    
   218  110  112 1    
   219  110  231 1    
   220  111  232 1    
   221  111  233 1    
   222  111  234 1    
   223  112  113 2    
   224  112  114 am   BACKBONE|DICT|INTERRES
   225  114  115 1    
   226  114  235 1    
   227  115  116 1    
   228  115  117 1    
   229  115  236 1    
   230  116  237 1    
   231  116  238 1    
   232  116  239 1    
   233  117  118 2    
   234  117  119 am   BACKBONE|DICT|INTERRES
   235  119  120 1    
   236  119  240 1    
   237  120  121 1    
   238  120  124 1    
   239  120  241 1    
   240  121  122 am   BACKBONE|DICT|INTERRES
   241  121  123 2    
   242  122  242 1    
   243  122  243 1    
   244  124  125 1    
   245  124  244 1    
   246  124  245 1    
   247  125  126 1    
   248  126  246 1    
   249  126  247 1    
@<TRIPOS>SUBSTRUCTURE
     1 UNK         1 GROUP             0       ****    0 ROOT    
