@<TRIPOS>MOLECULE
3R540
247   249    1
SMALL
USER_CHARGES


@<TRIPOS>ATOM
      1 CA         -1.4996  -15.6736  -44.6150 C.3       0 UNK        -0.1800 
      2 C          -0.8928  -15.3836  -45.9787 C.2       0 UNK         0.5000 
      3 O          -1.5957  -14.9179  -46.8753 O.2       0 UNK        -0.5000 
      4 N           0.4017  -15.6725  -46.1382 N.am      1 UNK        -0.5000 
      5 CA          1.1528  -15.5053  -47.3843 C.3       1 UNK         0.1400 
      6 C6          2.4466  -16.3640  -47.4081 C.3       23 UNK        -0.0398 
      7 S7          2.1951  -18.1136  -46.9420 S.3       23 UNK        -0.2404 
      8 C8          1.8003  -18.9049  -48.5387 C.3       23 UNK        -0.0205 
      9 C9          0.4919  -18.4104  -49.1454 C.ar      23 UNK        -0.0193 
     10 C10         0.4457  -17.9934  -50.4794 C.ar      23 UNK        -0.1150 
     11 C11        -0.7456  -17.5132  -51.0324 C.ar      23 UNK        -0.0193 
     12 C12        -1.8977  -17.4618  -50.2439 C.ar      23 UNK        -0.1150 
     13 C13        -1.8710  -17.8847  -48.9122 C.ar      23 UNK        -0.0193 
     14 C14        -0.6725  -18.3590  -48.3730 C.ar      23 UNK        -0.1150 
     15 C15        -3.1217  -17.7727  -48.0495 C.3       23 UNK        -0.0205 
     16 S16        -3.8704  -19.3875  -47.6734 S.3       23 UNK        -0.2404 
     17 C17        -2.8834  -19.9429  -46.2395 C.3       23 UNK        -0.0398 
     18 CA         -1.9662  -21.1376  -46.5936 C.3       11 UNK         0.1400 
     19 N          -0.8367  -21.2820  -45.6727 N.am      11 UNK        -0.5000 
     20 C           0.1429  -22.1864  -45.8211 C.2       10 UNK         0.5000 
     21 O           0.2472  -22.9273  -46.7984 O.2       10 UNK        -0.5000 
     22 CA          1.1331  -22.3406  -44.6566 C.3       10 UNK         0.1400 
     23 CB          2.2983  -21.3540  -44.8034 C.3       10 UNK        -0.1800 
     24 N           0.4783  -22.1660  -43.3581 N.am      10 UNK        -0.5000 
     25 C          -0.3892  -23.0457  -42.8339 C.2       9 UNK         0.5000 
     26 O          -0.6848  -24.1122  -43.3701 O.2       9 UNK        -0.5000 
     27 CA         -1.0844  -22.6477  -41.5195 C.3       9 UNK         0.1400 
     28 CB         -0.1862  -22.9609  -40.3141 C.3       9 UNK        -0.1800 
     29 N          -1.4637  -21.2355  -41.4916 N.am      9 UNK        -0.5000 
     30 C          -2.3630  -20.6705  -42.3105 C.2       8 UNK         0.5000 
     31 O          -3.0208  -21.3004  -43.1391 O.2       8 UNK        -0.5000 
     32 CA         -2.5016  -19.1366  -42.2292 C.3       8 UNK         0.1400 
     33 CB         -3.5837  -18.7405  -41.2153 C.3       8 UNK        -0.1800 
     34 N          -1.2427  -18.4718  -41.8790 N.am      8 UNK        -0.5000 
     35 C          -0.1333  -18.4949  -42.6273 C.2       7 UNK         0.5000 
     36 O          -0.0885  -19.0294  -43.7371 O.2       7 UNK        -0.5000 
     37 CA          1.1282  -17.8547  -42.0089 C.3       7 UNK         0.1400 
     38 CB          2.3536  -17.9422  -42.9342 C.3       7 UNK        -0.1800 
     39 N           0.9330  -16.4602  -41.6021 N.am      7 UNK        -0.5000 
     40 C           0.3260  -16.0592  -40.4743 C.2       6 UNK         0.5000 
     41 O          -0.2440  -16.8384  -39.7085 O.2       6 UNK        -0.5000 
     42 CA          0.3730  -14.5598  -40.1120 C.3       6 UNK         0.1400 
     43 CB          1.3472  -14.3267  -38.9464 C.3       6 UNK        -0.1800 
     44 N           0.7758  -13.7064  -41.2291 N.am      6 UNK        -0.5000 
     45 C          -0.0503  -13.2559  -42.1810 C.2       5 UNK         0.5000 
     46 O          -1.2666  -13.4438  -42.1659 O.2       5 UNK        -0.5000 
     47 CA          0.5783  -12.4711  -43.3534 C.3       5 UNK         0.1400 
     48 CB          0.2722  -10.9714  -43.2216 C.3       5 UNK        -0.1800 
     49 N           2.0273  -12.6425  -43.5234 N.am      5 UNK        -0.5000 
     50 C           2.6448  -13.8018  -43.7823 C.2       4 UNK         0.5000 
     51 O           2.0669  -14.8890  -43.8105 O.2       4 UNK        -0.5000 
     52 CA          4.1435  -13.7155  -44.0941 C.3       4 UNK         0.1400 
     53 CB          4.8524  -15.0803  -43.9692 C.3       4 UNK        -0.1800 
     54 N           4.3125  -13.1728  -45.4414 N.am      4 UNK        -0.5000 
     55 C           5.4376  -12.6032  -45.8968 C.2       3 UNK         0.5000 
     56 O           6.4281  -12.4185  -45.1877 O.2       3 UNK        -0.5000 
     57 CA          5.4991  -12.1822  -47.3810 C.3       3 UNK         0.1400 
     58 CB          6.7094  -12.8264  -48.0798 C.3       3 UNK        -0.1800 
     59 N           4.2943  -12.5516  -48.1258 N.am      3 UNK        -0.5000 
     60 C           3.3744  -11.6951  -48.5885 C.2       2 UNK         0.5000 
     61 O           3.4465  -10.4726  -48.4586 O.2       2 UNK        -0.5000 
     62 CA          2.1532  -12.3089  -49.3088 C.3       2 UNK         0.1400 
     63 CB          2.3700  -12.3032  -50.8298 C.3       2 UNK        -0.1800 
     64 N           1.8118  -13.6729  -48.8828 N.am      2 UNK        -0.5000 
     65 C           1.4834  -14.0197  -47.6310 C.2       1 UNK         0.5000 
     66 O           1.4942  -13.2223  -46.6914 O.2       1 UNK        -0.5000 
     67 C          -2.7700  -22.4475  -46.7148 C.2       11 UNK         0.5000 
     68 O          -3.0311  -22.9021  -47.8275 O.2       11 UNK        -0.5000 
     69 N          -3.1110  -23.0477  -45.5683 N.am      12 UNK        -0.5000 
     70 CA         -3.8265  -24.3166  -45.4902 C.3       12 UNK         0.1400 
     71 CB         -4.2865  -24.5520  -44.0429 C.3       12 UNK        -0.1800 
     72 C          -2.9989  -25.5066  -46.0110 C.2       12 UNK         0.5000 
     73 O          -3.4783  -26.2430  -46.8733 O.2       12 UNK        -0.5000 
     74 N          -1.7891  -25.6870  -45.4657 N.am      13 UNK        -0.5000 
     75 CA         -0.9757  -26.8832  -45.6764 C.3       13 UNK         0.1400 
     76 CB         -0.0145  -27.0632  -44.4905 C.3       13 UNK        -0.1800 
     77 C          -0.1943  -26.8830  -46.9993 C.2       13 UNK         0.5000 
     78 O          -0.2038  -27.8964  -47.6994 O.2       13 UNK        -0.5000 
     79 N           0.5021  -25.7793  -47.2997 N.am      14 UNK        -0.5000 
     80 CA          1.4509  -25.7004  -48.4113 C.3       14 UNK         0.1400 
     81 CB          2.6880  -24.8915  -47.9858 C.3       14 UNK        -0.1800 
     82 C           0.8072  -25.1019  -49.6680 C.2       14 UNK         0.5000 
     83 O           0.9861  -25.6516  -50.7556 O.2       14 UNK        -0.5000 
     84 N           0.0666  -23.9965  -49.5055 N.am      15 UNK        -0.5000 
     85 CA         -0.5855  -23.2933  -50.6149 C.3       15 UNK         0.1400 
     86 CB         -0.7709  -21.8100  -50.2559 C.3       15 UNK        -0.1800 
     87 C          -1.9217  -23.9366  -51.0374 C.2       15 UNK         0.5000 
     88 O          -2.4386  -23.5779  -52.0937 O.2       15 UNK        -0.5000 
     89 N          -2.4512  -24.8615  -50.2200 N.am      16 UNK        -0.5000 
     90 CA         -3.6953  -25.6169  -50.4111 C.3       16 UNK         0.1400 
     91 CB         -3.5777  -26.5643  -51.6236 C.3       16 UNK        -0.1800 
     92 C          -4.9311  -24.6970  -50.4790 C.2       16 UNK         0.5000 
     93 O          -5.6790  -24.7234  -51.4586 O.2       16 UNK        -0.5000 
     94 N          -5.0824  -23.8545  -49.4466 N.am      17 UNK        -0.5000 
     95 CA         -6.0745  -22.7806  -49.3093 C.3       17 UNK         0.1400 
     96 CB         -7.5031  -23.3515  -49.1994 C.3       17 UNK        -0.1800 
     97 C          -5.9176  -21.7315  -50.4273 C.2       17 UNK         0.5000 
     98 O          -6.9018  -21.3088  -51.0380 O.2       17 UNK        -0.5000 
     99 N          -4.6495  -21.4072  -50.7226 N.am      18 UNK        -0.5000 
    100 CA        -4.1568  -20.5557  -51.8122 C.3       18 UNK         0.1400 
    101 CB        -4.6904  -19.1171  -51.6478 C.3       18 UNK        -0.1800 
    102 C         -4.4561  -21.0908  -53.2300 C.2       18 UNK         0.5000 
    103 O         -4.1780  -20.3840  -54.1951 O.2       18 UNK        -0.5000 
    104 N         -5.0595  -22.2860  -53.3461 N.am      19 UNK        -0.5000 
    105 CA        -5.7436  -22.8084  -54.5336 C.3       19 UNK         0.1400 
    106 CB        -4.7353  -23.1565  -55.6478 C.3       19 UNK        -0.1800 
    107 C         -6.8668  -21.8501  -54.9938 C.2       19 UNK         0.5000 
    108 O         -7.0061  -21.5793  -56.1871 O.2       19 UNK        -0.5000 
    109 N         -7.6004  -21.3045  -54.0099 N.am      20 UNK        -0.5000 
    110 CA        -8.5812  -20.2144  -54.0724 C.3       20 UNK         0.1400 
    111 CB        -9.6840  -20.4587  -55.1207 C.3       20 UNK        -0.1800 
    112 C         -7.9310  -18.8257  -54.2298 C.2       20 UNK         0.5000 
    113 O         -8.3148  -17.9025  -53.5106 O.2       20 UNK        -0.5000 
    114 N         -6.9441  -18.7008  -55.1227 N.am      21 UNK        -0.5000 
    115 CA        -6.1097  -17.5190  -55.3138 C.3       21 UNK         0.1400 
    116 CB        -6.8761  -16.4296  -56.0866 C.3       21 UNK        -0.1800 
    117 C         -4.8403  -17.9365  -56.0675 C.2       21 UNK         0.5000 
    118 O         -4.9341  -18.7073  -57.0263 O.2       21 UNK        -0.5000 
    119 N         -3.6857  -17.4152  -55.6335 N.am      22 UNK        -0.5000 
    120 CA        -2.3630  -17.7473  -56.1957 C.3       22 UNK         0.1400 
    121 C         -2.0722  -17.1234  -57.5942 C.2       22 UNK         0.5000 
    122 N         -2.8706  -16.1849  -58.0887 N.am      22 UNK        -0.7600 
    123 O         -1.1029  -17.5020  -58.2464 O.2       22 UNK        -0.5000 
    124 C124       -1.2077  -17.4246  -55.2103 C.3       23 UNK        -0.0398 
    125 S125       -1.3338  -18.3110  -53.6177 S.3       23 UNK        -0.2404 
    126 C126       -0.7841  -17.0139  -52.4684 C.3       23 UNK        -0.0205 
    127 H127       -0.7305  -15.7663  -43.8493 H         1 UNK         0.0600 
    128 H128       -2.0656  -16.6044  -44.6458 H         1 UNK         0.0600 
    129 H129       -2.1756  -14.8707  -44.3219 H         1 UNK         0.0600 
    130 H130        0.9523  -15.9509  -45.3356 H         1 UNK         0.3000 
    131 H131        0.5115  -15.8247  -48.2064 H         1 UNK         0.0600 
    132 H132        2.9133  -16.3312  -48.3939 H         1 UNK         0.0800 
    133 H133        3.1810  -15.9551  -46.7126 H         1 UNK         0.0800 
    134 H134        1.7232  -19.9814  -48.3809 H         1 UNK         0.0800 
    135 H135        2.6333  -18.7515  -49.2262 H         1 UNK         0.0800 
    136 H136        1.3393  -18.0298  -51.0865 H         1 UNK         0.1150 
    137 H137       -2.8127  -17.0733  -50.6669 H         1 UNK         0.1150 
    138 H138       -0.6286  -18.6601  -47.3376 H         1 UNK         0.1150 
    139 H139       -2.8930  -17.2472  -47.1235 H         1 UNK         0.0800 
    140 H140       -3.8703  -17.1622  -48.5565 H         1 UNK         0.0800 
    141 H141       -3.5708  -20.1932  -45.4308 H         1 UNK         0.0800 
    142 H142       -2.2911  -19.1090  -45.8624 H         1 UNK         0.0800 
    143 H143       -1.5195  -20.9385  -47.5666 H         1 UNK         0.0600 
    144 H144       -0.8126  -20.6730  -44.8632 H         1 UNK         0.3000 
    145 H145        1.5419  -23.3527  -44.6974 H         1 UNK         0.0600 
    146 H146        2.9999  -21.4380  -43.9736 H         1 UNK         0.0600 
    147 H147        2.8540  -21.5463  -45.7221 H         1 UNK         0.0600 
    148 H148        1.9474  -20.3239  -44.8509 H         1 UNK         0.0600 
    149 H149        0.6301  -21.2867  -42.8877 H         1 UNK         0.3000 
    150 H150       -1.9954  -23.2437  -41.4318 H         1 UNK         0.0600 
    151 H151        0.0978  -24.0142  -40.3032 H         1 UNK         0.0600 
    152 H152       -0.7006  -22.7549  -39.3753 H         1 UNK         0.0600 
    153 H153        0.7325  -22.3732  -40.3301 H         1 UNK         0.0600 
    154 H154       -0.9766  -20.6445  -40.8345 H         1 UNK         0.3000 
    155 H155       -2.8079  -18.7796  -43.2145 H         1 UNK         0.0600 
    156 H156       -3.3193  -19.0482  -40.2028 H         1 UNK         0.0600 
    157 H157       -4.5392  -19.2052  -41.4622 H         1 UNK         0.0600 
    158 H158       -3.7397  -17.6615  -41.2080 H         1 UNK         0.0600 
    159 H159       -1.1951  -17.9993  -40.9812 H         1 UNK         0.3000 
    160 H160        1.3660  -18.4352  -41.1151 H         1 UNK         0.0600 
    161 H161        2.1571  -17.5040  -43.9127 H         1 UNK         0.0600 
    162 H162        2.6474  -18.9790  -43.0909 H         1 UNK         0.0600 
    163 H163        3.2135  -17.4301  -42.5033 H         1 UNK         0.0600 
    164 H164        1.3291  -15.7636  -42.2258 H         1 UNK         0.3000 
    165 H165       -0.6266  -14.2714  -39.7801 H         1 UNK         0.0600 
    166 H166        1.3504  -13.2809  -38.6385 H         1 UNK         0.0600 
    167 H167        1.0647  -14.9188  -38.0749 H         1 UNK         0.0600 
    168 H168        2.3683  -14.6020  -39.2134 H         1 UNK         0.0600 
    169 H169        1.7599  -13.4995  -41.3139 H         1 UNK         0.3000 
    170 H170        0.1011  -12.8347  -44.2657 H         1 UNK         0.0600 
    171 H171       -0.8005  -10.7961  -43.1283 H         1 UNK         0.0600 
    172 H172        0.7536  -10.5392  -42.3435 H         1 UNK         0.0600 
    173 H173        0.6130  -10.4211  -44.0989 H         1 UNK         0.0600 
    174 H174        2.5746  -11.7941  -43.5352 H         1 UNK         0.3000 
    175 H175        4.5878  -13.0299  -43.3694 H         1 UNK         0.0600 
    176 H176        4.4658  -15.8062  -44.6847 H         1 UNK         0.0600 
    177 H177        5.9260  -14.9897  -44.1335 H         1 UNK         0.0600 
    178 H178        4.7150  -15.4979  -42.9714 H         1 UNK         0.0600 
    179 H179        3.4884  -13.2029  -46.0328 H         1 UNK         0.3000 
    180 H180        5.6401  -11.0997  -47.3945 H         1 UNK         0.0600 
    181 H181        6.6518  -13.9154  -48.0618 H         1 UNK         0.0600 
    182 H182        7.6442  -12.5384  -47.5973 H         1 UNK         0.0600 
    183 H183        6.7756  -12.5113  -49.1214 H         1 UNK         0.0600 
    184 H184        4.1551  -13.5369  -48.2924 H         1 UNK         0.3000 
    185 H185        1.2948  -11.6722  -49.0848 H         1 UNK         0.0600 
    186 H186        3.1979  -12.9510  -51.1204 H         1 UNK         0.0600 
    187 H187        1.4775  -12.6396  -51.3579 H         1 UNK         0.0600 
    188 H188        2.5979  -11.2986  -51.1888 H         1 UNK         0.0600 
    189 H189        1.7891  -14.3722  -49.6111 H         1 UNK         0.3000 
    190 H190       -2.8835  -22.5931  -44.6897 H         1 UNK         0.3000 
    191 H191       -4.7191  -24.2364  -46.1146 H         1 UNK         0.0600 
    192 H192       -3.4445  -24.5967  -43.3514 H         1 UNK         0.0600 
    193 H193       -4.8356  -25.4903  -43.9546 H         1 UNK         0.0600 
    194 H194       -4.9490  -23.7540  -43.7071 H         1 UNK         0.0600 
    195 H195       -1.4579  -25.0341  -44.7580 H         1 UNK         0.3000 
    196 H196       -1.6402  -27.7503  -45.6884 H         1 UNK         0.0600 
    197 H197        0.5675  -27.9797  -44.5946 H         1 UNK         0.0600 
    198 H198       -0.5589  -27.1287  -43.5483 H         1 UNK         0.0600 
    199 H199        0.6904  -26.2347  -44.4117 H         1 UNK         0.0600 
    200 H200        0.3960  -24.9440  -46.7356 H         1 UNK         0.3000 
    201 H201        1.8012  -26.7031  -48.6668 H         1 UNK         0.0600 
    202 H202        3.1538  -25.3221  -47.0993 H         1 UNK         0.0600 
    203 H203        2.4484  -23.8517  -47.7656 H         1 UNK         0.0600 
    204 H204        3.4382  -24.8889  -48.7774 H         1 UNK         0.0600 
    205 H205       -0.0152  -23.5892  -48.5772 H         1 UNK         0.3000 
    206 H206        0.0804  -23.3326  -51.4798 H         1 UNK         0.0600 
    207 H207       -0.8690  -21.2080  -51.1596 H         1 UNK         0.0600 
    208 H208       -1.6689  -21.6432  -49.6652 H         1 UNK         0.0600 
    209 H209        0.0807  -21.4168  -49.7010 H         1 UNK         0.0600 
    210 H210       -1.9606  -25.0400  -49.3553 H         1 UNK         0.3000 
    211 H211       -3.8219  -26.2388  -49.5247 H         1 UNK         0.0600 
    212 H212       -3.4832  -26.0174  -52.5622 H         1 UNK         0.0600 
    213 H213       -4.4590  -27.2014  -51.7055 H         1 UNK         0.0600 
    214 H214       -2.7113  -27.2188  -51.5284 H         1 UNK         0.0600 
    215 H215       -4.3410  -23.8310  -48.7495 H         1 UNK         0.3000 
    216 H216       -5.8488  -22.2678  -48.3730 H         1 UNK         0.0600 
    217 H217       -8.2210  -22.5610  -48.9781 H         1 UNK         0.0600 
    218 H218       -7.5722  -24.0867  -48.3978 H         1 UNK         0.0600 
    219 H219       -7.8234  -23.8318  -50.1243 H         1 UNK         0.0600 
    220 H220       -3.9297  -21.8492  -50.1680 H         1 UNK         0.3000 
    221 H221       -3.0719  -20.5234  -51.7141 H         1 UNK         0.0600 
    222 H222       -5.7548  -19.0499  -51.8736 H         1 UNK         0.0600 
    223 H223       -4.5430  -18.7538  -50.6319 H         1 UNK         0.0600 
    224 H224       -4.1748  -18.4305  -52.3197 H         1 UNK         0.0600 
    225 H225       -5.1915  -22.8320  -52.5036 H         1 UNK         0.3000 
    226 H226       -6.2314  -23.7340  -54.2251 H         1 UNK         0.0600 
    227 H227       -3.9524  -23.8175  -55.2756 H         1 UNK         0.0600 
    228 H228       -5.2302  -23.6692  -56.4731 H         1 UNK         0.0600 
    229 H229       -4.2564  -22.2667  -56.0574 H         1 UNK         0.0600 
    230 H230       -7.3444  -21.5563  -53.0599 H         1 UNK         0.3000 
    231 H231       -9.0649  -20.2190  -53.0941 H         1 UNK         0.0600 
    232 H232      -10.1358  -21.4429  -54.9977 H         1 UNK         0.0600 
    233 H233       -9.3072  -20.3844  -56.1408 H         1 UNK         0.0600 
    234 H234      -10.4797  -19.7199  -55.0191 H         1 UNK         0.0600 
    235 H235       -6.6709  -19.5104  -55.6722 H         1 UNK         0.3000 
    236 H236       -5.8241  -17.1332  -54.3327 H         1 UNK         0.0600 
    237 H237       -7.2122  -16.7911  -57.0592 H         1 UNK         0.0600 
    238 H238       -7.7526  -16.0892  -55.5353 H         1 UNK         0.0600 
    239 H239       -6.2453  -15.5569  -56.2592 H         1 UNK         0.0600 
    240 H240       -3.6862  -16.7927  -54.8397 H         1 UNK         0.3000 
    241 H241       -2.3499  -18.8279  -56.3534 H         1 UNK         0.0600 
    242 H242       -2.6740  -15.7926  -58.9964 H         1 UNK         0.3800 
    243 H243       -3.6730  -15.8688  -57.5688 H         1 UNK         0.3800 
    244 H244       -1.1659  -16.3493  -55.0294 H         1 UNK         0.0800 
    245 H245       -0.2449  -17.6942  -55.6482 H         1 UNK         0.0800 
    246 H246       -1.4540  -16.1558  -52.5420 H         1 UNK         0.0800 
    247 H247        0.2039  -16.6608  -52.7683 H         1 UNK         0.0800 
@<TRIPOS>BOND
     1    1    2 1    
     2    1  127 1    
     3    1  128 1    
     4    1  129 1    
     5    2    3 2    
     6    2    4 am   BACKBONE|DICT|INTERRES
     7    4    5 1    
     8    4  130 1    
     9    5    6 1    
    10    5   65 1    
    11    5  131 1    
    12    6    7 1    
    13    6  132 1    
    14    6  133 1    
    15    7    8 1    
    16    8    9 1    
    17    8  134 1    
    18    8  135 1    
    19    9   10 ar   
    20    9   14 ar   
    21   10   11 ar   
    22   10  136 1    
    23   11   12 ar   
    24   11  126 1    
    25   12   13 ar   
    26   12  137 1    
    27   13   14 ar   
    28   13   15 1    
    29   14  138 1    
    30   15   16 1    
    31   15  139 1    
    32   15  140 1    
    33   16   17 1    
    34   17   18 1    
    35   17  141 1    
    36   17  142 1    
    37   18   19 1    
    38   18   67 1    
    39   18  143 1    
    40   19   20 am   BACKBONE|DICT|INTERRES
    41   19  144 1    
    42   20   21 2    
    43   20   22 1    
    44   22   23 1    
    45   22   24 1    
    46   22  145 1    
    47   23  146 1    
    48   23  147 1    
    49   23  148 1    
    50   24   25 am   BACKBONE|DICT|INTERRES
    51   24  149 1    
    52   25   26 2    
    53   25   27 1    
    54   27   28 1    
    55   27   29 1    
    56   27  150 1    
    57   28  151 1    
    58   28  152 1    
    59   28  153 1    
    60   29   30 am   BACKBONE|DICT|INTERRES
    61   29  154 1    
    62   30   31 2    
    63   30   32 1    
    64   32   33 1    
    65   32   34 1    
    66   32  155 1    
    67   33  156 1    
    68   33  157 1    
    69   33  158 1    
    70   34   35 am   BACKBONE|DICT|INTERRES
    71   34  159 1    
    72   35   36 2    
    73   35   37 1    
    74   37   38 1    
    75   37   39 1    
    76   37  160 1    
    77   38  161 1    
    78   38  162 1    
    79   38  163 1    
    80   39   40 am   BACKBONE|DICT|INTERRES
    81   39  164 1    
    82   40   41 2    
    83   40   42 1    
    84   42   43 1    
    85   42   44 1    
    86   42  165 1    
    87   43  166 1    
    88   43  167 1    
    89   43  168 1    
    90   44   45 am   BACKBONE|DICT|INTERRES
    91   44  169 1    
    92   45   46 2    
    93   45   47 1    
    94   47   48 1    
    95   47   49 1    
    96   47  170 1    
    97   48  171 1    
    98   48  172 1    
    99   48  173 1    
   100   49   50 am   BACKBONE|DICT|INTERRES
   101   49  174 1    
   102   50   51 2    
   103   50   52 1    
   104   52   53 1    
   105   52   54 1    
   106   52  175 1    
   107   53  176 1    
   108   53  177 1    
   109   53  178 1    
   110   54   55 am   BACKBONE|DICT|INTERRES
   111   54  179 1    
   112   55   56 2    
   113   55   57 1    
   114   57   58 1    
   115   57   59 1    
   116   57  180 1    
   117   58  181 1    
   118   58  182 1    
   119   58  183 1    
   120   59   60 am   BACKBONE|DICT|INTERRES
   121   59  184 1    
   122   60   61 2    
   123   60   62 1    
   124   62   63 1    
   125   62   64 1    
   126   62  185 1    
   127   63  186 1    
   128   63  187 1    
   129   63  188 1    
   130   64   65 am   BACKBONE|DICT|INTERRES
   131   64  189 1    
   132   65   66 2    
   133   67   68 2    
   134   67   69 am   BACKBONE|DICT|INTERRES
   135   69   70 1    
   136   69  190 1    
   137   70   71 1    
   138   70   72 1    
   139   70  191 1    
   140   71  192 1    
   141   71  193 1    
   142   71  194 1    
   143   72   73 2    
   144   72   74 am   BACKBONE|DICT|INTERRES
   145   74   75 1    
   146   74  195 1    
   147   75   76 1    
   148   75   77 1    
   149   75  196 1    
   150   76  197 1    
   151   76  198 1    
   152   76  199 1    
   153   77   78 2    
   154   77   79 am   BACKBONE|DICT|INTERRES
   155   79   80 1    
   156   79  200 1    
   157   80   81 1    
   158   80   82 1    
   159   80  201 1    
   160   81  202 1    
   161   81  203 1    
   162   81  204 1    
   163   82   83 2    
   164   82   84 am   BACKBONE|DICT|INTERRES
   165   84   85 1    
   166   84  205 1    
   167   85   86 1    
   168   85   87 1    
   169   85  206 1    
   170   86  207 1    
   171   86  208 1    
   172   86  209 1    
   173   87   88 2    
   174   87   89 am   BACKBONE|DICT|INTERRES
   175   89   90 1    
   176   89  210 1    
   177   90   91 1    
   178   90   92 1    
   179   90  211 1    
   180   91  212 1    
   181   91  213 1    
   182   91  214 1    
   183   92   93 2    
   184   92   94 am   BACKBONE|DICT|INTERRES
   185   94   95 1    
   186   94  215 1    
   187   95   96 1    
   188   95   97 1    
   189   95  216 1    
   190   96  217 1    
   191   96  218 1    
   192   96  219 1    
   193   97   98 2    
   194   97   99 am   BACKBONE|DICT|INTERRES
   195   99  100 1    
   196   99  220 1    
   197  100  101 1    
   198  100  102 1    
   199  100  221 1    
   200  101  222 1    
   201  101  223 1    
   202  101  224 1    
   203  102  103 2    
   204  102  104 am   BACKBONE|DICT|INTERRES
   205  104  105 1    
   206  104  225 1    
   207  105  106 1    
   208  105  107 1    
   209  105  226 1    
   210  106  227 1    
   211  106  228 1    
   212  106  229 1    
   213  107  108 2    
   214  107  109 am   BACKBONE|DICT|INTERRES
   215  109  110 1    
   216  109  230 1    
   217  110  111 1    
   218  110  112 1    
   219  110  231 1    
   220  111  232 1    
   221  111  233 1    
   222  111  234 1    
   223  112  113 2    
   224  112  114 am   BACKBONE|DICT|INTERRES
   225  114  115 1    
   226  114  235 1    
   227  115  116 1    
   228  115  117 1    
   229  115  236 1    
   230  116  237 1    
   231  116  238 1    
   232  116  239 1    
   233  117  118 2    
   234  117  119 am   BACKBONE|DICT|INTERRES
   235  119  120 1    
   236  119  240 1    
   237  120  121 1    
   238  120  124 1    
   239  120  241 1    
   240  121  122 am   BACKBONE|DICT|INTERRES
   241  121  123 2    
   242  122  242 1    
   243  122  243 1    
   244  124  125 1    
   245  124  244 1    
   246  124  245 1    
   247  125  126 1    
   248  126  246 1    
   249  126  247 1    
@<TRIPOS>SUBSTRUCTURE
     1 UNK         1 GROUP             0       ****    0 ROOT    
