@<TRIPOS>MOLECULE
3R540
247   249    1
SMALL
USER_CHARGES


@<TRIPOS>ATOM
      1 CA          1.5222   -9.2401  -50.4471 C.3       0 UNK        -0.1800 
      2 C           1.9298  -10.2056  -49.3437 C.2       0 UNK         0.5000 
      3 O           1.1243  -10.5023  -48.4610 O.2       0 UNK        -0.5000 
      4 N           3.1807  -10.6850  -49.3800 N.am      1 UNK        -0.5000 
      5 CA          3.8114  -11.6368  -48.4524 C.3       1 UNK         0.1400 
      6 C6          3.0447  -12.9827  -48.3444 C.3       23 UNK        -0.0398 
      7 S7          4.0766  -14.3481  -47.7093 S.3       23 UNK        -0.2404 
      8 C8          4.6833  -15.1246  -49.2404 C.3       23 UNK        -0.0205 
      9 C9          3.7966  -16.2700  -49.7124 C.ar      23 UNK        -0.0193 
     10 C10         2.6843  -16.0183  -50.5205 C.ar      23 UNK        -0.1150 
     11 C11         1.9000  -17.0711  -51.0008 C.ar      23 UNK        -0.0193 
     12 C12         2.2484  -18.3871  -50.6865 C.ar      23 UNK        -0.1150 
     13 C13         3.3506  -18.6548  -49.8694 C.ar      23 UNK        -0.0193 
     14 C14         4.1166  -17.5912  -49.3807 C.ar      23 UNK        -0.1150 
     15 C15         3.7344  -20.0928  -49.5454 C.3       23 UNK        -0.0205 
     16 S16         2.8766  -20.7277  -48.0696 S.3       23 UNK        -0.2404 
     17 C17         1.1727  -20.9044  -48.6935 C.3       23 UNK        -0.0398 
     18 CA          0.3048  -21.8657  -47.8466 C.3       11 UNK         0.1400 
     19 N           0.1362  -21.4231  -46.4587 N.am      11 UNK        -0.5000 
     20 C          -0.4914  -22.1152  -45.4959 C.2       10 UNK         0.5000 
     21 O          -0.9388  -23.2510  -45.6487 O.2       10 UNK        -0.5000 
     22 CA         -0.7158  -21.3948  -44.1553 C.3       10 UNK         0.1400 
     23 CB          0.5130  -21.5157  -43.2409 C.3       10 UNK        -0.1800 
     24 N          -1.0539  -19.9871  -44.3600 N.am      10 UNK        -0.5000 
     25 C          -2.2353  -19.5603  -44.8265 C.2       9 UNK         0.5000 
     26 O          -3.1875  -20.3070  -45.0532 O.2       9 UNK        -0.5000 
     27 CA         -2.3625  -18.0581  -45.1374 C.3       9 UNK         0.1400 
     28 CB         -2.8407  -17.2779  -43.9070 C.3       9 UNK        -0.1800 
     29 N          -1.1139  -17.4791  -45.6367 N.am      9 UNK        -0.5000 
     30 C          -0.6386  -17.7212  -46.8646 C.2       8 UNK         0.5000 
     31 O          -1.1937  -18.4723  -47.6655 O.2       8 UNK        -0.5000 
     32 CA          0.6791  -17.0337  -47.2675 C.3       8 UNK         0.1400 
     33 CB          0.4043  -15.5702  -47.6429 C.3       8 UNK        -0.1800 
     34 N           1.7799  -17.0786  -46.2969 N.am      8 UNK        -0.5000 
     35 C           2.1594  -18.1129  -45.5320 C.2       7 UNK         0.5000 
     36 O           1.5241  -19.1582  -45.4219 O.2       7 UNK        -0.5000 
     37 CA          3.4729  -17.9728  -44.7510 C.3       7 UNK         0.1400 
     38 CB          4.4391  -16.9263  -45.3318 C.3       7 UNK        -0.1800 
     39 N           3.1823  -17.6594  -43.3557 N.am      7 UNK        -0.5000 
     40 C           3.9674  -18.0056  -42.3257 C.2       6 UNK         0.5000 
     41 O           5.0048  -18.6569  -42.4592 O.2       6 UNK        -0.5000 
     42 CA          3.5606  -17.5513  -40.9084 C.3       6 UNK         0.1400 
     43 CB          4.6163  -16.6111  -40.3036 C.3       6 UNK        -0.1800 
     44 N           2.2606  -16.8839  -40.8661 N.am      6 UNK        -0.5000 
     45 C           1.0892  -17.5204  -40.7395 C.2       5 UNK         0.5000 
     46 O           0.9851  -18.7410  -40.6185 O.2       5 UNK        -0.5000 
     47 CA         -0.1857  -16.6556  -40.7627 C.3       5 UNK         0.1400 
     48 CB         -0.6360  -16.3290  -39.3310 C.3       5 UNK        -0.1800 
     49 N          -0.0539  -15.4035  -41.5132 N.am      5 UNK        -0.5000 
     50 C           0.2572  -15.2896  -42.8117 C.2       4 UNK         0.5000 
     51 O           0.4585  -16.2526  -43.5508 O.2       4 UNK        -0.5000 
     52 CA          0.3923  -13.8642  -43.3839 C.3       4 UNK         0.1400 
     53 CB         -0.3682  -12.7985  -42.5656 C.3       4 UNK        -0.1800 
     54 N           1.7868  -13.4449  -43.5650 N.am      4 UNK        -0.5000 
     55 C           2.7766  -13.4619  -42.6569 C.2       3 UNK         0.5000 
     56 O           2.6848  -13.9831  -41.5444 O.2       3 UNK        -0.5000 
     57 CA          4.0871  -12.7415  -43.0382 C.3       3 UNK         0.1400 
     58 CB          5.1590  -13.7338  -43.5129 C.3       3 UNK        -0.1800 
     59 N           3.9226  -11.7093  -44.0638 N.am      3 UNK        -0.5000 
     60 C           3.2562  -10.5565  -43.9271 C.2       2 UNK         0.5000 
     61 O           2.7088  -10.2116  -42.8796 O.2       2 UNK        -0.5000 
     62 CA          3.1539   -9.6391  -45.1653 C.3       2 UNK         0.1400 
     63 CB          4.2278   -8.5354  -45.1253 C.3       2 UNK        -0.1800 
     64 N           3.1509  -10.3319  -46.4644 N.am      2 UNK        -0.5000 
     65 C           4.1259  -11.0282  -47.0662 C.2       1 UNK         0.5000 
     66 O           5.2371  -11.2094  -46.5681 O.2       1 UNK        -0.5000 
     67 C          -1.0581  -22.0912  -48.5304 C.2       11 UNK         0.5000 
     68 O          -1.2603  -23.1437  -49.1336 O.2       11 UNK        -0.5000 
     69 N          -1.9778  -21.1249  -48.3861 N.am      12 UNK        -0.5000 
     70 CA         -3.3535  -21.2057  -48.8762 C.3       12 UNK         0.1400 
     71 CB         -4.0699  -19.8679  -48.6392 C.3       12 UNK        -0.1800 
     72 C          -4.1407  -22.3622  -48.2365 C.2       12 UNK         0.5000 
     73 O          -4.8092  -23.1039  -48.9544 O.2       12 UNK        -0.5000 
     74 N          -4.0254  -22.5227  -46.9097 N.am      13 UNK        -0.5000 
     75 CA         -4.6394  -23.6192  -46.1580 C.3       13 UNK         0.1400 
     76 CB         -4.4100  -23.4190  -44.6527 C.3       13 UNK        -0.1800 
     77 C          -4.1420  -25.0027  -46.6157 C.2       13 UNK         0.5000 
     78 O          -4.9633  -25.8836  -46.8783 O.2       13 UNK        -0.5000 
     79 N          -2.8145  -25.1446  -46.7489 N.am      14 UNK        -0.5000 
     80 CA         -2.1403  -26.3447  -47.2475 C.3       14 UNK         0.1400 
     81 CB         -0.6202  -26.1784  -47.1044 C.3       14 UNK        -0.1800 
     82 C          -2.5146  -26.6879  -48.7005 C.2       14 UNK         0.5000 
     83 O          -2.6786  -27.8658  -49.0219 O.2       14 UNK        -0.5000 
     84 N          -2.7023  -25.6609  -49.5397 N.am      15 UNK        -0.5000 
     85 CA         -3.1945  -25.7525  -50.9148 C.3       15 UNK         0.1400 
     86 CB         -2.7778  -24.4875  -51.6829 C.3       15 UNK        -0.1800 
     87 C          -4.7169  -26.0043  -50.9823 C.2       15 UNK         0.5000 
     88 O          -5.4366  -25.2628  -51.6534 O.2       15 UNK        -0.5000 
     89 N          -5.1714  -27.0532  -50.2814 N.am      16 UNK        -0.5000 
     90 CA         -6.5333  -27.5937  -50.2351 C.3       16 UNK         0.1400 
     91 CB         -6.8188  -28.3900  -51.5242 C.3       16 UNK        -0.1800 
     92 C          -7.6170  -26.5406  -49.9188 C.2       16 UNK         0.5000 
     93 O          -8.6709  -26.5327  -50.5576 O.2       16 UNK        -0.5000 
     94 N          -7.3261  -25.6739  -48.9364 N.am      17 UNK        -0.5000 
     95 CA         -8.1499  -24.5466  -48.4890 C.3       17 UNK         0.1400 
     96 CB         -9.4431  -25.0442  -47.8095 C.3       17 UNK        -0.1800 
     97 C          -8.4046  -23.5233  -49.6163 C.2       17 UNK         0.5000 
     98 O          -9.5529  -23.2685  -49.9852 O.2       17 UNK        -0.5000 
     99 N          -7.3045  -22.9546  -50.1253 N.am      18 UNK        -0.5000 
    100 CA        -7.2172  -21.9114  -51.1469 C.3       18 UNK         0.1400 
    101 CB        -7.8538  -20.5982  -50.6436 C.3       18 UNK        -0.1800 
    102 C         -7.7523  -22.3587  -52.5202 C.2       18 UNK         0.5000 
    103 O         -8.5133  -21.6267  -53.1585 O.2       18 UNK        -0.5000 
    104 N         -7.3262  -23.5444  -52.9754 N.am      19 UNK        -0.5000 
    105 CA        -7.6128  -24.0760  -54.3081 C.3       19 UNK         0.1400 
    106 CB        -7.4218  -25.6016  -54.2994 C.3       19 UNK        -0.1800 
    107 C         -6.7433  -23.3742  -55.3713 C.2       19 UNK         0.5000 
    108 O         -5.7669  -23.9473  -55.8583 O.2       19 UNK        -0.5000 
    109 N         -7.0964  -22.1164  -55.6682 N.am      20 UNK        -0.5000 
    110 CA        -6.4894  -21.1655  -56.6097 C.3       20 UNK         0.1400 
    111 CB        -6.4734  -21.7216  -58.0463 C.3       20 UNK        -0.1800 
    112 C         -5.0981  -20.6441  -56.1974 C.2       20 UNK         0.5000 
    113 O         -4.8396  -19.4486  -56.3429 O.2       20 UNK        -0.5000 
    114 N         -4.2295  -21.5266  -55.6916 N.am      21 UNK        -0.5000 
    115 CA        -2.8982  -21.2022  -55.1874 C.3       21 UNK         0.1400 
    116 CB        -2.0701  -22.4905  -55.0786 C.3       21 UNK        -0.1800 
    117 C         -2.9906  -20.4689  -53.8373 C.2       21 UNK         0.5000 
    118 O         -3.3955  -21.0691  -52.8394 O.2       21 UNK        -0.5000 
    119 N         -2.6487  -19.1756  -53.8506 N.am      22 UNK        -0.5000 
    120 CA        -2.6405  -18.2134  -52.7322 C.3       22 UNK         0.1400 
    121 C         -4.0203  -17.9132  -52.0685 C.2       22 UNK         0.5000 
    122 N         -4.9359  -18.8667  -51.9876 N.am      22 UNK        -0.7600 
    123 O         -4.2754  -16.7873  -51.6513 O.2       22 UNK        -0.5000 
    124 C124       -1.5464  -18.5376  -51.6765 C.3       23 UNK        -0.0398 
    125 S125       -0.8607  -17.0211  -50.9237 S.3       23 UNK        -0.2404 
    126 C126        0.6813  -16.7853  -51.8634 C.3       23 UNK        -0.0205 
    127 H127        1.2338   -8.2806  -50.0179 H         1 UNK         0.0600 
    128 H128        0.6699   -9.6387  -50.9973 H         1 UNK         0.0600 
    129 H129        2.3330   -9.0666  -51.1549 H         1 UNK         0.0600 
    130 H130        3.7897  -10.3623  -50.1196 H         1 UNK         0.3000 
    131 H131        4.7774  -11.8530  -48.9120 H         1 UNK         0.0600 
    132 H132        2.1705  -12.8818  -47.6994 H         1 UNK         0.0800 
    133 H133        2.6549  -13.2657  -49.3214 H         1 UNK         0.0800 
    134 H134        4.7829  -14.3756  -50.0274 H         1 UNK         0.0800 
    135 H135        5.6925  -15.4964  -49.0568 H         1 UNK         0.0800 
    136 H136        2.4305  -15.0021  -50.7835 H         1 UNK         0.1150 
    137 H137        1.6530  -19.2017  -51.0726 H         1 UNK         0.1150 
    138 H138        4.9777  -17.7944  -48.7600 H         1 UNK         0.1150 
    139 H139        3.5291  -20.7404  -50.3992 H         1 UNK         0.0800 
    140 H140        4.8100  -20.1561  -49.3746 H         1 UNK         0.0800 
    141 H141        1.2277  -21.2666  -49.7217 H         1 UNK         0.0800 
    142 H142        0.7196  -19.9145  -48.7412 H         1 UNK         0.0800 
    143 H143        0.8111  -22.8328  -47.8134 H         1 UNK         0.0600 
    144 H144        0.5328  -20.5178  -46.2173 H         1 UNK         0.3000 
    145 H145       -1.5543  -21.8785  -43.6502 H         1 UNK         0.0600 
    146 H146        0.3443  -21.0165  -42.2865 H         1 UNK         0.0600 
    147 H147        0.7334  -22.5620  -43.0266 H         1 UNK         0.0600 
    148 H148        1.4054  -21.0815  -43.6911 H         1 UNK         0.0600 
    149 H149       -0.2849  -19.3298  -44.3120 H         1 UNK         0.3000 
    150 H150       -3.1230  -17.9469  -45.9134 H         1 UNK         0.0600 
    151 H151       -3.8034  -17.6527  -43.5572 H         1 UNK         0.0600 
    152 H152       -2.9635  -16.2183  -44.1316 H         1 UNK         0.0600 
    153 H153       -2.1359  -17.3683  -43.0846 H         1 UNK         0.0600 
    154 H154       -0.5586  -16.9263  -44.9888 H         1 UNK         0.3000 
    155 H155        1.0363  -17.5453  -48.1617 H         1 UNK         0.0600 
    156 H156       -0.4667  -15.4830  -48.2936 H         1 UNK         0.0600 
    157 H157        0.2200  -14.9546  -46.7621 H         1 UNK         0.0600 
    158 H158        1.2450  -15.1452  -48.1853 H         1 UNK         0.0600 
    159 H159        2.3815  -16.2686  -46.2998 H         1 UNK         0.3000 
    160 H160        3.9588  -18.9493  -44.8091 H         1 UNK         0.0600 
    161 H161        4.0256  -15.9238  -45.2457 H         1 UNK         0.0600 
    162 H162        4.6446  -17.1203  -46.3848 H         1 UNK         0.0600 
    163 H163        5.3960  -16.9366  -44.8100 H         1 UNK         0.0600 
    164 H164        2.3078  -17.1747  -43.1834 H         1 UNK         0.3000 
    165 H165        3.5251  -18.4480  -40.2861 H         1 UNK         0.0600 
    166 H166        4.3643  -16.3473  -39.2764 H         1 UNK         0.0600 
    167 H167        5.5997  -17.0825  -40.2839 H         1 UNK         0.0600 
    168 H168        4.7072  -15.6862  -40.8714 H         1 UNK         0.0600 
    169 H169        2.2651  -15.8748  -40.9852 H         1 UNK         0.3000 
    170 H170       -0.9673  -17.2528  -41.2303 H         1 UNK         0.0600 
    171 H171        0.0951  -15.7078  -38.8120 H         1 UNK         0.0600 
    172 H172       -1.5898  -15.8010  -39.3276 H         1 UNK         0.0600 
    173 H173       -0.7686  -17.2395  -38.7448 H         1 UNK         0.0600 
    174 H174       -0.1623  -14.5532  -40.9800 H         1 UNK         0.3000 
    175 H175       -0.0555  -13.8952  -44.3782 H         1 UNK         0.0600 
    176 H176       -0.3620  -11.8385  -43.0822 H         1 UNK         0.0600 
    177 H177        0.0738  -12.6396  -41.5813 H         1 UNK         0.0600 
    178 H178       -1.4130  -13.0788  -42.4239 H         1 UNK         0.0600 
    179 H179        1.9964  -13.0157  -44.4539 H         1 UNK         0.3000 
    180 H180        4.4528  -12.2591  -42.1294 H         1 UNK         0.0600 
    181 H181        5.1881  -14.6306  -42.8941 H         1 UNK         0.0600 
    182 H182        6.1497  -13.2806  -43.4732 H         1 UNK         0.0600 
    183 H183        4.9867  -14.0447  -44.5422 H         1 UNK         0.0600 
    184 H184        4.4040  -11.8577  -44.9449 H         1 UNK         0.3000 
    185 H185        2.1816   -9.1484  -45.0993 H         1 UNK         0.0600 
    186 H186        4.1445   -7.9460  -44.2113 H         1 UNK         0.0600 
    187 H187        5.2373   -8.9460  -45.1545 H         1 UNK         0.0600 
    188 H188        4.1193   -7.8491  -45.9650 H         1 UNK         0.0600 
    189 H189        2.2731  -10.2788  -46.9763 H         1 UNK         0.3000 
    190 H190       -1.7135  -20.2576  -47.9243 H         1 UNK         0.3000 
    191 H191       -3.3122  -21.3833  -49.9530 H         1 UNK         0.0600 
    192 H192       -3.5472  -19.0438  -49.1240 H         1 UNK         0.0600 
    193 H193       -5.0816  -19.8917  -49.0444 H         1 UNK         0.0600 
    194 H194       -4.1459  -19.6325  -47.5777 H         1 UNK         0.0600 
    195 H195       -3.4928  -21.8450  -46.3745 H         1 UNK         0.3000 
    196 H196       -5.7145  -23.5772  -46.3373 H         1 UNK         0.0600 
    197 H197       -4.8858  -24.2138  -44.0769 H         1 UNK         0.0600 
    198 H198       -4.8328  -22.4737  -44.3121 H         1 UNK         0.0600 
    199 H199       -3.3501  -23.4213  -44.4003 H         1 UNK         0.0600 
    200 H200       -2.2112  -24.3688  -46.4851 H         1 UNK         0.3000 
    201 H201       -2.4518  -27.1824  -46.6204 H         1 UNK         0.0600 
    202 H202       -0.3375  -26.0223  -46.0632 H         1 UNK         0.0600 
    203 H203       -0.2529  -25.3287  -47.6809 H         1 UNK         0.0600 
    204 H204       -0.0938  -27.0671  -47.4549 H         1 UNK         0.0600 
    205 H205       -2.5097  -24.7229  -49.2027 H         1 UNK         0.3000 
    206 H206       -2.7111  -26.6033  -51.3987 H         1 UNK         0.0600 
    207 H207       -1.6956  -24.3588  -51.6824 H         1 UNK         0.0600 
    208 H208       -3.0992  -24.5497  -52.7217 H         1 UNK         0.0600 
    209 H209       -3.2234  -23.5891  -51.2543 H         1 UNK         0.0600 
    210 H210       -4.4787  -27.5659  -49.7442 H         1 UNK         0.3000 
    211 H211       -6.5531  -28.2994  -49.4035 H         1 UNK         0.0600 
    212 H212       -6.7942  -27.7501  -52.4052 H         1 UNK         0.0600 
    213 H213       -7.7996  -28.8655  -51.4876 H         1 UNK         0.0600 
    214 H214       -6.0829  -29.1810  -51.6677 H         1 UNK         0.0600 
    215 H215       -6.4255  -25.7639  -48.4785 H         1 UNK         0.3000 
    216 H216       -7.5679  -24.0251  -47.7290 H         1 UNK         0.0600 
    217 H217      -10.0064  -24.2097  -47.3905 H         1 UNK         0.0600 
    218 H218       -9.2190  -25.7280  -46.9908 H         1 UNK         0.0600 
    219 H219      -10.1007  -25.5619  -48.5082 H         1 UNK         0.0600 
    220 H220       -6.4021  -23.2443  -49.7487 H         1 UNK         0.3000 
    221 H221       -6.1516  -21.7232  -51.2887 H         1 UNK         0.0600 
    222 H222       -8.9306  -20.6964  -50.5037 H         1 UNK         0.0600 
    223 H223       -7.4208  -20.2878  -49.6930 H         1 UNK         0.0600 
    224 H224       -7.6949  -19.7877  -51.3550 H         1 UNK         0.0600 
    225 H225       -6.6826  -24.0925  -52.4063 H         1 UNK         0.3000 
    226 H226       -8.6598  -23.8810  -54.5498 H         1 UNK         0.0600 
    227 H227       -8.0728  -26.0712  -53.5619 H         1 UNK         0.0600 
    228 H228       -7.6670  -26.0306  -55.2716 H         1 UNK         0.0600 
    229 H229       -6.3935  -25.8809  -54.0681 H         1 UNK         0.0600 
    230 H230       -7.8531  -21.7317  -55.1112 H         1 UNK         0.3000 
    231 H231       -7.1530  -20.2993  -56.6077 H         1 UNK         0.0600 
    232 H232       -5.8088  -22.5800  -58.1462 H         1 UNK         0.0600 
    233 H233       -6.1301  -20.9633  -58.7511 H         1 UNK         0.0600 
    234 H234       -7.4704  -22.0298  -58.3612 H         1 UNK         0.0600 
    235 H235       -4.5351  -22.4918  -55.6109 H         1 UNK         0.3000 
    236 H236       -2.4017  -20.5521  -55.9110 H         1 UNK         0.0600 
    237 H237       -1.9091  -22.9374  -56.0598 H         1 UNK         0.0600 
    238 H238       -1.0894  -22.2929  -54.6440 H         1 UNK         0.0600 
    239 H239       -2.5656  -23.2318  -54.4546 H         1 UNK         0.0600 
    240 H240       -2.4036  -18.7735  -54.7443 H         1 UNK         0.3000 
    241 H241       -2.3551  -17.2809  -53.2216 H         1 UNK         0.0600 
    242 H242       -4.6865  -19.8020  -52.2925 H         1 UNK         0.3800 
    243 H243       -5.8333  -18.6667  -51.5796 H         1 UNK         0.3800 
    244 H244       -1.9349  -19.1855  -50.8896 H         1 UNK         0.0800 
    245 H245       -0.7300  -19.1009  -52.1293 H         1 UNK         0.0800 
    246 H246        0.7004  -17.4142  -52.7542 H         1 UNK         0.0800 
    247 H247        0.7076  -15.7564  -52.2254 H         1 UNK         0.0800 
@<TRIPOS>BOND
     1    1    2 1    
     2    1  127 1    
     3    1  128 1    
     4    1  129 1    
     5    2    3 2    
     6    2    4 am   BACKBONE|DICT|INTERRES
     7    4    5 1    
     8    4  130 1    
     9    5    6 1    
    10    5   65 1    
    11    5  131 1    
    12    6    7 1    
    13    6  132 1    
    14    6  133 1    
    15    7    8 1    
    16    8    9 1    
    17    8  134 1    
    18    8  135 1    
    19    9   10 ar   
    20    9   14 ar   
    21   10   11 ar   
    22   10  136 1    
    23   11   12 ar   
    24   11  126 1    
    25   12   13 ar   
    26   12  137 1    
    27   13   14 ar   
    28   13   15 1    
    29   14  138 1    
    30   15   16 1    
    31   15  139 1    
    32   15  140 1    
    33   16   17 1    
    34   17   18 1    
    35   17  141 1    
    36   17  142 1    
    37   18   19 1    
    38   18   67 1    
    39   18  143 1    
    40   19   20 am   BACKBONE|DICT|INTERRES
    41   19  144 1    
    42   20   21 2    
    43   20   22 1    
    44   22   23 1    
    45   22   24 1    
    46   22  145 1    
    47   23  146 1    
    48   23  147 1    
    49   23  148 1    
    50   24   25 am   BACKBONE|DICT|INTERRES
    51   24  149 1    
    52   25   26 2    
    53   25   27 1    
    54   27   28 1    
    55   27   29 1    
    56   27  150 1    
    57   28  151 1    
    58   28  152 1    
    59   28  153 1    
    60   29   30 am   BACKBONE|DICT|INTERRES
    61   29  154 1    
    62   30   31 2    
    63   30   32 1    
    64   32   33 1    
    65   32   34 1    
    66   32  155 1    
    67   33  156 1    
    68   33  157 1    
    69   33  158 1    
    70   34   35 am   BACKBONE|DICT|INTERRES
    71   34  159 1    
    72   35   36 2    
    73   35   37 1    
    74   37   38 1    
    75   37   39 1    
    76   37  160 1    
    77   38  161 1    
    78   38  162 1    
    79   38  163 1    
    80   39   40 am   BACKBONE|DICT|INTERRES
    81   39  164 1    
    82   40   41 2    
    83   40   42 1    
    84   42   43 1    
    85   42   44 1    
    86   42  165 1    
    87   43  166 1    
    88   43  167 1    
    89   43  168 1    
    90   44   45 am   BACKBONE|DICT|INTERRES
    91   44  169 1    
    92   45   46 2    
    93   45   47 1    
    94   47   48 1    
    95   47   49 1    
    96   47  170 1    
    97   48  171 1    
    98   48  172 1    
    99   48  173 1    
   100   49   50 am   BACKBONE|DICT|INTERRES
   101   49  174 1    
   102   50   51 2    
   103   50   52 1    
   104   52   53 1    
   105   52   54 1    
   106   52  175 1    
   107   53  176 1    
   108   53  177 1    
   109   53  178 1    
   110   54   55 am   BACKBONE|DICT|INTERRES
   111   54  179 1    
   112   55   56 2    
   113   55   57 1    
   114   57   58 1    
   115   57   59 1    
   116   57  180 1    
   117   58  181 1    
   118   58  182 1    
   119   58  183 1    
   120   59   60 am   BACKBONE|DICT|INTERRES
   121   59  184 1    
   122   60   61 2    
   123   60   62 1    
   124   62   63 1    
   125   62   64 1    
   126   62  185 1    
   127   63  186 1    
   128   63  187 1    
   129   63  188 1    
   130   64   65 am   BACKBONE|DICT|INTERRES
   131   64  189 1    
   132   65   66 2    
   133   67   68 2    
   134   67   69 am   BACKBONE|DICT|INTERRES
   135   69   70 1    
   136   69  190 1    
   137   70   71 1    
   138   70   72 1    
   139   70  191 1    
   140   71  192 1    
   141   71  193 1    
   142   71  194 1    
   143   72   73 2    
   144   72   74 am   BACKBONE|DICT|INTERRES
   145   74   75 1    
   146   74  195 1    
   147   75   76 1    
   148   75   77 1    
   149   75  196 1    
   150   76  197 1    
   151   76  198 1    
   152   76  199 1    
   153   77   78 2    
   154   77   79 am   BACKBONE|DICT|INTERRES
   155   79   80 1    
   156   79  200 1    
   157   80   81 1    
   158   80   82 1    
   159   80  201 1    
   160   81  202 1    
   161   81  203 1    
   162   81  204 1    
   163   82   83 2    
   164   82   84 am   BACKBONE|DICT|INTERRES
   165   84   85 1    
   166   84  205 1    
   167   85   86 1    
   168   85   87 1    
   169   85  206 1    
   170   86  207 1    
   171   86  208 1    
   172   86  209 1    
   173   87   88 2    
   174   87   89 am   BACKBONE|DICT|INTERRES
   175   89   90 1    
   176   89  210 1    
   177   90   91 1    
   178   90   92 1    
   179   90  211 1    
   180   91  212 1    
   181   91  213 1    
   182   91  214 1    
   183   92   93 2    
   184   92   94 am   BACKBONE|DICT|INTERRES
   185   94   95 1    
   186   94  215 1    
   187   95   96 1    
   188   95   97 1    
   189   95  216 1    
   190   96  217 1    
   191   96  218 1    
   192   96  219 1    
   193   97   98 2    
   194   97   99 am   BACKBONE|DICT|INTERRES
   195   99  100 1    
   196   99  220 1    
   197  100  101 1    
   198  100  102 1    
   199  100  221 1    
   200  101  222 1    
   201  101  223 1    
   202  101  224 1    
   203  102  103 2    
   204  102  104 am   BACKBONE|DICT|INTERRES
   205  104  105 1    
   206  104  225 1    
   207  105  106 1    
   208  105  107 1    
   209  105  226 1    
   210  106  227 1    
   211  106  228 1    
   212  106  229 1    
   213  107  108 2    
   214  107  109 am   BACKBONE|DICT|INTERRES
   215  109  110 1    
   216  109  230 1    
   217  110  111 1    
   218  110  112 1    
   219  110  231 1    
   220  111  232 1    
   221  111  233 1    
   222  111  234 1    
   223  112  113 2    
   224  112  114 am   BACKBONE|DICT|INTERRES
   225  114  115 1    
   226  114  235 1    
   227  115  116 1    
   228  115  117 1    
   229  115  236 1    
   230  116  237 1    
   231  116  238 1    
   232  116  239 1    
   233  117  118 2    
   234  117  119 am   BACKBONE|DICT|INTERRES
   235  119  120 1    
   236  119  240 1    
   237  120  121 1    
   238  120  124 1    
   239  120  241 1    
   240  121  122 am   BACKBONE|DICT|INTERRES
   241  121  123 2    
   242  122  242 1    
   243  122  243 1    
   244  124  125 1    
   245  124  244 1    
   246  124  245 1    
   247  125  126 1    
   248  126  246 1    
   249  126  247 1    
@<TRIPOS>SUBSTRUCTURE
     1 UNK         1 GROUP             0       ****    0 ROOT    
