@<TRIPOS>MOLECULE
3R540
247   249    1
SMALL
USER_CHARGES


@<TRIPOS>ATOM
      1 CA          7.1576  -16.2415  -46.8162 C.3       0 UNK        -0.1800 
      2 C           6.5810  -14.8656  -47.1463 C.2       0 UNK         0.5000 
      3 O           7.2908  -13.8719  -47.0054 O.2       0 UNK        -0.5000 
      4 N           5.3245  -14.7417  -47.5979 N.am      1 UNK        -0.5000 
      5 CA          4.3002  -15.7828  -47.7497 C.3       1 UNK         0.1400 
      6 C6          3.0821  -15.2628  -48.5573 C.3       23 UNK        -0.0398 
      7 S7          3.5710  -14.7465  -50.2444 S.3       23 UNK        -0.2404 
      8 C8          2.0833  -15.1118  -51.2432 C.3       23 UNK        -0.0205 
      9 C9          1.8123  -16.5840  -51.5663 C.ar      23 UNK        -0.0193 
     10 C10         0.7937  -16.8862  -52.4767 C.ar      23 UNK        -0.1150 
     11 C11         0.4665  -18.2128  -52.7748 C.ar      23 UNK        -0.0193 
     12 C12         1.1491  -19.2487  -52.1341 C.ar      23 UNK        -0.1150 
     13 C13         2.1661  -18.9688  -51.2201 C.ar      23 UNK        -0.0193 
     14 C14         2.5164  -17.6382  -50.9721 C.ar      23 UNK        -0.1150 
     15 C15         2.8447  -20.1097  -50.4698 C.3       23 UNK        -0.0205 
     16 S16         3.0589  -19.7826  -48.6845 S.3       23 UNK        -0.2404 
     17 C17         1.3880  -19.2503  -48.1715 C.3       23 UNK        -0.0398 
     18 CA          0.6008  -20.3683  -47.4531 C.3       11 UNK         0.1400 
     19 N          -0.2499  -19.8276  -46.3947 N.am      11 UNK        -0.5000 
     20 C          -0.8722  -20.5637  -45.4667 C.2       10 UNK         0.5000 
     21 O          -0.7778  -21.7881  -45.3842 O.2       10 UNK        -0.5000 
     22 CA         -1.7908  -19.7981  -44.5020 C.3       10 UNK         0.1400 
     23 CB         -0.9849  -19.2059  -43.3351 C.3       10 UNK        -0.1800 
     24 N          -2.5365  -18.7440  -45.1958 N.am      10 UNK        -0.5000 
     25 C          -3.5211  -18.9901  -46.0733 C.2       9 UNK         0.5000 
     26 O          -3.9570  -20.1186  -46.3040 O.2       9 UNK        -0.5000 
     27 CA         -4.0768  -17.7905  -46.8621 C.3       9 UNK         0.1400 
     28 CB         -5.2216  -17.1078  -46.1012 C.3       9 UNK        -0.1800 
     29 N          -3.0460  -16.8064  -47.2009 N.am      9 UNK        -0.5000 
     30 C          -2.1004  -17.0172  -48.1290 C.2       8 UNK         0.5000 
     31 O          -1.9906  -18.0649  -48.7589 O.2       8 UNK        -0.5000 
     32 CA         -1.0591  -15.9079  -48.3645 C.3       8 UNK         0.1400 
     33 CB         -1.5597  -14.9142  -49.4231 C.3       8 UNK        -0.1800 
     34 N          -0.6884  -15.1723  -47.1571 N.am      8 UNK        -0.5000 
     35 C          -0.2132  -15.7103  -46.0262 C.2       7 UNK         0.5000 
     36 O          -0.0438  -16.9202  -45.8671 O.2       7 UNK        -0.5000 
     37 CA          0.0935  -14.7395  -44.8685 C.3       7 UNK         0.1400 
     38 CB          0.1619  -13.2574  -45.2946 C.3       7 UNK        -0.1800 
     39 N          -0.8229  -14.8804  -43.7355 N.am      7 UNK        -0.5000 
     40 C          -2.1647  -14.9201  -43.7442 C.2       6 UNK         0.5000 
     41 O          -2.8463  -14.9279  -44.7704 O.2       6 UNK        -0.5000 
     42 CA         -2.8743  -14.9513  -42.3731 C.3       6 UNK         0.1400 
     43 CB         -3.5078  -16.3249  -42.1098 C.3       6 UNK        -0.1800 
     44 N          -1.9863  -14.6238  -41.2537 N.am      6 UNK        -0.5000 
     45 C          -1.6303  -13.3810  -40.9009 C.2       5 UNK         0.5000 
     46 O          -2.0707  -12.3647  -41.4389 O.2       5 UNK        -0.5000 
     47 CA         -0.5864  -13.2524  -39.7720 C.3       5 UNK         0.1400 
     48 CB         -1.2836  -13.1167  -38.4098 C.3       5 UNK        -0.1800 
     49 N           0.3794  -14.3579  -39.7096 N.am      5 UNK        -0.5000 
     50 C           1.2427  -14.6759  -40.6831 C.2       4 UNK         0.5000 
     51 O           1.2705  -14.1130  -41.7800 O.2       4 UNK        -0.5000 
     52 CA          2.2061  -15.8384  -40.4035 C.3       4 UNK         0.1400 
     53 CB          1.4845  -17.1875  -40.5646 C.3       4 UNK        -0.1800 
     54 N           3.2972  -15.7766  -41.3694 N.am      4 UNK        -0.5000 
     55 C           4.6056  -15.8709  -41.1085 C.2       3 UNK         0.5000 
     56 O           5.0716  -16.0550  -39.9825 O.2       3 UNK        -0.5000 
     57 CA          5.5330  -15.7483  -42.3384 C.3       3 UNK         0.1400 
     58 CB          6.9983  -16.1394  -42.0534 C.3       3 UNK        -0.1800 
     59 N           4.9939  -16.4802  -43.4908 N.am      3 UNK        -0.5000 
     60 C           4.7812  -17.7999  -43.5891 C.2       2 UNK         0.5000 
     61 O           5.1682  -18.6220  -42.7583 O.2       2 UNK        -0.5000 
     62 CA          3.9689  -18.3008  -44.8012 C.3       2 UNK         0.1400 
     63 CB          2.4822  -18.3886  -44.4185 C.3       2 UNK        -0.1800 
     64 N           4.1593  -17.5650  -46.0644 N.am      2 UNK        -0.5000 
     65 C           3.8746  -16.2874  -46.3568 C.2       1 UNK         0.5000 
     66 O           3.3652  -15.4962  -45.5626 O.2       1 UNK        -0.5000 
     67 C          -0.2055  -21.2405  -48.4388 C.2       11 UNK         0.5000 
     68 O           0.2544  -22.3178  -48.8115 O.2       11 UNK        -0.5000 
     69 N          -1.4201  -20.7944  -48.7905 N.am      12 UNK        -0.5000 
     70 CA         -2.3849  -21.5340  -49.6007 C.3       12 UNK         0.1400 
     71 CB         -3.6032  -20.6527  -49.8995 C.3       12 UNK        -0.1800 
     72 C          -2.8450  -22.8383  -48.9361 C.2       12 UNK         0.5000 
     73 O          -2.9610  -23.8506  -49.6251 O.2       12 UNK        -0.5000 
     74 N          -3.0824  -22.8000  -47.6170 N.am      13 UNK        -0.5000 
     75 CA         -3.4209  -23.9701  -46.8070 C.3       13 UNK         0.1400 
     76 CB         -3.8579  -23.5280  -45.4028 C.3       13 UNK        -0.1800 
     77 C          -2.2622  -24.9813  -46.7421 C.2       13 UNK         0.5000 
     78 O          -2.4911  -26.1746  -46.9427 O.2       13 UNK        -0.5000 
     79 N          -1.0346  -24.4814  -46.5331 N.am      14 UNK        -0.5000 
     80 CA          0.2067  -25.2626  -46.5625 C.3       14 UNK         0.1400 
     81 CB          1.3793  -24.3779  -46.1128 C.3       14 UNK        -0.1800 
     82 C           0.4933  -25.8969  -47.9395 C.2       14 UNK         0.5000 
     83 O           1.0308  -27.0026  -48.0006 O.2       14 UNK        -0.5000 
     84 N           0.0725  -25.2162  -49.0134 N.am      15 UNK        -0.5000 
     85 CA          0.0957  -25.6800  -50.4025 C.3       15 UNK         0.1400 
     86 CB          0.1403  -24.4531  -51.3304 C.3       15 UNK        -0.1800 
     87 C          -1.0719  -26.6307  -50.7625 C.2       15 UNK         0.5000 
     88 O          -1.3231  -26.8487  -51.9486 O.2       15 UNK        -0.5000 
     89 N          -1.7504  -27.1904  -49.7492 N.am      16 UNK        -0.5000 
     90 CA         -2.8510  -28.1551  -49.8259 C.3       16 UNK         0.1400 
     91 CB         -2.4118  -29.4605  -50.5238 C.3       16 UNK        -0.1800 
     92 C          -4.1400  -27.5445  -50.4088 C.2       16 UNK         0.5000 
     93 O          -4.7847  -28.1534  -51.2645 O.2       16 UNK        -0.5000 
     94 N          -4.4930  -26.3567  -49.8983 N.am      17 UNK        -0.5000 
     95 CA         -5.6793  -25.5575  -50.2156 C.3       17 UNK         0.1400 
     96 CB         -6.9759  -26.3045  -49.8371 C.3       17 UNK        -0.1800 
     97 C          -5.6627  -25.0552  -51.6709 C.2       17 UNK         0.5000 
     98 O          -6.5136  -25.4384  -52.4774 O.2       17 UNK        -0.5000 
     99 N          -4.6727  -24.2048  -51.9737 N.am      18 UNK        -0.5000 
    100 CA        -4.5202  -23.5114  -53.2555 C.3       18 UNK         0.1400 
    101 CB        -3.2056  -22.7176  -53.2479 C.3       18 UNK        -0.1800 
    102 C         -5.7138  -22.5881  -53.5858 C.2       18 UNK         0.5000 
    103 O         -6.3886  -22.0944  -52.6765 O.2       18 UNK        -0.5000 
    104 N         -5.9447  -22.3888  -54.8911 N.am      19 UNK        -0.5000 
    105 CA        -7.0870  -21.6820  -55.4765 C.3       19 UNK         0.1400 
    106 CB        -6.9134  -21.6289  -57.0020 C.3       19 UNK        -0.1800 
    107 C         -7.3076  -20.2655  -54.9141 C.2       19 UNK         0.5000 
    108 O         -6.3561  -19.4860  -54.8172 O.2       19 UNK        -0.5000 
    109 N         -8.5654  -19.9771  -54.5452 N.am      20 UNK        -0.5000 
    110 CA        -9.0697  -18.7133  -53.9868 C.3       20 UNK         0.1400 
    111 CB        -9.0447  -17.6112  -55.0664 C.3       20 UNK        -0.1800 
    112 C         -8.3635  -18.2687  -52.6857 C.2       20 UNK         0.5000 
    113 O         -8.3512  -17.0755  -52.3751 O.2       20 UNK        -0.5000 
    114 N         -7.7394  -19.2251  -51.9777 N.am      21 UNK        -0.5000 
    115 CA        -6.8466  -19.0361  -50.8284 C.3       21 UNK         0.1400 
    116 CB        -7.6485  -18.6116  -49.5809 C.3       21 UNK        -0.1800 
    117 C         -5.6643  -18.0866  -51.1318 C.2       21 UNK         0.5000 
    118 O         -5.1919  -17.3929  -50.2312 O.2       21 UNK        -0.5000 
    119 N         -5.2372  -18.0474  -52.4037 N.am      22 UNK        -0.5000 
    120 CA        -4.2401  -17.1155  -52.9556 C.3       22 UNK         0.1400 
    121 C         -4.6540  -15.6101  -52.8935 C.2       22 UNK         0.5000 
    122 N         -5.9272  -15.2739  -52.7128 N.am      22 UNK        -0.7600 
    123 O         -3.8176  -14.7248  -53.0513 O.2       22 UNK        -0.5000 
    124 C124       -2.8085  -17.3844  -52.4138 C.3       23 UNK        -0.0398 
    125 S125       -2.1770  -19.0077  -52.9607 S.3       23 UNK        -0.2404 
    126 C126       -0.6243  -18.5398  -53.7832 C.3       23 UNK        -0.0205 
    127 H127        8.2460  -16.2145  -46.8724 H         1 UNK         0.0600 
    128 H128        6.8193  -17.0083  -47.5114 H         1 UNK         0.0600 
    129 H129        6.8866  -16.5355  -45.8026 H         1 UNK         0.0600 
    130 H130        4.9978  -13.8108  -47.8121 H         1 UNK         0.3000 
    131 H131        4.7311  -16.6144  -48.3097 H         1 UNK         0.0600 
    132 H132        2.3120  -16.0325  -48.6229 H         1 UNK         0.0800 
    133 H133        2.6168  -14.4113  -48.0571 H         1 UNK         0.0800 
    134 H134        2.1806  -14.5673  -52.1836 H         1 UNK         0.0800 
    135 H135        1.2125  -14.6940  -50.7383 H         1 UNK         0.0800 
    136 H136        0.2510  -16.0825  -52.9543 H         1 UNK         0.1150 
    137 H137        0.8739  -20.2740  -52.3391 H         1 UNK         0.1150 
    138 H138        3.3163  -17.4411  -50.2767 H         1 UNK         0.1150 
    139 H139        2.2728  -21.0328  -50.5800 H         1 UNK         0.0800 
    140 H140        3.8222  -20.2945  -50.9165 H         1 UNK         0.0800 
    141 H141        0.8151  -18.8315  -48.9992 H         1 UNK         0.0800 
    142 H142        1.5478  -18.4095  -47.4965 H         1 UNK         0.0800 
    143 H143        1.3163  -21.0256  -46.9539 H         1 UNK         0.0600 
    144 H144       -0.3521  -18.8181  -46.3565 H         1 UNK         0.3000 
    145 H145       -2.5020  -20.5171  -44.0895 H         1 UNK         0.0600 
    146 H146       -0.4181  -18.3237  -43.6318 H         1 UNK         0.0600 
    147 H147       -0.2750  -19.9325  -42.9371 H         1 UNK         0.0600 
    148 H148       -1.6405  -18.9283  -42.5128 H         1 UNK         0.0600 
    149 H149       -2.1861  -17.8001  -45.1114 H         1 UNK         0.3000 
    150 H150       -4.4894  -18.1824  -47.7934 H         1 UNK         0.0600 
    151 H151       -4.8796  -16.6627  -45.1681 H         1 UNK         0.0600 
    152 H152       -5.6751  -16.3194  -46.7023 H         1 UNK         0.0600 
    153 H153       -6.0083  -17.8227  -45.8567 H         1 UNK         0.0600 
    154 H154       -3.0328  -15.9481  -46.6613 H         1 UNK         0.3000 
    155 H155       -0.1537  -16.3837  -48.7459 H         1 UNK         0.0600 
    156 H156       -2.4954  -14.4423  -49.1205 H         1 UNK         0.0600 
    157 H157       -0.8315  -14.1243  -49.6051 H         1 UNK         0.0600 
    158 H158       -1.7378  -15.4145  -50.3749 H         1 UNK         0.0600 
    159 H159       -0.8353  -14.1740  -47.1787 H         1 UNK         0.3000 
    160 H160        1.0767  -15.0189  -44.4916 H         1 UNK         0.0600 
    161 H161       -0.8081  -12.8752  -45.6148 H         1 UNK         0.0600 
    162 H162        0.8723  -13.1119  -46.1097 H         1 UNK         0.0600 
    163 H163        0.4998  -12.6359  -44.4649 H         1 UNK         0.0600 
    164 H164       -0.3645  -14.8405  -42.8338 H         1 UNK         0.3000 
    165 H165       -3.6793  -14.2145  -42.4151 H         1 UNK         0.0600 
    166 H166       -4.1325  -16.3021  -41.2167 H         1 UNK         0.0600 
    167 H167       -4.1419  -16.6394  -42.9384 H         1 UNK         0.0600 
    168 H168       -2.7494  -17.0907  -41.9635 H         1 UNK         0.0600 
    169 H169       -1.5868  -15.3992  -40.7458 H         1 UNK         0.3000 
    170 H170       -0.0232  -12.3353  -39.9574 H         1 UNK         0.0600 
    171 H171       -1.9913  -12.2865  -38.4134 H         1 UNK         0.0600 
    172 H172       -1.8381  -14.0193  -38.1497 H         1 UNK         0.0600 
    173 H173       -0.5633  -12.9232  -37.6147 H         1 UNK         0.0600 
    174 H174        0.4077  -14.8763  -38.8431 H         1 UNK         0.3000 
    175 H175        2.5857  -15.7391  -39.3845 H         1 UNK         0.0600 
    176 H176        1.0593  -17.3013  -41.5629 H         1 UNK         0.0600 
    177 H177        2.1691  -18.0198  -40.3994 H         1 UNK         0.0600 
    178 H178        0.6710  -17.2898  -39.8456 H         1 UNK         0.0600 
    179 H179        3.0086  -15.5377  -42.3085 H         1 UNK         0.3000 
    180 H180        5.5266  -14.6941  -42.6189 H         1 UNK         0.0600 
    181 H181        7.0859  -17.1626  -41.6880 H         1 UNK         0.0600 
    182 H182        7.4333  -15.4866  -41.2960 H         1 UNK         0.0600 
    183 H183        7.6111  -16.0491  -42.9503 H         1 UNK         0.0600 
    184 H184        4.5666  -15.9083  -44.2150 H         1 UNK         0.3000 
    185 H185        4.3133  -19.3166  -45.0021 H         1 UNK         0.0600 
    186 H186        2.3408  -19.0033  -43.5286 H         1 UNK         0.0600 
    187 H187        2.0546  -17.4092  -44.2056 H         1 UNK         0.0600 
    188 H188        1.9043  -18.8446  -45.2160 H         1 UNK         0.0600 
    189 H189        4.5990  -18.1178  -46.7875 H         1 UNK         0.3000 
    190 H190       -1.6925  -19.8502  -48.5254 H         1 UNK         0.3000 
    191 H191       -1.8969  -21.7841  -50.5440 H         1 UNK         0.0600 
    192 H192       -4.1345  -20.3704  -48.9910 H         1 UNK         0.0600 
    193 H193       -4.3116  -21.1710  -50.5462 H         1 UNK         0.0600 
    194 H194       -3.3075  -19.7361  -50.4054 H         1 UNK         0.0600 
    195 H195       -3.0144  -21.9124  -47.1331 H         1 UNK         0.3000 
    196 H196       -4.2704  -24.4678  -47.2791 H         1 UNK         0.0600 
    197 H197       -4.1598  -24.3863  -44.8014 H         1 UNK         0.0600 
    198 H198       -4.7093  -22.8488  -45.4517 H         1 UNK         0.0600 
    199 H199       -3.0570  -23.0192  -44.8673 H         1 UNK         0.0600 
    200 H200       -0.9409  -23.4887  -46.3365 H         1 UNK         0.3000 
    201 H201        0.1000  -26.0761  -45.8422 H         1 UNK         0.0600 
    202 H202        1.2057  -23.9683  -45.1176 H         1 UNK         0.0600 
    203 H203        1.5394  -23.5428  -46.7944 H         1 UNK         0.0600 
    204 H204        2.3067  -24.9504  -46.0728 H         1 UNK         0.0600 
    205 H205       -0.2879  -24.2791  -48.8676 H         1 UNK         0.3000 
    206 H206        1.0162  -26.2455  -50.5592 H         1 UNK         0.0600 
    207 H207        0.9936  -23.8152  -51.0995 H         1 UNK         0.0600 
    208 H208        0.2324  -24.7471  -52.3764 H         1 UNK         0.0600 
    209 H209       -0.7614  -23.8495  -51.2360 H         1 UNK         0.0600 
    210 H210       -1.5010  -26.9067  -48.8102 H         1 UNK         0.3000 
    211 H211       -3.0880  -28.4125  -48.7924 H         1 UNK         0.0600 
    212 H212       -2.2178  -29.3120  -51.5863 H         1 UNK         0.0600 
    213 H213       -3.1854  -30.2245  -50.4398 H         1 UNK         0.0600 
    214 H214       -1.5071  -29.8651  -50.0701 H         1 UNK         0.0600 
    215 H215       -3.8281  -25.9041  -49.2841 H         1 UNK         0.3000 
    216 H216       -5.6291  -24.6700  -49.5830 H         1 UNK         0.0600 
    217 H217       -7.8468  -25.6645  -49.9833 H         1 UNK         0.0600 
    218 H218       -6.9656  -26.6044  -48.7893 H         1 UNK         0.0600 
    219 H219       -7.1272  -27.1997  -50.4406 H         1 UNK         0.0600 
    220 H220       -4.0017  -23.9816  -51.2451 H         1 UNK         0.3000 
    221 H221       -4.4548  -24.2784  -54.0300 H         1 UNK         0.0600 
    222 H222       -3.2288  -21.9103  -52.5181 H         1 UNK         0.0600 
    223 H223       -2.3553  -23.3595  -53.0185 H         1 UNK         0.0600 
    224 H224       -3.0159  -22.2645  -54.2216 H         1 UNK         0.0600 
    225 H225       -5.3087  -22.8054  -55.5548 H         1 UNK         0.3000 
    226 H226       -7.9720  -22.2830  -55.2581 H         1 UNK         0.0600 
    227 H227       -6.8496  -22.6298  -57.4293 H         1 UNK         0.0600 
    228 H228       -7.7594  -21.1287  -57.4753 H         1 UNK         0.0600 
    229 H229       -6.0113  -21.0841  -57.2837 H         1 UNK         0.0600 
    230 H230       -9.2639  -20.7003  -54.6501 H         1 UNK         0.3000 
    231 H231      -10.1117  -18.8904  -53.7173 H         1 UNK         0.0600 
    232 H232       -9.5496  -16.7087  -54.7202 H         1 UNK         0.0600 
    233 H233       -9.5537  -17.9360  -55.9739 H         1 UNK         0.0600 
    234 H234       -8.0251  -17.3326  -55.3352 H         1 UNK         0.0600 
    235 H235       -7.7679  -20.1697  -52.3411 H         1 UNK         0.3000 
    236 H236       -6.4100  -20.0133  -50.6223 H         1 UNK         0.0600 
    237 H237       -7.0156  -18.6035  -48.6926 H         1 UNK         0.0600 
    238 H238       -8.0688  -17.6116  -49.6922 H         1 UNK         0.0600 
    239 H239       -8.4694  -19.3015  -49.3861 H         1 UNK         0.0600 
    240 H240       -5.6902  -18.6428  -53.0898 H         1 UNK         0.3000 
    241 H241       -4.2204  -17.3274  -54.0252 H         1 UNK         0.0600 
    242 H242       -6.1788  -14.2989  -52.6887 H         1 UNK         0.3800 
    243 H243       -6.6452  -15.9778  -52.5797 H         1 UNK         0.3800 
    244 H244       -2.1177  -16.6112  -52.7490 H         1 UNK         0.0800 
    245 H245       -2.7884  -17.3512  -51.3248 H         1 UNK         0.0800 
    246 H246       -0.7974  -17.7016  -54.4600 H         1 UNK         0.0800 
    247 H247       -0.2971  -19.3711  -54.4094 H         1 UNK         0.0800 
@<TRIPOS>BOND
     1    1    2 1    
     2    1  127 1    
     3    1  128 1    
     4    1  129 1    
     5    2    3 2    
     6    2    4 am   BACKBONE|DICT|INTERRES
     7    4    5 1    
     8    4  130 1    
     9    5    6 1    
    10    5   65 1    
    11    5  131 1    
    12    6    7 1    
    13    6  132 1    
    14    6  133 1    
    15    7    8 1    
    16    8    9 1    
    17    8  134 1    
    18    8  135 1    
    19    9   10 ar   
    20    9   14 ar   
    21   10   11 ar   
    22   10  136 1    
    23   11   12 ar   
    24   11  126 1    
    25   12   13 ar   
    26   12  137 1    
    27   13   14 ar   
    28   13   15 1    
    29   14  138 1    
    30   15   16 1    
    31   15  139 1    
    32   15  140 1    
    33   16   17 1    
    34   17   18 1    
    35   17  141 1    
    36   17  142 1    
    37   18   19 1    
    38   18   67 1    
    39   18  143 1    
    40   19   20 am   BACKBONE|DICT|INTERRES
    41   19  144 1    
    42   20   21 2    
    43   20   22 1    
    44   22   23 1    
    45   22   24 1    
    46   22  145 1    
    47   23  146 1    
    48   23  147 1    
    49   23  148 1    
    50   24   25 am   BACKBONE|DICT|INTERRES
    51   24  149 1    
    52   25   26 2    
    53   25   27 1    
    54   27   28 1    
    55   27   29 1    
    56   27  150 1    
    57   28  151 1    
    58   28  152 1    
    59   28  153 1    
    60   29   30 am   BACKBONE|DICT|INTERRES
    61   29  154 1    
    62   30   31 2    
    63   30   32 1    
    64   32   33 1    
    65   32   34 1    
    66   32  155 1    
    67   33  156 1    
    68   33  157 1    
    69   33  158 1    
    70   34   35 am   BACKBONE|DICT|INTERRES
    71   34  159 1    
    72   35   36 2    
    73   35   37 1    
    74   37   38 1    
    75   37   39 1    
    76   37  160 1    
    77   38  161 1    
    78   38  162 1    
    79   38  163 1    
    80   39   40 am   BACKBONE|DICT|INTERRES
    81   39  164 1    
    82   40   41 2    
    83   40   42 1    
    84   42   43 1    
    85   42   44 1    
    86   42  165 1    
    87   43  166 1    
    88   43  167 1    
    89   43  168 1    
    90   44   45 am   BACKBONE|DICT|INTERRES
    91   44  169 1    
    92   45   46 2    
    93   45   47 1    
    94   47   48 1    
    95   47   49 1    
    96   47  170 1    
    97   48  171 1    
    98   48  172 1    
    99   48  173 1    
   100   49   50 am   BACKBONE|DICT|INTERRES
   101   49  174 1    
   102   50   51 2    
   103   50   52 1    
   104   52   53 1    
   105   52   54 1    
   106   52  175 1    
   107   53  176 1    
   108   53  177 1    
   109   53  178 1    
   110   54   55 am   BACKBONE|DICT|INTERRES
   111   54  179 1    
   112   55   56 2    
   113   55   57 1    
   114   57   58 1    
   115   57   59 1    
   116   57  180 1    
   117   58  181 1    
   118   58  182 1    
   119   58  183 1    
   120   59   60 am   BACKBONE|DICT|INTERRES
   121   59  184 1    
   122   60   61 2    
   123   60   62 1    
   124   62   63 1    
   125   62   64 1    
   126   62  185 1    
   127   63  186 1    
   128   63  187 1    
   129   63  188 1    
   130   64   65 am   BACKBONE|DICT|INTERRES
   131   64  189 1    
   132   65   66 2    
   133   67   68 2    
   134   67   69 am   BACKBONE|DICT|INTERRES
   135   69   70 1    
   136   69  190 1    
   137   70   71 1    
   138   70   72 1    
   139   70  191 1    
   140   71  192 1    
   141   71  193 1    
   142   71  194 1    
   143   72   73 2    
   144   72   74 am   BACKBONE|DICT|INTERRES
   145   74   75 1    
   146   74  195 1    
   147   75   76 1    
   148   75   77 1    
   149   75  196 1    
   150   76  197 1    
   151   76  198 1    
   152   76  199 1    
   153   77   78 2    
   154   77   79 am   BACKBONE|DICT|INTERRES
   155   79   80 1    
   156   79  200 1    
   157   80   81 1    
   158   80   82 1    
   159   80  201 1    
   160   81  202 1    
   161   81  203 1    
   162   81  204 1    
   163   82   83 2    
   164   82   84 am   BACKBONE|DICT|INTERRES
   165   84   85 1    
   166   84  205 1    
   167   85   86 1    
   168   85   87 1    
   169   85  206 1    
   170   86  207 1    
   171   86  208 1    
   172   86  209 1    
   173   87   88 2    
   174   87   89 am   BACKBONE|DICT|INTERRES
   175   89   90 1    
   176   89  210 1    
   177   90   91 1    
   178   90   92 1    
   179   90  211 1    
   180   91  212 1    
   181   91  213 1    
   182   91  214 1    
   183   92   93 2    
   184   92   94 am   BACKBONE|DICT|INTERRES
   185   94   95 1    
   186   94  215 1    
   187   95   96 1    
   188   95   97 1    
   189   95  216 1    
   190   96  217 1    
   191   96  218 1    
   192   96  219 1    
   193   97   98 2    
   194   97   99 am   BACKBONE|DICT|INTERRES
   195   99  100 1    
   196   99  220 1    
   197  100  101 1    
   198  100  102 1    
   199  100  221 1    
   200  101  222 1    
   201  101  223 1    
   202  101  224 1    
   203  102  103 2    
   204  102  104 am   BACKBONE|DICT|INTERRES
   205  104  105 1    
   206  104  225 1    
   207  105  106 1    
   208  105  107 1    
   209  105  226 1    
   210  106  227 1    
   211  106  228 1    
   212  106  229 1    
   213  107  108 2    
   214  107  109 am   BACKBONE|DICT|INTERRES
   215  109  110 1    
   216  109  230 1    
   217  110  111 1    
   218  110  112 1    
   219  110  231 1    
   220  111  232 1    
   221  111  233 1    
   222  111  234 1    
   223  112  113 2    
   224  112  114 am   BACKBONE|DICT|INTERRES
   225  114  115 1    
   226  114  235 1    
   227  115  116 1    
   228  115  117 1    
   229  115  236 1    
   230  116  237 1    
   231  116  238 1    
   232  116  239 1    
   233  117  118 2    
   234  117  119 am   BACKBONE|DICT|INTERRES
   235  119  120 1    
   236  119  240 1    
   237  120  121 1    
   238  120  124 1    
   239  120  241 1    
   240  121  122 am   BACKBONE|DICT|INTERRES
   241  121  123 2    
   242  122  242 1    
   243  122  243 1    
   244  124  125 1    
   245  124  244 1    
   246  124  245 1    
   247  125  126 1    
   248  126  246 1    
   249  126  247 1    
@<TRIPOS>SUBSTRUCTURE
     1 UNK         1 GROUP             0       ****    0 ROOT    
