@<TRIPOS>MOLECULE
3R540
247   249    1
SMALL
USER_CHARGES


@<TRIPOS>ATOM
      1 CA         -3.7987  -16.7852  -45.0627 C.3       0 UNK        -0.1800 
      2 C          -3.9266  -15.3857  -45.6492 C.2       0 UNK         0.5000 
      3 O          -4.4527  -14.4904  -44.9891 O.2       0 UNK        -0.5000 
      4 N          -3.4462  -15.1958  -46.8857 N.am      1 UNK        -0.5000 
      5 CA         -3.4866  -13.9278  -47.6312 C.3       1 UNK         0.1400 
      6 C6         -3.1962  -14.1317  -49.1407 C.3       23 UNK        -0.0398 
      7 S7         -1.5961  -14.9422  -49.5075 S.3       23 UNK        -0.2404 
      8 C8         -2.1440  -16.6379  -49.8847 C.3       23 UNK        -0.0205 
      9 C9         -0.9885  -17.5590  -50.2523 C.ar      23 UNK        -0.0193 
     10 C10        -1.0023  -18.2490  -51.4684 C.ar      23 UNK        -0.1150 
     11 C11         0.0244  -19.1408  -51.7910 C.ar      23 UNK        -0.0193 
     12 C12         1.0794  -19.3316  -50.8949 C.ar      23 UNK        -0.1150 
     13 C13         1.1029  -18.6541  -49.6732 C.ar      23 UNK        -0.0193 
     14 C14         0.0686  -17.7659  -49.3594 C.ar      23 UNK        -0.1150 
     15 C15         2.2249  -18.9139  -48.6768 C.3       23 UNK        -0.0205 
     16 S16         2.0235  -20.5146  -47.8265 S.3       23 UNK        -0.2404 
     17 C17         0.4164  -20.2583  -47.0117 C.3       23 UNK        -0.0398 
     18 CA         -0.0922  -21.4952  -46.2430 C.3       11 UNK         0.1400 
     19 N           0.8160  -21.9068  -45.1681 N.am      11 UNK        -0.5000 
     20 C           0.6544  -22.9487  -44.3403 C.2       10 UNK         0.5000 
     21 O          -0.2963  -23.7291  -44.4190 O.2       10 UNK        -0.5000 
     22 CA          1.6634  -23.1003  -43.1838 C.3       10 UNK         0.1400 
     23 CB          2.1756  -24.5474  -43.0418 C.3       10 UNK        -0.1800 
     24 N           2.7603  -22.1238  -43.2156 N.am      10 UNK        -0.5000 
     25 C           3.8119  -22.0667  -44.0465 C.2       9 UNK         0.5000 
     26 O           4.0475  -22.9027  -44.9183 O.2       9 UNK        -0.5000 
     27 CA          4.7446  -20.8453  -43.9063 C.3       9 UNK         0.1400 
     28 CB          4.5622  -19.8962  -45.1014 C.3       9 UNK        -0.1800 
     29 N           4.5346  -20.0825  -42.6733 N.am      9 UNK        -0.5000 
     30 C           4.9271  -20.4662  -41.4512 C.2       8 UNK         0.5000 
     31 O           5.5394  -21.5099  -41.2241 O.2       8 UNK        -0.5000 
     32 CA          4.5432  -19.5371  -40.2859 C.3       8 UNK         0.1400 
     33 CB          5.5398  -18.3744  -40.1587 C.3       8 UNK        -0.1800 
     34 N           3.1882  -19.0029  -40.4326 N.am      8 UNK        -0.5000 
     35 C           2.0678  -19.7009  -40.1993 C.2       7 UNK         0.5000 
     36 O           2.0580  -20.8731  -39.8237 O.2       7 UNK        -0.5000 
     37 CA          0.7328  -18.9746  -40.4501 C.3       7 UNK         0.1400 
     38 CB          0.3255  -18.1523  -39.2190 C.3       7 UNK        -0.1800 
     39 N           0.7800  -18.1065  -41.6275 N.am      7 UNK        -0.5000 
     40 C           0.8721  -18.5620  -42.8835 C.2       6 UNK         0.5000 
     41 O           0.8227  -19.7556  -43.1753 O.2       6 UNK        -0.5000 
     42 CA          1.0724  -17.5332  -44.0081 C.3       6 UNK         0.1400 
     43 CB         -0.2760  -17.1114  -44.6067 C.3       6 UNK        -0.1800 
     44 N           1.8185  -16.3457  -43.5991 N.am      6 UNK        -0.5000 
     45 C           3.0942  -16.3378  -43.1907 C.2       5 UNK         0.5000 
     46 O           3.7724  -17.3550  -43.0535 O.2       5 UNK        -0.5000 
     47 CA          3.7015  -14.9672  -42.8583 C.3       5 UNK         0.1400 
     48 CB          4.1139  -14.2328  -44.1433 C.3       5 UNK        -0.1800 
     49 N           2.7509  -14.1450  -42.1131 N.am      5 UNK        -0.5000 
     50 C           2.6343  -14.1441  -40.7793 C.2       4 UNK         0.5000 
     51 O           3.3653  -14.7901  -40.0277 O.2       4 UNK        -0.5000 
     52 CA          1.4985  -13.2896  -40.1810 C.3       4 UNK         0.1400 
     53 CB          1.9852  -11.8569  -39.9162 C.3       4 UNK        -0.1800 
     54 N           0.2940  -13.2411  -41.0145 N.am      4 UNK        -0.5000 
     55 C          -0.4727  -14.3021  -41.2997 C.2       3 UNK         0.5000 
     56 O          -0.2350  -15.4429  -40.9053 O.2       3 UNK        -0.5000 
     57 CA         -1.6888  -14.0619  -42.2139 C.3       3 UNK         0.1400 
     58 CB         -2.8746  -13.5261  -41.3982 C.3       3 UNK        -0.1800 
     59 N          -1.4681  -13.1867  -43.3726 N.am      3 UNK        -0.5000 
     60 C          -0.4337  -13.2120  -44.2250 C.2       2 UNK         0.5000 
     61 O           0.5816  -13.8886  -44.0652 O.2       2 UNK        -0.5000 
     62 CA         -0.6279  -12.4332  -45.5293 C.3       2 UNK         0.1400 
     63 CB          0.6888  -12.1938  -46.2904 C.3       2 UNK        -0.1800 
     64 N          -1.5161  -13.2524  -46.3408 N.am      2 UNK        -0.5000 
     65 C          -2.5908  -12.8298  -47.0128 C.2       1 UNK         0.5000 
     66 O          -2.9057  -11.6447  -47.1299 O.2       1 UNK        -0.5000 
     67 C          -1.5204  -21.2148  -45.7388 C.2       11 UNK         0.5000 
     68 O          -2.4704  -21.4555  -46.4788 O.2       11 UNK        -0.5000 
     69 N          -1.6537  -20.7666  -44.4815 N.am      12 UNK        -0.5000 
     70 CA         -2.9319  -20.5538  -43.7971 C.3       12 UNK         0.1400 
     71 CB         -2.6586  -19.9758  -42.4003 C.3       12 UNK        -0.1800 
     72 C          -3.8188  -21.8164  -43.7064 C.2       12 UNK         0.5000 
     73 O          -5.0371  -21.6822  -43.5862 O.2       12 UNK        -0.5000 
     74 N          -3.2030  -23.0044  -43.7894 N.am      13 UNK        -0.5000 
     75 CA         -3.8832  -24.2906  -43.9154 C.3       13 UNK         0.1400 
     76 CB         -3.3284  -25.2544  -42.8542 C.3       13 UNK        -0.1800 
     77 C          -3.7045  -24.8858  -45.3247 C.2       13 UNK         0.5000 
     78 O          -4.6611  -25.4371  -45.8703 O.2       13 UNK        -0.5000 
     79 N          -2.4837  -24.8058  -45.8735 N.am      14 UNK        -0.5000 
     80 CA         -2.0817  -25.5164  -47.0877 C.3       14 UNK         0.1400 
     81 CB         -0.5504  -25.6491  -47.1054 C.3       14 UNK        -0.1800 
     82 C          -2.5788  -24.8969  -48.4074 C.2       14 UNK         0.5000 
     83 O          -2.8060  -25.6464  -49.3587 O.2       14 UNK        -0.5000 
     84 N          -2.7100  -23.5654  -48.4757 N.am      15 UNK        -0.5000 
     85 CA         -3.1100  -22.8610  -49.6948 C.3       15 UNK         0.1400 
     86 CB         -2.5207  -21.4396  -49.6944 C.3       15 UNK        -0.1800 
     87 C          -4.6391  -22.7920  -49.8090 C.2       15 UNK         0.5000 
     88 O          -5.3157  -22.5131  -48.8162 O.2       15 UNK        -0.5000 
     89 N          -5.1499  -22.9822  -51.0303 N.am      16 UNK        -0.5000 
     90 CA         -6.5171  -22.6169  -51.4006 C.3       16 UNK         0.1400 
     91 CB         -7.0201  -23.5495  -52.5135 C.3       16 UNK        -0.1800 
     92 C          -6.5597  -21.1484  -51.8588 C.2       16 UNK         0.5000 
     93 O          -7.5257  -20.4464  -51.5603 O.2       16 UNK        -0.5000 
     94 N          -5.4960  -20.7198  -52.5606 N.am      17 UNK        -0.5000 
     95 CA         -5.2314  -19.3652  -53.0616 C.3       17 UNK         0.1400 
     96 CB         -4.9869  -18.3963  -51.8870 C.3       17 UNK        -0.1800 
     97 C          -6.2912  -18.8453  -54.0589 C.2       17 UNK         0.5000 
     98 O          -6.4773  -17.6343  -54.1875 O.2       17 UNK        -0.5000 
     99 N          -6.9632  -19.7712  -54.7571 N.am      18 UNK        -0.5000 
    100 CA        -8.0218  -19.4868  -55.7293 C.3       18 UNK         0.1400 
    101 CB        -8.8387  -20.7696  -55.9500 C.3       18 UNK        -0.1800 
    102 C         -7.4921  -18.9482  -57.0733 C.2       18 UNK         0.5000 
    103 O         -8.2538  -18.3406  -57.8268 O.2       18 UNK        -0.5000 
    104 N         -6.2068  -19.1852  -57.3509 N.am      19 UNK        -0.5000 
    105 CA        -5.4829  -18.7793  -58.5481 C.3       19 UNK         0.1400 
    106 CB        -5.8268  -19.7324  -59.7103 C.3       19 UNK        -0.1800 
    107 C         -3.9799  -18.8052  -58.2314 C.2       19 UNK         0.5000 
    108 O         -3.5867  -19.2459  -57.1461 O.2       19 UNK        -0.5000 
    109 N         -3.1575  -18.3874  -59.2036 N.am      20 UNK        -0.5000 
    110 CA        -1.6888  -18.3930  -59.1414 C.3       20 UNK         0.1400 
    111 CB        -1.1351  -17.7190  -60.4063 C.3       20 UNK        -0.1800 
    112 C         -1.0636  -19.7939  -58.9587 C.2       20 UNK         0.5000 
    113 O          0.0745  -19.8965  -58.5003 O.2       20 UNK        -0.5000 
    114 N         -1.8310  -20.8446  -59.2823 N.am      21 UNK        -0.5000 
    115 CA        -1.5188  -22.2492  -59.0110 C.3       21 UNK         0.1400 
    116 CB        -2.4813  -23.1265  -59.8274 C.3       21 UNK        -0.1800 
    117 C         -1.5837  -22.6253  -57.5126 C.2       21 UNK         0.5000 
    118 O         -1.1381  -23.7153  -57.1535 O.2       21 UNK        -0.5000 
    119 N         -2.1337  -21.7356  -56.6722 N.am      22 UNK        -0.5000 
    120 CA        -2.2748  -21.8576  -55.2116 C.3       22 UNK         0.1400 
    121 C         -3.4664  -22.7418  -54.7342 C.2       22 UNK         0.5000 
    122 N         -4.2545  -23.3339  -55.6220 N.am      22 UNK        -0.7600 
    123 O         -3.7275  -22.8405  -53.5376 O.2       22 UNK        -0.5000 
    124 C124       -0.9301  -22.1920  -54.5043 C.3       23 UNK        -0.0398 
    125 S125       -0.8218  -21.5403  -52.8080 S.3       23 UNK        -0.2404 
    126 C126       -0.0278  -19.9303  -53.0876 C.3       23 UNK        -0.0205 
    127 H127       -3.3197  -16.7436  -44.0848 H         1 UNK         0.0600 
    128 H128       -3.2112  -17.4427  -45.7040 H         1 UNK         0.0600 
    129 H129       -4.7863  -17.2285  -44.9366 H         1 UNK         0.0600 
    130 H130       -3.0182  -15.9679  -47.3734 H         1 UNK         0.3000 
    131 H131       -4.5100  -13.5536  -47.5556 H         1 UNK         0.0600 
    132 H132       -4.0025  -14.7160  -49.5859 H         1 UNK         0.0800 
    133 H133       -3.2195  -13.1735  -49.6630 H         1 UNK         0.0800 
    134 H134       -2.8675  -16.5931  -50.6994 H         1 UNK         0.0800 
    135 H135       -2.6680  -17.0602  -49.0271 H         1 UNK         0.0800 
    136 H136       -1.8247  -18.1130  -52.1563 H         1 UNK         0.1150 
    137 H137        1.8661  -20.0339  -51.1328 H         1 UNK         0.1150 
    138 H138        0.0745  -17.2479  -48.4107 H         1 UNK         0.1150 
    139 H139        3.1828  -18.9077  -49.1988 H         1 UNK         0.0800 
    140 H140        2.2757  -18.1152  -47.9350 H         1 UNK         0.0800 
    141 H141       -0.3092  -19.9916  -47.7814 H         1 UNK         0.0800 
    142 H142        0.4991  -19.3961  -46.3513 H         1 UNK         0.0800 
    143 H143       -0.1585  -22.3269  -46.9462 H         1 UNK         0.0600 
    144 H144        1.5974  -21.2941  -44.9895 H         1 UNK         0.3000 
    145 H145        1.1022  -22.8671  -42.2778 H         1 UNK         0.0600 
    146 H146        2.8879  -24.6357  -42.2215 H         1 UNK         0.0600 
    147 H147        1.3524  -25.2312  -42.8315 H         1 UNK         0.0600 
    148 H148        2.6614  -24.9003  -43.9515 H         1 UNK         0.0600 
    149 H149        2.6513  -21.3511  -42.5726 H         1 UNK         0.3000 
    150 H150        5.7722  -21.2143  -43.9147 H         1 UNK         0.0600 
    151 H151        4.7550  -20.4091  -46.0446 H         1 UNK         0.0600 
    152 H152        5.2501  -19.0524  -45.0445 H         1 UNK         0.0600 
    153 H153        3.5485  -19.4978  -45.1459 H         1 UNK         0.0600 
    154 H154        4.1018  -19.1671  -42.7758 H         1 UNK         0.3000 
    155 H155        4.5881  -20.1206  -39.3638 H         1 UNK         0.0600 
    156 H156        6.5548  -18.7460  -40.0126 H         1 UNK         0.0600 
    157 H157        5.2992  -17.7412  -39.3045 H         1 UNK         0.0600 
    158 H158        5.5467  -17.7448  -41.0488 H         1 UNK         0.0600 
    159 H159        3.1083  -18.0597  -40.7853 H         1 UNK         0.3000 
    160 H160       -0.0321  -19.7359  -40.6157 H         1 UNK         0.0600 
    161 H161        1.0242  -17.3358  -39.0311 H         1 UNK         0.0600 
    162 H162        0.2948  -18.7744  -38.3237 H         1 UNK         0.0600 
    163 H163       -0.6669  -17.7200  -39.3476 H         1 UNK         0.0600 
    164 H164        0.7337  -17.1057  -41.4621 H         1 UNK         0.3000 
    165 H165        1.6521  -18.0226  -44.7920 H         1 UNK         0.0600 
    166 H166       -0.1386  -16.4720  -45.4789 H         1 UNK         0.0600 
    167 H167       -0.8574  -17.9771  -44.9241 H         1 UNK         0.0600 
    168 H168       -0.8745  -16.5653  -43.8803 H         1 UNK         0.0600 
    169 H169        1.3411  -15.4522  -43.7029 H         1 UNK         0.3000 
    170 H170        4.6002  -15.1310  -42.2597 H         1 UNK         0.0600 
    171 H171        4.8300  -14.8230  -44.7165 H         1 UNK         0.0600 
    172 H172        3.2589  -14.0341  -44.7909 H         1 UNK         0.0600 
    173 H173        4.5880  -13.2783  -43.9146 H         1 UNK         0.0600 
    174 H174        2.0557  -13.6532  -42.6627 H         1 UNK         0.3000 
    175 H175        1.2225  -13.7376  -39.2241 H         1 UNK         0.0600 
    176 H176        2.8694  -11.8566  -39.2775 H         1 UNK         0.0600 
    177 H177        2.2486  -11.3439  -40.8421 H         1 UNK         0.0600 
    178 H178        1.2205  -11.2672  -39.4103 H         1 UNK         0.0600 
    179 H179        0.0379  -12.3437  -41.3993 H         1 UNK         0.3000 
    180 H180       -1.9841  -15.0338  -42.6100 H         1 UNK         0.0600 
    181 H181       -2.6843  -12.5190  -41.0253 H         1 UNK         0.0600 
    182 H182       -3.0785  -14.1634  -40.5365 H         1 UNK         0.0600 
    183 H183       -3.7840  -13.4963  -41.9990 H         1 UNK         0.0600 
    184 H184       -2.2600  -12.6144  -43.6286 H         1 UNK         0.3000 
    185 H185       -1.0838  -11.4700  -45.2908 H         1 UNK         0.0600 
    186 H186        1.3947  -11.6290  -45.6805 H         1 UNK         0.0600 
    187 H187        1.1714  -13.1308  -46.5719 H         1 UNK         0.0600 
    188 H188        0.5145  -11.6233  -47.2027 H         1 UNK         0.0600 
    189 H189       -1.3559  -14.2480  -46.2875 H         1 UNK         0.3000 
    190 H190       -0.8112  -20.5889  -43.9430 H         1 UNK         0.3000 
    191 H191       -3.4902  -19.8112  -44.3705 H         1 UNK         0.0600 
    192 H192       -2.0495  -20.6524  -41.8000 H         1 UNK         0.0600 
    193 H193       -3.5893  -19.8020  -41.8586 H         1 UNK         0.0600 
    194 H194       -2.1398  -19.0193  -42.4629 H         1 UNK         0.0600 
    195 H195       -2.1963  -23.0193  -43.8977 H         1 UNK         0.3000 
    196 H196       -4.9551  -24.1791  -43.7392 H         1 UNK         0.0600 
    197 H197       -3.8088  -26.2312  -42.9236 H         1 UNK         0.0600 
    198 H198       -3.5073  -24.8748  -41.8481 H         1 UNK         0.0600 
    199 H199       -2.2541  -25.4066  -42.9676 H         1 UNK         0.0600 
    200 H200       -1.7317  -24.3699  -45.3460 H         1 UNK         0.3000 
    201 H201       -2.4941  -26.5265  -47.0342 H         1 UNK         0.0600 
    202 H202       -0.1880  -26.1604  -46.2133 H         1 UNK         0.0600 
    203 H203       -0.0605  -24.6770  -47.1546 H         1 UNK         0.0600 
    204 H204       -0.2176  -26.2271  -47.9685 H         1 UNK         0.0600 
    205 H205       -2.6105  -22.9963  -47.6406 H         1 UNK         0.3000 
    206 H206       -2.7074  -23.3840  -50.5657 H         1 UNK         0.0600 
    207 H207       -1.4363  -21.4560  -49.5834 H         1 UNK         0.0600 
    208 H208       -2.7437  -20.9299  -50.6320 H         1 UNK         0.0600 
    209 H209       -2.9358  -20.8231  -48.8979 H         1 UNK         0.0600 
    210 H210       -4.5213  -23.1833  -51.8037 H         1 UNK         0.3000 
    211 H211       -7.1819  -22.7276  -50.5412 H         1 UNK         0.0600 
    212 H212       -8.0471  -23.3066  -52.7893 H         1 UNK         0.0600 
    213 H213       -7.0076  -24.5900  -52.1890 H         1 UNK         0.0600 
    214 H214       -6.4125  -23.4732  -53.4150 H         1 UNK         0.0600 
    215 H215       -4.7824  -21.4085  -52.7798 H         1 UNK         0.3000 
    216 H216       -4.3008  -19.4312  -53.6269 H         1 UNK         0.0600 
    217 H217       -4.6446  -17.4249  -52.2452 H         1 UNK         0.0600 
    218 H218       -4.2224  -18.7814  -51.2120 H         1 UNK         0.0600 
    219 H219       -5.8938  -18.2294  -51.3053 H         1 UNK         0.0600 
    220 H220       -6.7528  -20.7434  -54.5871 H         1 UNK         0.3000 
    221 H221       -8.6845  -18.7275  -55.3086 H         1 UNK         0.0600 
    222 H222       -8.2255  -21.5709  -56.3643 H         1 UNK         0.0600 
    223 H223       -9.2725  -21.1267  -55.0156 H         1 UNK         0.0600 
    224 H224       -9.6624  -20.5945  -56.6434 H         1 UNK         0.0600 
    225 H225       -5.6258  -19.6334  -56.6541 H         1 UNK         0.3000 
    226 H226       -5.7593  -17.7559  -58.8092 H         1 UNK         0.0600 
    227 H227       -6.8951  -19.7247  -59.9267 H         1 UNK         0.0600 
    228 H228       -5.3158  -19.4435  -60.6292 H         1 UNK         0.0600 
    229 H229       -5.5421  -20.7605  -59.4829 H         1 UNK         0.0600 
    230 H230       -3.5605  -18.0461  -60.0646 H         1 UNK         0.3000 
    231 H231       -1.3931  -17.7948  -58.2770 H         1 UNK         0.0600 
    232 H232       -1.4962  -16.6946  -60.4986 H         1 UNK         0.0600 
    233 H233       -1.4223  -18.2604  -61.3085 H         1 UNK         0.0600 
    234 H234       -0.0454  -17.6760  -60.3822 H         1 UNK         0.0600 
    235 H235       -2.7428  -20.6564  -59.6705 H         1 UNK         0.3000 
    236 H236       -0.5002  -22.4457  -59.3517 H         1 UNK         0.0600 
    237 H237       -2.2639  -24.1860  -59.6849 H         1 UNK         0.0600 
    238 H238       -3.5200  -22.9625  -59.5376 H         1 UNK         0.0600 
    239 H239       -2.3937  -22.9208  -60.8944 H         1 UNK         0.0600 
    240 H240       -2.5096  -20.8744  -57.0562 H         1 UNK         0.3000 
    241 H241       -2.5544  -20.8487  -54.9069 H         1 UNK         0.0600 
    242 H242       -5.0224  -23.9021  -55.3043 H         1 UNK         0.3800 
    243 H243       -4.0611  -23.2583  -56.6068 H         1 UNK         0.3800 
    244 H244       -0.7684  -23.2707  -54.4745 H         1 UNK         0.0800 
    245 H245       -0.0911  -21.7846  -55.0701 H         1 UNK         0.0800 
    246 H246        0.9797  -20.0798  -53.4786 H         1 UNK         0.0800 
    247 H247       -0.5801  -19.3744  -53.8470 H         1 UNK         0.0800 
@<TRIPOS>BOND
     1    1    2 1    
     2    1  127 1    
     3    1  128 1    
     4    1  129 1    
     5    2    3 2    
     6    2    4 am   BACKBONE|DICT|INTERRES
     7    4    5 1    
     8    4  130 1    
     9    5    6 1    
    10    5   65 1    
    11    5  131 1    
    12    6    7 1    
    13    6  132 1    
    14    6  133 1    
    15    7    8 1    
    16    8    9 1    
    17    8  134 1    
    18    8  135 1    
    19    9   10 ar   
    20    9   14 ar   
    21   10   11 ar   
    22   10  136 1    
    23   11   12 ar   
    24   11  126 1    
    25   12   13 ar   
    26   12  137 1    
    27   13   14 ar   
    28   13   15 1    
    29   14  138 1    
    30   15   16 1    
    31   15  139 1    
    32   15  140 1    
    33   16   17 1    
    34   17   18 1    
    35   17  141 1    
    36   17  142 1    
    37   18   19 1    
    38   18   67 1    
    39   18  143 1    
    40   19   20 am   BACKBONE|DICT|INTERRES
    41   19  144 1    
    42   20   21 2    
    43   20   22 1    
    44   22   23 1    
    45   22   24 1    
    46   22  145 1    
    47   23  146 1    
    48   23  147 1    
    49   23  148 1    
    50   24   25 am   BACKBONE|DICT|INTERRES
    51   24  149 1    
    52   25   26 2    
    53   25   27 1    
    54   27   28 1    
    55   27   29 1    
    56   27  150 1    
    57   28  151 1    
    58   28  152 1    
    59   28  153 1    
    60   29   30 am   BACKBONE|DICT|INTERRES
    61   29  154 1    
    62   30   31 2    
    63   30   32 1    
    64   32   33 1    
    65   32   34 1    
    66   32  155 1    
    67   33  156 1    
    68   33  157 1    
    69   33  158 1    
    70   34   35 am   BACKBONE|DICT|INTERRES
    71   34  159 1    
    72   35   36 2    
    73   35   37 1    
    74   37   38 1    
    75   37   39 1    
    76   37  160 1    
    77   38  161 1    
    78   38  162 1    
    79   38  163 1    
    80   39   40 am   BACKBONE|DICT|INTERRES
    81   39  164 1    
    82   40   41 2    
    83   40   42 1    
    84   42   43 1    
    85   42   44 1    
    86   42  165 1    
    87   43  166 1    
    88   43  167 1    
    89   43  168 1    
    90   44   45 am   BACKBONE|DICT|INTERRES
    91   44  169 1    
    92   45   46 2    
    93   45   47 1    
    94   47   48 1    
    95   47   49 1    
    96   47  170 1    
    97   48  171 1    
    98   48  172 1    
    99   48  173 1    
   100   49   50 am   BACKBONE|DICT|INTERRES
   101   49  174 1    
   102   50   51 2    
   103   50   52 1    
   104   52   53 1    
   105   52   54 1    
   106   52  175 1    
   107   53  176 1    
   108   53  177 1    
   109   53  178 1    
   110   54   55 am   BACKBONE|DICT|INTERRES
   111   54  179 1    
   112   55   56 2    
   113   55   57 1    
   114   57   58 1    
   115   57   59 1    
   116   57  180 1    
   117   58  181 1    
   118   58  182 1    
   119   58  183 1    
   120   59   60 am   BACKBONE|DICT|INTERRES
   121   59  184 1    
   122   60   61 2    
   123   60   62 1    
   124   62   63 1    
   125   62   64 1    
   126   62  185 1    
   127   63  186 1    
   128   63  187 1    
   129   63  188 1    
   130   64   65 am   BACKBONE|DICT|INTERRES
   131   64  189 1    
   132   65   66 2    
   133   67   68 2    
   134   67   69 am   BACKBONE|DICT|INTERRES
   135   69   70 1    
   136   69  190 1    
   137   70   71 1    
   138   70   72 1    
   139   70  191 1    
   140   71  192 1    
   141   71  193 1    
   142   71  194 1    
   143   72   73 2    
   144   72   74 am   BACKBONE|DICT|INTERRES
   145   74   75 1    
   146   74  195 1    
   147   75   76 1    
   148   75   77 1    
   149   75  196 1    
   150   76  197 1    
   151   76  198 1    
   152   76  199 1    
   153   77   78 2    
   154   77   79 am   BACKBONE|DICT|INTERRES
   155   79   80 1    
   156   79  200 1    
   157   80   81 1    
   158   80   82 1    
   159   80  201 1    
   160   81  202 1    
   161   81  203 1    
   162   81  204 1    
   163   82   83 2    
   164   82   84 am   BACKBONE|DICT|INTERRES
   165   84   85 1    
   166   84  205 1    
   167   85   86 1    
   168   85   87 1    
   169   85  206 1    
   170   86  207 1    
   171   86  208 1    
   172   86  209 1    
   173   87   88 2    
   174   87   89 am   BACKBONE|DICT|INTERRES
   175   89   90 1    
   176   89  210 1    
   177   90   91 1    
   178   90   92 1    
   179   90  211 1    
   180   91  212 1    
   181   91  213 1    
   182   91  214 1    
   183   92   93 2    
   184   92   94 am   BACKBONE|DICT|INTERRES
   185   94   95 1    
   186   94  215 1    
   187   95   96 1    
   188   95   97 1    
   189   95  216 1    
   190   96  217 1    
   191   96  218 1    
   192   96  219 1    
   193   97   98 2    
   194   97   99 am   BACKBONE|DICT|INTERRES
   195   99  100 1    
   196   99  220 1    
   197  100  101 1    
   198  100  102 1    
   199  100  221 1    
   200  101  222 1    
   201  101  223 1    
   202  101  224 1    
   203  102  103 2    
   204  102  104 am   BACKBONE|DICT|INTERRES
   205  104  105 1    
   206  104  225 1    
   207  105  106 1    
   208  105  107 1    
   209  105  226 1    
   210  106  227 1    
   211  106  228 1    
   212  106  229 1    
   213  107  108 2    
   214  107  109 am   BACKBONE|DICT|INTERRES
   215  109  110 1    
   216  109  230 1    
   217  110  111 1    
   218  110  112 1    
   219  110  231 1    
   220  111  232 1    
   221  111  233 1    
   222  111  234 1    
   223  112  113 2    
   224  112  114 am   BACKBONE|DICT|INTERRES
   225  114  115 1    
   226  114  235 1    
   227  115  116 1    
   228  115  117 1    
   229  115  236 1    
   230  116  237 1    
   231  116  238 1    
   232  116  239 1    
   233  117  118 2    
   234  117  119 am   BACKBONE|DICT|INTERRES
   235  119  120 1    
   236  119  240 1    
   237  120  121 1    
   238  120  124 1    
   239  120  241 1    
   240  121  122 am   BACKBONE|DICT|INTERRES
   241  121  123 2    
   242  122  242 1    
   243  122  243 1    
   244  124  125 1    
   245  124  244 1    
   246  124  245 1    
   247  125  126 1    
   248  126  246 1    
   249  126  247 1    
@<TRIPOS>SUBSTRUCTURE
     1 UNK         1 GROUP             0       ****    0 ROOT    
