@<TRIPOS>MOLECULE
3R540
247   249    1
SMALL
USER_CHARGES


@<TRIPOS>ATOM
      1 CA         -2.2724  -12.2914  -43.1268 C.3       0 UNK        -0.1800 
      2 C          -2.5463  -11.7331  -44.5158 C.2       0 UNK         0.5000 
      3 O          -2.6160  -10.5161  -44.6909 O.2       0 UNK        -0.5000 
      4 N          -2.6973  -12.6198  -45.5064 N.am      1 UNK        -0.5000 
      5 CA         -2.9418  -12.2970  -46.9152 C.3       1 UNK         0.1400 
      6 C6         -3.6297  -13.4884  -47.6292 C.3       23 UNK        -0.0398 
      7 S7         -4.1458  -13.1458  -49.3472 S.3       23 UNK        -0.2404 
      8 C8         -3.1852  -14.4004  -50.2571 C.3       23 UNK        -0.0205 
      9 C9         -3.8243  -15.7787  -50.1646 C.ar      23 UNK        -0.0193 
     10 C10        -4.8290  -16.1367  -51.0673 C.ar      23 UNK        -0.1150 
     11 C11        -5.4049  -17.4093  -51.0256 C.ar      23 UNK        -0.0193 
     12 C12        -4.9967  -18.3122  -50.0391 C.ar      23 UNK        -0.1150 
     13 C13        -4.0028  -17.9636  -49.1202 C.ar      23 UNK        -0.0193 
     14 C14        -3.4091  -16.7003  -49.1972 C.ar      23 UNK        -0.1150 
     15 C15        -3.5713  -18.9544  -48.0504 C.3       23 UNK        -0.0205 
     16 S16        -4.3789  -18.5769  -46.4595 S.3       23 UNK        -0.2404 
     17 C17        -4.0664  -19.9894  -45.3290 C.3       23 UNK        -0.0398 
     18 CA         -3.3757  -21.2519  -45.9033 C.3       11 UNK         0.1400 
     19 N          -1.9607  -21.0259  -46.2180 N.am      11 UNK        -0.5000 
     20 C          -1.1688  -21.8955  -46.8604 C.2       10 UNK         0.5000 
     21 O          -1.5499  -22.9945  -47.2597 O.2       10 UNK        -0.5000 
     22 CA          0.3043  -21.4935  -47.0405 C.3       10 UNK         0.1400 
     23 CB          0.4634  -20.4404  -48.1462 C.3       10 UNK        -0.1800 
     24 N           0.8970  -21.0148  -45.7927 N.am      10 UNK        -0.5000 
     25 C           1.1354  -21.7975  -44.7302 C.2       9 UNK         0.5000 
     26 O           0.9507  -23.0146  -44.7263 O.2       9 UNK        -0.5000 
     27 CA          1.6398  -21.1103  -43.4469 C.3       9 UNK         0.1400 
     28 CB          3.1683  -20.9656  -43.4770 C.3       9 UNK        -0.1800 
     29 N           1.0276  -19.8015  -43.2116 N.am      9 UNK        -0.5000 
     30 C          -0.2797  -19.5994  -42.9900 C.2       8 UNK         0.5000 
     31 O          -1.1106  -20.5040  -42.9232 O.2       8 UNK        -0.5000 
     32 CA         -0.7506  -18.1362  -42.8967 C.3       8 UNK         0.1400 
     33 CB         -0.4392  -17.5384  -41.5170 C.3       8 UNK        -0.1800 
     34 N          -0.1689  -17.2958  -43.9433 N.am      8 UNK        -0.5000 
     35 C          -0.3343  -17.5033  -45.2571 C.2       7 UNK         0.5000 
     36 O          -1.0319  -18.3996  -45.7260 O.2       7 UNK        -0.5000 
     37 CA          0.4592  -16.5955  -46.2061 C.3       7 UNK         0.1400 
     38 CB         -0.2398  -15.2407  -46.3711 C.3       7 UNK        -0.1800 
     39 N           1.8369  -16.4152  -45.7488 N.am      7 UNK        -0.5000 
     40 C           2.7608  -17.3875  -45.7727 C.2       6 UNK         0.5000 
     41 O           2.5657  -18.5008  -46.2596 O.2       6 UNK        -0.5000 
     42 CA          4.1085  -17.0883  -45.0926 C.3       6 UNK         0.1400 
     43 CB          5.1029  -16.4652  -46.0811 C.3       6 UNK        -0.1800 
     44 N           3.9578  -16.2189  -43.9249 N.am      6 UNK        -0.5000 
     45 C           3.4258  -16.6282  -42.7639 C.2       5 UNK         0.5000 
     46 O           3.0387  -17.7789  -42.5632 O.2       5 UNK        -0.5000 
     47 CA          3.2555  -15.5745  -41.6539 C.3       5 UNK         0.1400 
     48 CB          4.5184  -15.5013  -40.7834 C.3       5 UNK        -0.1800 
     49 N           2.9386  -14.2376  -42.1575 N.am      5 UNK        -0.5000 
     50 C           1.8497  -13.9207  -42.8704 C.2       4 UNK         0.5000 
     51 O           0.9844  -14.7377  -43.1873 O.2       4 UNK        -0.5000 
     52 CA          1.7046  -12.4575  -43.3336 C.3       4 UNK         0.1400 
     53 CB          2.6701  -11.4760  -42.6327 C.3       4 UNK        -0.1800 
     54 N           1.8180  -12.3203  -44.7887 N.am      4 UNK        -0.5000 
     55 C           2.8409  -12.7008  -45.5700 C.2       3 UNK         0.5000 
     56 O           3.8142  -13.3334  -45.1570 O.2       3 UNK        -0.5000 
     57 CA          2.7747  -12.3084  -47.0620 C.3       3 UNK         0.1400 
     58 CB          2.9953  -13.5191  -47.9835 C.3       3 UNK        -0.1800 
     59 N           1.5206  -11.6448  -47.4327 N.am      3 UNK        -0.5000 
     60 C           1.2855  -10.3311  -47.3352 C.2       2 UNK         0.5000 
     61 O           2.1006   -9.5290  -46.8789 O.2       2 UNK        -0.5000 
     62 CA         -0.0898   -9.8187  -47.8065 C.3       2 UNK         0.1400 
     63 CB         -0.1352   -9.6822  -49.3406 C.3       2 UNK        -0.1800 
     64 N          -1.2419  -10.5782  -47.3011 N.am      2 UNK        -0.5000 
     65 C          -1.6276  -11.8301  -47.5835 C.2       1 UNK         0.5000 
     66 O          -0.9771  -12.6026  -48.2882 O.2       1 UNK        -0.5000 
     67 C          -3.5826  -22.4628  -44.9660 C.2       11 UNK         0.5000 
     68 O          -4.5678  -23.1840  -45.1269 O.2       11 UNK        -0.5000 
     69 N          -2.6367  -22.7089  -44.0475 N.am      12 UNK        -0.5000 
     70 CA         -2.6178  -23.8663  -43.1470 C.3       12 UNK         0.1400 
     71 CB         -1.4957  -23.6924  -42.1121 C.3       12 UNK        -0.1800 
     72 C          -2.4921  -25.2295  -43.8615 C.2       12 UNK         0.5000 
     73 O          -2.8452  -26.2481  -43.2663 O.2       12 UNK        -0.5000 
     74 N          -2.0335  -25.2364  -45.1227 N.am      13 UNK        -0.5000 
     75 CA         -1.9993  -26.4202  -45.9860 C.3       13 UNK         0.1400 
     76 CB         -0.9177  -26.2295  -47.0580 C.3       13 UNK        -0.1800 
     77 C          -3.3618  -26.7279  -46.6444 C.2       13 UNK         0.5000 
     78 O          -3.4588  -27.7108  -47.3812 O.2       13 UNK        -0.5000 
     79 N          -4.3745  -25.8800  -46.4037 N.am      14 UNK        -0.5000 
     80 CA         -5.7856  -25.9618  -46.8037 C.3       14 UNK         0.1400 
     81 CB         -6.4480  -27.2362  -46.2471 C.3       14 UNK        -0.1800 
     82 C          -6.0575  -25.8146  -48.3125 C.2       14 UNK         0.5000 
     83 O          -7.0404  -25.1712  -48.6822 O.2       14 UNK        -0.5000 
     84 N          -5.1999  -26.3999  -49.1525 N.am      15 UNK        -0.5000 
     85 CA         -5.3121  -26.3833  -50.6073 C.3       15 UNK         0.1400 
     86 CB         -6.1811  -27.5583  -51.0869 C.3       15 UNK        -0.1800 
     87 C          -3.9324  -26.4072  -51.2742 C.2       15 UNK         0.5000 
     88 O          -3.6986  -25.6047  -52.1765 O.2       15 UNK        -0.5000 
     89 N          -3.0522  -27.3155  -50.8222 N.am      16 UNK        -0.5000 
     90 CA         -1.7804  -27.6615  -51.4690 C.3       16 UNK         0.1400 
     91 CB         -1.0732  -28.7570  -50.6545 C.3       16 UNK        -0.1800 
     92 C          -0.8461  -26.4651  -51.7277 C.2       16 UNK         0.5000 
     93 O          -0.5023  -26.1995  -52.8803 O.2       16 UNK        -0.5000 
     94 N          -0.4810  -25.7520  -50.6555 N.am      17 UNK        -0.5000 
     95 CA          0.2958  -24.5125  -50.7344 C.3       17 UNK         0.1400 
     96 CB          1.1997  -24.3938  -49.4991 C.3       17 UNK        -0.1800 
     97 C          -0.6096  -23.2755  -50.8660 C.2       17 UNK         0.5000 
     98 O          -0.1599  -22.2540  -51.3838 O.2       17 UNK        -0.5000 
     99 N          -1.8665  -23.3821  -50.4099 N.am      18 UNK        -0.5000 
    100 CA        -2.8512  -22.3006  -50.4145 C.3       18 UNK         0.1400 
    101 CB        -4.1176  -22.7456  -49.6681 C.3       18 UNK        -0.1800 
    102 C         -3.1907  -21.8213  -51.8341 C.2       18 UNK         0.5000 
    103 O         -3.1985  -20.6172  -52.0757 O.2       18 UNK        -0.5000 
    104 N         -3.3882  -22.7659  -52.7650 N.am      19 UNK        -0.5000 
    105 CA        -3.6788  -22.4933  -54.1749 C.3       19 UNK         0.1400 
    106 CB        -4.0095  -23.8139  -54.8858 C.3       19 UNK        -0.1800 
    107 C         -2.5489  -21.7508  -54.9159 C.2       19 UNK         0.5000 
    108 O         -2.8293  -21.0488  -55.8873 O.2       19 UNK        -0.5000 
    109 N         -1.3036  -21.9012  -54.4427 N.am      20 UNK        -0.5000 
    110 CA        -0.1389  -21.1755  -54.9485 C.3       20 UNK         0.1400 
    111 CB         1.1358  -21.9706  -54.6253 C.3       20 UNK        -0.1800 
    112 C         -0.0495  -19.7428  -54.3873 C.2       20 UNK         0.5000 
    113 O          0.5375  -18.8804  -55.0420 O.2       20 UNK        -0.5000 
    114 N         -0.6241  -19.5078  -53.1986 N.am      21 UNK        -0.5000 
    115 CA        -0.7161  -18.1881  -52.5740 C.3       21 UNK         0.1400 
    116 CB        -0.8516  -18.3429  -51.0519 C.3       21 UNK        -0.1800 
    117 C         -1.8652  -17.3469  -53.1613 C.2       21 UNK         0.5000 
    118 O         -1.7306  -16.1243  -53.2339 O.2       21 UNK        -0.5000 
    119 N         -2.9522  -18.0041  -53.5923 N.am      22 UNK        -0.5000 
    120 CA        -4.0690  -17.3867  -54.3259 C.3       22 UNK         0.1400 
    121 C         -3.6349  -16.7498  -55.6782 C.2       22 UNK         0.5000 
    122 N         -4.2299  -15.6276  -56.0615 N.am      22 UNK        -0.7600 
    123 O         -2.8019  -17.2849  -56.4059 O.2       22 UNK        -0.5000 
    124 C124       -5.2432  -18.3710  -54.5693 C.3       23 UNK        -0.0398 
    125 S125       -5.9432  -19.1900  -53.0938 S.3       23 UNK        -0.2404 
    126 C126       -6.4785  -17.8088  -52.0299 C.3       23 UNK        -0.0205 
    127 H127       -1.7967  -13.2718  -43.1762 H         1 UNK         0.0600 
    128 H128       -3.2054  -12.3876  -42.5717 H         1 UNK         0.0600 
    129 H129       -1.6150  -11.6230  -42.5710 H         1 UNK         0.0600 
    130 H130       -2.6178  -13.6032  -45.2930 H         1 UNK         0.3000 
    131 H131       -3.6407  -11.4584  -46.9553 H         1 UNK         0.0600 
    132 H132       -2.9841  -14.3624  -47.6080 H         1 UNK         0.0800 
    133 H133       -4.5271  -13.7740  -47.0787 H         1 UNK         0.0800 
    134 H134       -3.1197  -14.1015  -51.3044 H         1 UNK         0.0800 
    135 H135       -2.1576  -14.4287  -49.8916 H         1 UNK         0.0800 
    136 H136       -5.1522  -15.4222  -51.8107 H         1 UNK         0.1150 
    137 H137       -5.4493  -19.2927  -49.9966 H         1 UNK         0.1150 
    138 H138       -2.6278  -16.4394  -48.4985 H         1 UNK         0.1150 
    139 H139       -3.8214  -19.9621  -48.3764 H         1 UNK         0.0800 
    140 H140       -2.4880  -18.9175  -47.9351 H         1 UNK         0.0800 
    141 H141       -5.0445  -20.2536  -44.9221 H         1 UNK         0.0800 
    142 H142       -3.4927  -19.6125  -44.4806 H         1 UNK         0.0800 
    143 H143       -3.8813  -21.5230  -46.8298 H         1 UNK         0.0600 
    144 H144       -1.5754  -20.1253  -45.9369 H         1 UNK         0.3000 
    145 H145        0.8563  -22.3822  -47.3481 H         1 UNK         0.0600 
    146 H146        1.5150  -20.2258  -48.3364 H         1 UNK         0.0600 
    147 H147       -0.0269  -19.5014  -47.8933 H         1 UNK         0.0600 
    148 H148        0.0297  -20.7930  -49.0817 H         1 UNK         0.0600 
    149 H149        1.1202  -20.0281  -45.7398 H         1 UNK         0.3000 
    150 H150        1.3768  -21.7534  -42.6045 H         1 UNK         0.0600 
    151 H151        3.6498  -21.9325  -43.6284 H         1 UNK         0.0600 
    152 H152        3.5445  -20.5587  -42.5383 H         1 UNK         0.0600 
    153 H153        3.4934  -20.3066  -44.2823 H         1 UNK         0.0600 
    154 H154        1.6558  -19.0033  -43.1981 H         1 UNK         0.3000 
    155 H155       -1.8339  -18.1265  -43.0334 H         1 UNK         0.0600 
    156 H156       -0.9236  -18.1130  -40.7267 H         1 UNK         0.0600 
    157 H157       -0.7978  -16.5117  -41.4414 H         1 UNK         0.0600 
    158 H158        0.6304  -17.5353  -41.3101 H         1 UNK         0.0600 
    159 H159        0.3849  -16.4991  -43.6410 H         1 UNK         0.3000 
    160 H160        0.4798  -17.0807  -47.1844 H         1 UNK         0.0600 
    161 H161       -0.1663  -14.6195  -45.4801 H         1 UNK         0.0600 
    162 H162       -1.2980  -15.3857  -46.5801 H         1 UNK         0.0600 
    163 H163        0.1770  -14.6842  -47.2071 H         1 UNK         0.0600 
    164 H164        2.0541  -15.5538  -45.2692 H         1 UNK         0.3000 
    165 H165        4.5265  -18.0407  -44.7596 H         1 UNK         0.0600 
    166 H166        6.0831  -16.3338  -45.6226 H         1 UNK         0.0600 
    167 H167        5.2353  -17.1024  -46.9565 H         1 UNK         0.0600 
    168 H168        4.7655  -15.4918  -46.4313 H         1 UNK         0.0600 
    169 H169        4.2031  -15.2428  -44.0425 H         1 UNK         0.3000 
    170 H170        2.4249  -15.8939  -41.0217 H         1 UNK         0.0600 
    171 H171        5.3811  -15.1544  -41.3537 H         1 UNK         0.0600 
    172 H172        4.3782  -14.8248  -39.9401 H         1 UNK         0.0600 
    173 H173        4.7676  -16.4814  -40.3741 H         1 UNK         0.0600 
    174 H174        3.6130  -13.5112  -41.9662 H         1 UNK         0.3000 
    175 H175        0.6900  -12.1589  -43.0720 H         1 UNK         0.0600 
    176 H176        3.7139  -11.6735  -42.8795 H         1 UNK         0.0600 
    177 H177        2.4553  -10.4483  -42.9262 H         1 UNK         0.0600 
    178 H178        2.5658  -11.5252  -41.5480 H         1 UNK         0.0600 
    179 H179        1.0577  -11.8365  -45.2426 H         1 UNK         0.3000 
    180 H180        3.5993  -11.6147  -47.2388 H         1 UNK         0.0600 
    181 H181        2.8441  -13.2535  -49.0300 H         1 UNK         0.0600 
    182 H182        2.3274  -14.3454  -47.7480 H         1 UNK         0.0600 
    183 H183        4.0166  -13.8883  -47.8957 H         1 UNK         0.0600 
    184 H184        0.7754  -12.2255  -47.8119 H         1 UNK         0.3000 
    185 H185       -0.2030   -8.8157  -47.3919 H         1 UNK         0.0600 
    186 H186       -1.0793   -9.2480  -49.6695 H         1 UNK         0.0600 
    187 H187        0.6635   -9.0301  -49.6960 H         1 UNK         0.0600 
    188 H188       -0.0158  -10.6432  -49.8417 H         1 UNK         0.0600 
    189 H189       -1.8008  -10.0874  -46.6111 H         1 UNK         0.3000 
    190 H190       -1.8903  -22.0313  -43.9241 H         1 UNK         0.3000 
    191 H191       -3.5687  -23.8765  -42.6106 H         1 UNK         0.0600 
    192 H192       -1.6369  -22.7851  -41.5250 H         1 UNK         0.0600 
    193 H193       -0.5162  -23.6378  -42.5860 H         1 UNK         0.0600 
    194 H194       -1.4745  -24.5286  -41.4121 H         1 UNK         0.0600 
    195 H195       -1.7673  -24.3591  -45.5550 H         1 UNK         0.3000 
    196 H196       -1.7236  -27.2873  -45.3825 H         1 UNK         0.0600 
    197 H197        0.0231  -25.8927  -46.6219 H         1 UNK         0.0600 
    198 H198       -1.2288  -25.4995  -47.8035 H         1 UNK         0.0600 
    199 H199       -0.7178  -27.1666  -47.5775 H         1 UNK         0.0600 
    200 H200       -4.1643  -25.0620  -45.8417 H         1 UNK         0.3000 
    201 H201       -6.2688  -25.1101  -46.3222 H         1 UNK         0.0600 
    202 H202       -6.3231  -27.3048  -45.1664 H         1 UNK         0.0600 
    203 H203       -6.0317  -28.1405  -46.6917 H         1 UNK         0.0600 
    204 H204       -7.5194  -27.2379  -46.4513 H         1 UNK         0.0600 
    205 H205       -4.4270  -26.9148  -48.7393 H         1 UNK         0.3000 
    206 H206       -5.7981  -25.4575  -50.9222 H         1 UNK         0.0600 
    207 H207       -5.7747  -28.5184  -50.7668 H         1 UNK         0.0600 
    208 H208       -7.1968  -27.4803  -50.6989 H         1 UNK         0.0600 
    209 H209       -6.2505  -27.5750  -52.1753 H         1 UNK         0.0600 
    210 H210       -3.3358  -27.9253  -50.0691 H         1 UNK         0.3000 
    211 H211       -2.0280  -28.0857  -52.4443 H         1 UNK         0.0600 
    212 H212       -0.8809  -28.4422  -49.6289 H         1 UNK         0.0600 
    213 H213       -0.1147  -29.0223  -51.1028 H         1 UNK         0.0600 
    214 H214       -1.6734  -29.6662  -50.6157 H         1 UNK         0.0600 
    215 H215       -0.7857  -26.0515  -49.7422 H         1 UNK         0.3000 
    216 H216        0.9437  -24.5372  -51.6135 H         1 UNK         0.0600 
    217 H217        1.8178  -23.4967  -49.5544 H         1 UNK         0.0600 
    218 H218        1.8725  -25.2476  -49.4189 H         1 UNK         0.0600 
    219 H219        0.6217  -24.3350  -48.5789 H         1 UNK         0.0600 
    220 H220       -2.1594  -24.2577  -50.0081 H         1 UNK         0.3000 
    221 H221       -2.4151  -21.4588  -49.8727 H         1 UNK         0.0600 
    222 H222       -4.6363  -23.5422  -50.1982 H         1 UNK         0.0600 
    223 H223       -3.8873  -23.1075  -48.6663 H         1 UNK         0.0600 
    224 H224       -4.8193  -21.9173  -49.5645 H         1 UNK         0.0600 
    225 H225       -3.3606  -23.7455  -52.4931 H         1 UNK         0.3000 
    226 H226       -4.5641  -21.8554  -54.2118 H         1 UNK         0.0600 
    227 H227       -4.8744  -24.2989  -54.4329 H         1 UNK         0.0600 
    228 H228       -4.2451  -23.6461  -55.9375 H         1 UNK         0.0600 
    229 H229       -3.1728  -24.5125  -54.8417 H         1 UNK         0.0600 
    230 H230       -1.1613  -22.4739  -53.6224 H         1 UNK         0.3000 
    231 H231       -0.2173  -21.1000  -56.0353 H         1 UNK         0.0600 
    232 H232        2.0135  -21.4874  -55.0562 H         1 UNK         0.0600 
    233 H233        1.0870  -22.9799  -55.0344 H         1 UNK         0.0600 
    234 H234        1.3038  -22.0508  -53.5516 H         1 UNK         0.0600 
    235 H235       -1.1070  -20.2625  -52.7280 H         1 UNK         0.3000 
    236 H236        0.2140  -17.6482  -52.7643 H         1 UNK         0.0600 
    237 H237       -1.7611  -18.8748  -50.7756 H         1 UNK         0.0600 
    238 H238       -0.0037  -18.8878  -50.6383 H         1 UNK         0.0600 
    239 H239       -0.8808  -17.3681  -50.5640 H         1 UNK         0.0600 
    240 H240       -3.0219  -18.9985  -53.4118 H         1 UNK         0.3000 
    241 H241       -4.4377  -16.5732  -53.7045 H         1 UNK         0.0600 
    242 H242       -4.9231  -15.1698  -55.4901 H         1 UNK         0.3800 
    243 H243       -3.9691  -15.2145  -56.9437 H         1 UNK         0.3800 
    244 H244       -4.9244  -19.1611  -55.2517 H         1 UNK         0.0800 
    245 H245       -6.0644  -17.8577  -55.0726 H         1 UNK         0.0800 
    246 H246       -7.3674  -18.1197  -51.4797 H         1 UNK         0.0800 
    247 H247       -6.7830  -16.9617  -52.6462 H         1 UNK         0.0800 
@<TRIPOS>BOND
     1    1    2 1    
     2    1  127 1    
     3    1  128 1    
     4    1  129 1    
     5    2    3 2    
     6    2    4 am   BACKBONE|DICT|INTERRES
     7    4    5 1    
     8    4  130 1    
     9    5    6 1    
    10    5   65 1    
    11    5  131 1    
    12    6    7 1    
    13    6  132 1    
    14    6  133 1    
    15    7    8 1    
    16    8    9 1    
    17    8  134 1    
    18    8  135 1    
    19    9   10 ar   
    20    9   14 ar   
    21   10   11 ar   
    22   10  136 1    
    23   11   12 ar   
    24   11  126 1    
    25   12   13 ar   
    26   12  137 1    
    27   13   14 ar   
    28   13   15 1    
    29   14  138 1    
    30   15   16 1    
    31   15  139 1    
    32   15  140 1    
    33   16   17 1    
    34   17   18 1    
    35   17  141 1    
    36   17  142 1    
    37   18   19 1    
    38   18   67 1    
    39   18  143 1    
    40   19   20 am   BACKBONE|DICT|INTERRES
    41   19  144 1    
    42   20   21 2    
    43   20   22 1    
    44   22   23 1    
    45   22   24 1    
    46   22  145 1    
    47   23  146 1    
    48   23  147 1    
    49   23  148 1    
    50   24   25 am   BACKBONE|DICT|INTERRES
    51   24  149 1    
    52   25   26 2    
    53   25   27 1    
    54   27   28 1    
    55   27   29 1    
    56   27  150 1    
    57   28  151 1    
    58   28  152 1    
    59   28  153 1    
    60   29   30 am   BACKBONE|DICT|INTERRES
    61   29  154 1    
    62   30   31 2    
    63   30   32 1    
    64   32   33 1    
    65   32   34 1    
    66   32  155 1    
    67   33  156 1    
    68   33  157 1    
    69   33  158 1    
    70   34   35 am   BACKBONE|DICT|INTERRES
    71   34  159 1    
    72   35   36 2    
    73   35   37 1    
    74   37   38 1    
    75   37   39 1    
    76   37  160 1    
    77   38  161 1    
    78   38  162 1    
    79   38  163 1    
    80   39   40 am   BACKBONE|DICT|INTERRES
    81   39  164 1    
    82   40   41 2    
    83   40   42 1    
    84   42   43 1    
    85   42   44 1    
    86   42  165 1    
    87   43  166 1    
    88   43  167 1    
    89   43  168 1    
    90   44   45 am   BACKBONE|DICT|INTERRES
    91   44  169 1    
    92   45   46 2    
    93   45   47 1    
    94   47   48 1    
    95   47   49 1    
    96   47  170 1    
    97   48  171 1    
    98   48  172 1    
    99   48  173 1    
   100   49   50 am   BACKBONE|DICT|INTERRES
   101   49  174 1    
   102   50   51 2    
   103   50   52 1    
   104   52   53 1    
   105   52   54 1    
   106   52  175 1    
   107   53  176 1    
   108   53  177 1    
   109   53  178 1    
   110   54   55 am   BACKBONE|DICT|INTERRES
   111   54  179 1    
   112   55   56 2    
   113   55   57 1    
   114   57   58 1    
   115   57   59 1    
   116   57  180 1    
   117   58  181 1    
   118   58  182 1    
   119   58  183 1    
   120   59   60 am   BACKBONE|DICT|INTERRES
   121   59  184 1    
   122   60   61 2    
   123   60   62 1    
   124   62   63 1    
   125   62   64 1    
   126   62  185 1    
   127   63  186 1    
   128   63  187 1    
   129   63  188 1    
   130   64   65 am   BACKBONE|DICT|INTERRES
   131   64  189 1    
   132   65   66 2    
   133   67   68 2    
   134   67   69 am   BACKBONE|DICT|INTERRES
   135   69   70 1    
   136   69  190 1    
   137   70   71 1    
   138   70   72 1    
   139   70  191 1    
   140   71  192 1    
   141   71  193 1    
   142   71  194 1    
   143   72   73 2    
   144   72   74 am   BACKBONE|DICT|INTERRES
   145   74   75 1    
   146   74  195 1    
   147   75   76 1    
   148   75   77 1    
   149   75  196 1    
   150   76  197 1    
   151   76  198 1    
   152   76  199 1    
   153   77   78 2    
   154   77   79 am   BACKBONE|DICT|INTERRES
   155   79   80 1    
   156   79  200 1    
   157   80   81 1    
   158   80   82 1    
   159   80  201 1    
   160   81  202 1    
   161   81  203 1    
   162   81  204 1    
   163   82   83 2    
   164   82   84 am   BACKBONE|DICT|INTERRES
   165   84   85 1    
   166   84  205 1    
   167   85   86 1    
   168   85   87 1    
   169   85  206 1    
   170   86  207 1    
   171   86  208 1    
   172   86  209 1    
   173   87   88 2    
   174   87   89 am   BACKBONE|DICT|INTERRES
   175   89   90 1    
   176   89  210 1    
   177   90   91 1    
   178   90   92 1    
   179   90  211 1    
   180   91  212 1    
   181   91  213 1    
   182   91  214 1    
   183   92   93 2    
   184   92   94 am   BACKBONE|DICT|INTERRES
   185   94   95 1    
   186   94  215 1    
   187   95   96 1    
   188   95   97 1    
   189   95  216 1    
   190   96  217 1    
   191   96  218 1    
   192   96  219 1    
   193   97   98 2    
   194   97   99 am   BACKBONE|DICT|INTERRES
   195   99  100 1    
   196   99  220 1    
   197  100  101 1    
   198  100  102 1    
   199  100  221 1    
   200  101  222 1    
   201  101  223 1    
   202  101  224 1    
   203  102  103 2    
   204  102  104 am   BACKBONE|DICT|INTERRES
   205  104  105 1    
   206  104  225 1    
   207  105  106 1    
   208  105  107 1    
   209  105  226 1    
   210  106  227 1    
   211  106  228 1    
   212  106  229 1    
   213  107  108 2    
   214  107  109 am   BACKBONE|DICT|INTERRES
   215  109  110 1    
   216  109  230 1    
   217  110  111 1    
   218  110  112 1    
   219  110  231 1    
   220  111  232 1    
   221  111  233 1    
   222  111  234 1    
   223  112  113 2    
   224  112  114 am   BACKBONE|DICT|INTERRES
   225  114  115 1    
   226  114  235 1    
   227  115  116 1    
   228  115  117 1    
   229  115  236 1    
   230  116  237 1    
   231  116  238 1    
   232  116  239 1    
   233  117  118 2    
   234  117  119 am   BACKBONE|DICT|INTERRES
   235  119  120 1    
   236  119  240 1    
   237  120  121 1    
   238  120  124 1    
   239  120  241 1    
   240  121  122 am   BACKBONE|DICT|INTERRES
   241  121  123 2    
   242  122  242 1    
   243  122  243 1    
   244  124  125 1    
   245  124  244 1    
   246  124  245 1    
   247  125  126 1    
   248  126  246 1    
   249  126  247 1    
@<TRIPOS>SUBSTRUCTURE
     1 UNK         1 GROUP             0       ****    0 ROOT    
