@<TRIPOS>MOLECULE
3R540
247   249    1
SMALL
USER_CHARGES


@<TRIPOS>ATOM
      1 CA         -3.3603  -11.7275  -51.9387 C.3       0 UNK        -0.1800 
      2 C          -3.4724  -12.8678  -50.9376 C.2       0 UNK         0.5000 
      3 O          -3.3516  -14.0310  -51.3179 O.2       0 UNK        -0.5000 
      4 N          -3.7048  -12.5441  -49.6601 N.am      1 UNK        -0.5000 
      5 CA         -3.8230  -13.5044  -48.5588 C.3       1 UNK         0.1400 
      6 C6         -4.6401  -12.9299  -47.3727 C.3       23 UNK        -0.0398 
      7 S7         -6.4209  -12.8696  -47.7773 S.3       23 UNK        -0.2404 
      8 C8         -7.0633  -14.3583  -46.9335 C.3       23 UNK        -0.0205 
      9 C9         -6.2716  -15.6144  -47.2755 C.ar      23 UNK        -0.0193 
     10 C10        -6.3566  -16.1829  -48.5495 C.ar      23 UNK        -0.1150 
     11 C11        -5.5725  -17.2911  -48.8864 C.ar      23 UNK        -0.0193 
     12 C12        -4.7231  -17.8528  -47.9271 C.ar      23 UNK        -0.1150 
     13 C13        -4.6330  -17.2936  -46.6496 C.ar      23 UNK        -0.0193 
     14 C14        -5.4151  -16.1816  -46.3283 C.ar      23 UNK        -0.1150 
     15 C15        -3.6413  -17.8317  -45.6324 C.3       23 UNK        -0.0205 
     16 S16        -4.4177  -18.9022  -44.3869 S.3       23 UNK        -0.2404 
     17 C17        -4.4425  -20.5186  -45.2332 C.3       23 UNK        -0.0398 
     18 CA         -3.0635  -21.2366  -45.2518 C.3       11 UNK         0.1400 
     19 N          -2.3561  -21.2913  -43.9647 N.am      11 UNK        -0.5000 
     20 C          -2.7576  -21.8524  -42.8159 C.2       10 UNK         0.5000 
     21 O          -3.8708  -22.3542  -42.6535 O.2       10 UNK        -0.5000 
     22 CA         -1.7348  -21.9113  -41.6721 C.3       10 UNK         0.1400 
     23 CB         -0.7623  -23.0816  -41.8908 C.3       10 UNK        -0.1800 
     24 N          -0.9667  -20.6720  -41.5388 N.am      10 UNK        -0.5000 
     25 C          -0.8257  -19.9903  -40.3927 C.2       9 UNK         0.5000 
     26 O          -1.3595  -20.3214  -39.3327 O.2       9 UNK        -0.5000 
     27 CA          0.0740  -18.7360  -40.4029 C.3       9 UNK         0.1400 
     28 CB          1.4375  -19.0526  -39.7684 C.3       9 UNK        -0.1800 
     29 N           0.3037  -18.1670  -41.7288 N.am      9 UNK        -0.5000 
     30 C          -0.6288  -17.6046  -42.5073 C.2       8 UNK         0.5000 
     31 O          -1.8037  -17.4569  -42.1734 O.2       8 UNK        -0.5000 
     32 CA         -0.1673  -17.1356  -43.8998 C.3       8 UNK         0.1400 
     33 CB          0.2082  -15.6467  -43.8361 C.3       8 UNK        -0.1800 
     34 N           0.9515  -17.9042  -44.4598 N.am      8 UNK        -0.5000 
     35 C           0.9641  -19.2301  -44.6729 C.2       7 UNK         0.5000 
     36 O           0.0375  -19.9825  -44.3729 O.2       7 UNK        -0.5000 
     37 CA          2.2473  -19.8247  -45.2734 C.3       7 UNK         0.1400 
     38 CB          2.2970  -19.6182  -46.7946 C.3       7 UNK        -0.1800 
     39 N           3.4322  -19.2389  -44.6518 N.am      7 UNK        -0.5000 
     40 C           3.9183  -19.6203  -43.4619 C.2       6 UNK         0.5000 
     41 O           3.4766  -20.5685  -42.8126 O.2       6 UNK        -0.5000 
     42 CA          5.0761  -18.7836  -42.8860 C.3       6 UNK         0.1400 
     43 CB          6.4287  -19.3286  -43.3688 C.3       6 UNK        -0.1800 
     44 N           4.9790  -17.3644  -43.2310 N.am      6 UNK        -0.5000 
     45 C           4.0089  -16.5407  -42.8093 C.2       5 UNK         0.5000 
     46 O           3.1043  -16.8811  -42.0472 O.2       5 UNK        -0.5000 
     47 CA          4.0344  -15.1058  -43.3691 C.3       5 UNK         0.1400 
     48 CB          4.8622  -14.1894  -42.4561 C.3       5 UNK        -0.1800 
     49 N           4.5495  -15.0166  -44.7390 N.am      5 UNK        -0.5000 
     50 C           3.9962  -15.5961  -45.8125 C.2       4 UNK         0.5000 
     51 O           3.0008  -16.3242  -45.7706 O.2       4 UNK        -0.5000 
     52 CA          4.7136  -15.3688  -47.1458 C.3       4 UNK         0.1400 
     53 CB          5.7825  -16.4513  -47.3733 C.3       4 UNK        -0.1800 
     54 N           3.7442  -15.4054  -48.2360 N.am      4 UNK        -0.5000 
     55 C           3.8378  -14.6894  -49.3629 C.2       3 UNK         0.5000 
     56 O           4.7576  -13.9022  -49.5915 O.2       3 UNK        -0.5000 
     57 CA          2.7476  -14.8881  -50.4336 C.3       3 UNK         0.1400 
     58 CB          3.2892  -15.7555  -51.5795 C.3       3 UNK        -0.1800 
     59 N           1.5137  -15.4952  -49.9308 N.am      3 UNK        -0.5000 
     60 C           0.5770  -14.8476  -49.2270 C.2       2 UNK         0.5000 
     61 O           0.6694  -13.6654  -48.8929 O.2       2 UNK        -0.5000 
     62 CA         -0.6528  -15.6903  -48.8467 C.3       2 UNK         0.1400 
     63 CB         -0.4676  -16.3712  -47.4799 C.3       2 UNK        -0.1800 
     64 N          -1.9237  -14.9706  -48.9350 N.am      2 UNK        -0.5000 
     65 C          -2.4334  -14.0228  -48.1371 C.2       1 UNK         0.5000 
     66 O          -1.8827  -13.5647  -47.1346 O.2       1 UNK        -0.5000 
     67 C          -3.1595  -22.6337  -45.8970 C.2       11 UNK         0.5000 
     68 O          -2.5723  -22.8615  -46.9536 O.2       11 UNK        -0.5000 
     69 N          -3.8364  -23.5627  -45.2083 N.am      12 UNK        -0.5000 
     70 CA         -4.0815  -24.9601  -45.5801 C.3       12 UNK         0.1400 
     71 CB         -5.0949  -25.5511  -44.5876 C.3       12 UNK        -0.1800 
     72 C          -2.8222  -25.8478  -45.6741 C.2       12 UNK         0.5000 
     73 O          -2.9308  -27.0042  -46.0831 O.2       12 UNK        -0.5000 
     74 N          -1.6524  -25.3024  -45.3136 N.am      13 UNK        -0.5000 
     75 CA         -0.3412  -25.8931  -45.5806 C.3       13 UNK         0.1400 
     76 CB          0.7285  -25.1089  -44.8051 C.3       13 UNK        -0.1800 
     77 C          -0.0057  -25.9261  -47.0868 C.2       13 UNK         0.5000 
     78 O           0.7305  -26.8129  -47.5215 O.2       13 UNK        -0.5000 
     79 N          -0.5579  -24.9756  -47.8542 N.am      14 UNK        -0.5000 
     80 CA         -0.4955  -24.9494  -49.3122 C.3       14 UNK         0.1400 
     81 CB         -0.6257  -23.4942  -49.7796 C.3       14 UNK        -0.1800 
     82 C          -1.6182  -25.8108  -49.9164 C.2       14 UNK         0.5000 
     83 O          -2.6672  -25.9856  -49.2896 O.2       14 UNK        -0.5000 
     84 N          -1.3937  -26.3062  -51.1410 N.am      15 UNK        -0.5000 
     85 CA         -2.3486  -27.1015  -51.9178 C.3       15 UNK         0.1400 
     86 CB         -1.7011  -27.5134  -53.2487 C.3       15 UNK        -0.1800 
     87 C          -3.6607  -26.3335  -52.1610 C.2       15 UNK         0.5000 
     88 O          -3.6222  -25.2238  -52.6951 O.2       15 UNK        -0.5000 
     89 N          -4.7822  -26.9079  -51.7011 N.am      16 UNK        -0.5000 
     90 CA         -6.1346  -26.3269  -51.6982 C.3       16 UNK         0.1400 
     91 CB         -6.6729  -26.2119  -53.1398 C.3       16 UNK        -0.1800 
     92 C          -6.2398  -24.9907  -50.9227 C.2       16 UNK         0.5000 
     93 O          -7.1438  -24.1979  -51.1887 O.2       16 UNK        -0.5000 
     94 N          -5.2937  -24.7594  -49.9989 N.am      17 UNK        -0.5000 
     95 CA         -5.0469  -23.5301  -49.2409 C.3       17 UNK         0.1400 
     96 CB         -6.2326  -23.1913  -48.3137 C.3       17 UNK        -0.1800 
     97 C          -4.6052  -22.3253  -50.1011 C.2       17 UNK         0.5000 
     98 O          -4.5936  -21.1999  -49.6002 O.2       17 UNK        -0.5000 
     99 N          -4.2348  -22.5621  -51.3683 N.am      18 UNK        -0.5000 
    100 CA        -3.8217  -21.5357  -52.3188 C.3       18 UNK         0.1400 
    101 CB        -4.1516  -22.0024  -53.7467 C.3       18 UNK        -0.1800 
    102 C         -2.3301  -21.2128  -52.1334 C.2       18 UNK         0.5000 
    103 O         -1.4830  -21.7308  -52.8634 O.2       18 UNK        -0.5000 
    104 N         -2.0337  -20.3768  -51.1330 N.am      19 UNK        -0.5000 
    105 CA        -0.7003  -19.9529  -50.6983 C.3       19 UNK         0.1400 
    106 CB        -0.8230  -19.3946  -49.2706 C.3       19 UNK        -0.1800 
    107 C          0.0164  -18.9913  -51.6771 C.2       19 UNK         0.5000 
    108 O          0.4715  -17.9160  -51.2784 O.2       19 UNK        -0.5000 
    109 N          0.1119  -19.4134  -52.9441 N.am      20 UNK        -0.5000 
    110 CA         0.8207  -18.8334  -54.0922 C.3       20 UNK         0.1400 
    111 CB         2.3378  -18.7793  -53.8378 C.3       20 UNK        -0.1800 
    112 C          0.2841  -17.4801  -54.5983 C.2       20 UNK         0.5000 
    113 O          0.0992  -17.3251  -55.8059 O.2       20 UNK        -0.5000 
    114 N          0.0345  -16.5310  -53.6893 N.am      21 UNK        -0.5000 
    115 CA        -0.5327  -15.2138  -53.9984 C.3       21 UNK         0.1400 
    116 CB        -0.2061  -14.2442  -52.8537 C.3       21 UNK        -0.1800 
    117 C         -2.0539  -15.2606  -54.2418 C.2       21 UNK         0.5000 
    118 O         -2.5944  -14.3622  -54.8886 O.2       21 UNK        -0.5000 
    119 N         -2.7033  -16.2992  -53.7050 N.am      22 UNK        -0.5000 
    120 CA        -4.1461  -16.5596  -53.7635 C.3       22 UNK         0.1400 
    121 C         -4.6724  -16.7443  -55.2137 C.2       22 UNK         0.5000 
    122 N         -5.8158  -16.1607  -55.5460 N.am      22 UNK        -0.7600 
    123 O         -4.0793  -17.4538  -56.0232 O.2       22 UNK        -0.5000 
    124 C124       -4.5024  -17.7973  -52.9049 C.3       23 UNK        -0.0398 
    125 S125       -4.0299  -17.5790  -51.1536 S.3       23 UNK        -0.2404 
    126 C126       -5.6137  -17.8527  -50.2987 C.3       23 UNK        -0.0205 
    127 H127       -3.6312  -10.7696  -51.4942 H         1 UNK         0.0600 
    128 H128       -4.0208  -11.9080  -52.7869 H         1 UNK         0.0600 
    129 H129       -2.3391  -11.6551  -52.3116 H         1 UNK         0.0600 
    130 H130       -3.7815  -11.5710  -49.4018 H         1 UNK         0.3000 
    131 H131       -4.3628  -14.3744  -48.9352 H         1 UNK         0.0600 
    132 H132       -4.2977  -11.9258  -47.1181 H         1 UNK         0.0800 
    133 H133       -4.5057  -13.5244  -46.4681 H         1 UNK         0.0800 
    134 H134       -8.1074  -14.5025  -47.2145 H         1 UNK         0.0800 
    135 H135       -7.0596  -14.1835  -45.8564 H         1 UNK         0.0800 
    136 H136       -7.0040  -15.7332  -49.2893 H         1 UNK         0.1150 
    137 H137       -4.1089  -18.7026  -48.1913 H         1 UNK         0.1150 
    138 H138       -5.3327  -15.7404  -45.3448 H         1 UNK         0.1150 
    139 H139       -2.8269  -18.3624  -46.1248 H         1 UNK         0.0800 
    140 H140       -3.1870  -16.9860  -45.1156 H         1 UNK         0.0800 
    141 H141       -4.8106  -20.3762  -46.2508 H         1 UNK         0.0800 
    142 H142       -5.1901  -21.1314  -44.7275 H         1 UNK         0.0800 
    143 H143       -2.4090  -20.6548  -45.9022 H         1 UNK         0.0600 
    144 H144       -1.4192  -20.8949  -44.0084 H         1 UNK         0.3000 
    145 H145       -2.3022  -22.1126  -40.7612 H         1 UNK         0.0600 
    146 H146       -0.1071  -23.2123  -41.0294 H         1 UNK         0.0600 
    147 H147       -1.2993  -24.0201  -42.0362 H         1 UNK         0.0600 
    148 H148       -0.1322  -22.9206  -42.7663 H         1 UNK         0.0600 
    149 H149       -0.5180  -20.3153  -42.3742 H         1 UNK         0.3000 
    150 H150       -0.4198  -17.9761  -39.7941 H         1 UNK         0.0600 
    151 H151        1.3193  -19.4568  -38.7622 H         1 UNK         0.0600 
    152 H152        2.0526  -18.1560  -39.6870 H         1 UNK         0.0600 
    153 H153        1.9916  -19.7862  -40.3557 H         1 UNK         0.0600 
    154 H154        1.2595  -18.1704  -42.0632 H         1 UNK         0.3000 
    155 H155       -1.0009  -17.2545  -44.5898 H         1 UNK         0.0600 
    156 H156        0.8762  -15.4411  -43.0003 H         1 UNK         0.0600 
    157 H157       -0.6817  -15.0323  -43.6948 H         1 UNK         0.0600 
    158 H158        0.7000  -15.3037  -44.7450 H         1 UNK         0.0600 
    159 H159        1.7508  -17.3613  -44.7742 H         1 UNK         0.3000 
    160 H160        2.2399  -20.9005  -45.0843 H         1 UNK         0.0600 
    161 H161        2.2764  -18.5633  -47.0675 H         1 UNK         0.0600 
    162 H162        1.4464  -20.1024  -47.2746 H         1 UNK         0.0600 
    163 H163        3.2000  -20.0551  -47.2210 H         1 UNK         0.0600 
    164 H164        3.8182  -18.4177  -45.0956 H         1 UNK         0.3000 
    165 H165        5.0387  -18.8704  -41.7980 H         1 UNK         0.0600 
    166 H166        7.2578  -18.7920  -42.9072 H         1 UNK         0.0600 
    167 H167        6.5400  -20.3821  -43.1087 H         1 UNK         0.0600 
    168 H168        6.5343  -19.2445  -44.4513 H         1 UNK         0.0600 
    169 H169        5.6844  -16.9961  -43.8514 H         1 UNK         0.3000 
    170 H170        3.0101  -14.7329  -43.3795 H         1 UNK         0.0600 
    171 H171        4.4862  -14.2157  -41.4324 H         1 UNK         0.0600 
    172 H172        5.9109  -14.4879  -42.4285 H         1 UNK         0.0600 
    173 H173        4.8159  -13.1528  -42.7904 H         1 UNK         0.0600 
    174 H174        5.3762  -14.4503  -44.8649 H         1 UNK         0.3000 
    175 H175        5.1931  -14.3881  -47.1091 H         1 UNK         0.0600 
    176 H176        5.3412  -17.4481  -47.4172 H         1 UNK         0.0600 
    177 H177        6.3205  -16.2836  -48.3065 H         1 UNK         0.0600 
    178 H178        6.5205  -16.4521  -46.5703 H         1 UNK         0.0600 
    179 H179        2.9352  -15.9901  -48.0769 H         1 UNK         0.3000 
    180 H180        2.5086  -13.9025  -50.8383 H         1 UNK         0.0600 
    181 H181        3.5308  -16.7625  -51.2373 H         1 UNK         0.0600 
    182 H182        4.1977  -15.3257  -52.0033 H         1 UNK         0.0600 
    183 H183        2.5655  -15.8380  -52.3893 H         1 UNK         0.0600 
    184 H184        1.3387  -16.4552  -50.2127 H         1 UNK         0.3000 
    185 H185       -0.7465  -16.4744  -49.5945 H         1 UNK         0.0600 
    186 H186        0.4491  -16.9602  -47.4524 H         1 UNK         0.0600 
    187 H187       -0.4057  -15.6418  -46.6759 H         1 UNK         0.0600 
    188 H188       -1.2947  -17.0433  -47.2617 H         1 UNK         0.0600 
    189 H189       -2.4585  -15.1641  -49.7759 H         1 UNK         0.3000 
    190 H190       -4.1854  -23.2815  -44.2956 H         1 UNK         0.3000 
    191 H191       -4.5358  -24.9656  -46.5712 H         1 UNK         0.0600 
    192 H192       -6.0246  -24.9816  -44.5880 H         1 UNK         0.0600 
    193 H193       -4.7027  -25.5537  -43.5698 H         1 UNK         0.0600 
    194 H194       -5.3479  -26.5802  -44.8461 H         1 UNK         0.0600 
    195 H195       -1.6620  -24.3494  -44.9846 H         1 UNK         0.3000 
    196 H196       -0.3458  -26.9228  -45.2172 H         1 UNK         0.0600 
    197 H197        1.7231  -25.5165  -44.9910 H         1 UNK         0.0600 
    198 H198        0.5540  -25.1638  -43.7307 H         1 UNK         0.0600 
    199 H199        0.7459  -24.0565  -45.0922 H         1 UNK         0.0600 
    200 H200       -1.2013  -24.3153  -47.4309 H         1 UNK         0.3000 
    201 H201        0.4701  -25.3371  -49.6440 H         1 UNK         0.0600 
    202 H202        0.1487  -22.8696  -49.3344 H         1 UNK         0.0600 
    203 H203       -1.5933  -23.0673  -49.5132 H         1 UNK         0.0600 
    204 H204       -0.5211  -23.4231  -50.8626 H         1 UNK         0.0600 
    205 H205       -0.5239  -26.0855  -51.6033 H         1 UNK         0.3000 
    206 H206       -2.5656  -28.0077  -51.3485 H         1 UNK         0.0600 
    207 H207       -0.8014  -28.1066  -53.0842 H         1 UNK         0.0600 
    208 H208       -2.3853  -28.1197  -53.8437 H         1 UNK         0.0600 
    209 H209       -1.4265  -26.6446  -53.8486 H         1 UNK         0.0600 
    210 H210       -4.7032  -27.8085  -51.2487 H         1 UNK         0.3000 
    211 H211       -6.7699  -27.0343  -51.1636 H         1 UNK         0.0600 
    212 H212       -6.1307  -25.4613  -53.7158 H         1 UNK         0.0600 
    213 H213       -7.7260  -25.9285  -53.1445 H         1 UNK         0.0600 
    214 H214       -6.5930  -27.1621  -53.6678 H         1 UNK         0.0600 
    215 H215       -4.5787  -25.4691  -49.8720 H         1 UNK         0.3000 
    216 H216       -4.1921  -23.7656  -48.6125 H         1 UNK         0.0600 
    217 H217       -5.9663  -22.3978  -47.6149 H         1 UNK         0.0600 
    218 H218       -6.5341  -24.0551  -47.7217 H         1 UNK         0.0600 
    219 H219       -7.1015  -22.8499  -48.8765 H         1 UNK         0.0600 
    220 H220       -4.2021  -23.5184  -51.7061 H         1 UNK         0.3000 
    221 H221       -4.3991  -20.6297  -52.1292 H         1 UNK         0.0600 
    222 H222       -3.6086  -22.9089  -54.0155 H         1 UNK         0.0600 
    223 H223       -5.2166  -22.2073  -53.8573 H         1 UNK         0.0600 
    224 H224       -3.8892  -21.2353  -54.4763 H         1 UNK         0.0600 
    225 H225       -2.8060  -20.0290  -50.5783 H         1 UNK         0.3000 
    226 H226       -0.0648  -20.8374  -50.6451 H         1 UNK         0.0600 
    227 H227       -1.1236  -20.1755  -48.5712 H         1 UNK         0.0600 
    228 H228        0.1252  -18.9913  -48.9160 H         1 UNK         0.0600 
    229 H229       -1.5685  -18.6017  -49.2168 H         1 UNK         0.0600 
    230 H230       -0.3458  -20.3020  -53.1379 H         1 UNK         0.3000 
    231 H231        0.6623  -19.5409  -54.9078 H         1 UNK         0.0600 
    232 H232        2.7400  -19.7766  -53.6598 H         1 UNK         0.0600 
    233 H233        2.5846  -18.1648  -52.9744 H         1 UNK         0.0600 
    234 H234        2.8660  -18.3647  -54.6973 H         1 UNK         0.0600 
    235 H235        0.2097  -16.7575  -52.7141 H         1 UNK         0.3000 
    236 H236       -0.0640  -14.8333  -54.9084 H         1 UNK         0.0600 
    237 H237       -0.6027  -13.2499  -53.0603 H         1 UNK         0.0600 
    238 H238       -0.6400  -14.5794  -51.9119 H         1 UNK         0.0600 
    239 H239        0.8690  -14.1390  -52.7175 H         1 UNK         0.0600 
    240 H240       -2.1598  -16.9716  -53.1880 H         1 UNK         0.3000 
    241 H241       -4.6418  -15.6886  -53.3298 H         1 UNK         0.0600 
    242 H242       -6.1764  -16.2871  -56.4792 H         1 UNK         0.3800 
    243 H243       -6.3225  -15.5789  -54.8965 H         1 UNK         0.3800 
    244 H244       -5.5698  -18.0148  -52.9701 H         1 UNK         0.0800 
    245 H245       -3.9885  -18.6762  -53.2949 H         1 UNK         0.0800 
    246 H246       -6.4199  -17.3842  -50.8650 H         1 UNK         0.0800 
    247 H247       -5.8337  -18.9202  -50.2654 H         1 UNK         0.0800 
@<TRIPOS>BOND
     1    1    2 1    
     2    1  127 1    
     3    1  128 1    
     4    1  129 1    
     5    2    3 2    
     6    2    4 am   BACKBONE|DICT|INTERRES
     7    4    5 1    
     8    4  130 1    
     9    5    6 1    
    10    5   65 1    
    11    5  131 1    
    12    6    7 1    
    13    6  132 1    
    14    6  133 1    
    15    7    8 1    
    16    8    9 1    
    17    8  134 1    
    18    8  135 1    
    19    9   10 ar   
    20    9   14 ar   
    21   10   11 ar   
    22   10  136 1    
    23   11   12 ar   
    24   11  126 1    
    25   12   13 ar   
    26   12  137 1    
    27   13   14 ar   
    28   13   15 1    
    29   14  138 1    
    30   15   16 1    
    31   15  139 1    
    32   15  140 1    
    33   16   17 1    
    34   17   18 1    
    35   17  141 1    
    36   17  142 1    
    37   18   19 1    
    38   18   67 1    
    39   18  143 1    
    40   19   20 am   BACKBONE|DICT|INTERRES
    41   19  144 1    
    42   20   21 2    
    43   20   22 1    
    44   22   23 1    
    45   22   24 1    
    46   22  145 1    
    47   23  146 1    
    48   23  147 1    
    49   23  148 1    
    50   24   25 am   BACKBONE|DICT|INTERRES
    51   24  149 1    
    52   25   26 2    
    53   25   27 1    
    54   27   28 1    
    55   27   29 1    
    56   27  150 1    
    57   28  151 1    
    58   28  152 1    
    59   28  153 1    
    60   29   30 am   BACKBONE|DICT|INTERRES
    61   29  154 1    
    62   30   31 2    
    63   30   32 1    
    64   32   33 1    
    65   32   34 1    
    66   32  155 1    
    67   33  156 1    
    68   33  157 1    
    69   33  158 1    
    70   34   35 am   BACKBONE|DICT|INTERRES
    71   34  159 1    
    72   35   36 2    
    73   35   37 1    
    74   37   38 1    
    75   37   39 1    
    76   37  160 1    
    77   38  161 1    
    78   38  162 1    
    79   38  163 1    
    80   39   40 am   BACKBONE|DICT|INTERRES
    81   39  164 1    
    82   40   41 2    
    83   40   42 1    
    84   42   43 1    
    85   42   44 1    
    86   42  165 1    
    87   43  166 1    
    88   43  167 1    
    89   43  168 1    
    90   44   45 am   BACKBONE|DICT|INTERRES
    91   44  169 1    
    92   45   46 2    
    93   45   47 1    
    94   47   48 1    
    95   47   49 1    
    96   47  170 1    
    97   48  171 1    
    98   48  172 1    
    99   48  173 1    
   100   49   50 am   BACKBONE|DICT|INTERRES
   101   49  174 1    
   102   50   51 2    
   103   50   52 1    
   104   52   53 1    
   105   52   54 1    
   106   52  175 1    
   107   53  176 1    
   108   53  177 1    
   109   53  178 1    
   110   54   55 am   BACKBONE|DICT|INTERRES
   111   54  179 1    
   112   55   56 2    
   113   55   57 1    
   114   57   58 1    
   115   57   59 1    
   116   57  180 1    
   117   58  181 1    
   118   58  182 1    
   119   58  183 1    
   120   59   60 am   BACKBONE|DICT|INTERRES
   121   59  184 1    
   122   60   61 2    
   123   60   62 1    
   124   62   63 1    
   125   62   64 1    
   126   62  185 1    
   127   63  186 1    
   128   63  187 1    
   129   63  188 1    
   130   64   65 am   BACKBONE|DICT|INTERRES
   131   64  189 1    
   132   65   66 2    
   133   67   68 2    
   134   67   69 am   BACKBONE|DICT|INTERRES
   135   69   70 1    
   136   69  190 1    
   137   70   71 1    
   138   70   72 1    
   139   70  191 1    
   140   71  192 1    
   141   71  193 1    
   142   71  194 1    
   143   72   73 2    
   144   72   74 am   BACKBONE|DICT|INTERRES
   145   74   75 1    
   146   74  195 1    
   147   75   76 1    
   148   75   77 1    
   149   75  196 1    
   150   76  197 1    
   151   76  198 1    
   152   76  199 1    
   153   77   78 2    
   154   77   79 am   BACKBONE|DICT|INTERRES
   155   79   80 1    
   156   79  200 1    
   157   80   81 1    
   158   80   82 1    
   159   80  201 1    
   160   81  202 1    
   161   81  203 1    
   162   81  204 1    
   163   82   83 2    
   164   82   84 am   BACKBONE|DICT|INTERRES
   165   84   85 1    
   166   84  205 1    
   167   85   86 1    
   168   85   87 1    
   169   85  206 1    
   170   86  207 1    
   171   86  208 1    
   172   86  209 1    
   173   87   88 2    
   174   87   89 am   BACKBONE|DICT|INTERRES
   175   89   90 1    
   176   89  210 1    
   177   90   91 1    
   178   90   92 1    
   179   90  211 1    
   180   91  212 1    
   181   91  213 1    
   182   91  214 1    
   183   92   93 2    
   184   92   94 am   BACKBONE|DICT|INTERRES
   185   94   95 1    
   186   94  215 1    
   187   95   96 1    
   188   95   97 1    
   189   95  216 1    
   190   96  217 1    
   191   96  218 1    
   192   96  219 1    
   193   97   98 2    
   194   97   99 am   BACKBONE|DICT|INTERRES
   195   99  100 1    
   196   99  220 1    
   197  100  101 1    
   198  100  102 1    
   199  100  221 1    
   200  101  222 1    
   201  101  223 1    
   202  101  224 1    
   203  102  103 2    
   204  102  104 am   BACKBONE|DICT|INTERRES
   205  104  105 1    
   206  104  225 1    
   207  105  106 1    
   208  105  107 1    
   209  105  226 1    
   210  106  227 1    
   211  106  228 1    
   212  106  229 1    
   213  107  108 2    
   214  107  109 am   BACKBONE|DICT|INTERRES
   215  109  110 1    
   216  109  230 1    
   217  110  111 1    
   218  110  112 1    
   219  110  231 1    
   220  111  232 1    
   221  111  233 1    
   222  111  234 1    
   223  112  113 2    
   224  112  114 am   BACKBONE|DICT|INTERRES
   225  114  115 1    
   226  114  235 1    
   227  115  116 1    
   228  115  117 1    
   229  115  236 1    
   230  116  237 1    
   231  116  238 1    
   232  116  239 1    
   233  117  118 2    
   234  117  119 am   BACKBONE|DICT|INTERRES
   235  119  120 1    
   236  119  240 1    
   237  120  121 1    
   238  120  124 1    
   239  120  241 1    
   240  121  122 am   BACKBONE|DICT|INTERRES
   241  121  123 2    
   242  122  242 1    
   243  122  243 1    
   244  124  125 1    
   245  124  244 1    
   246  124  245 1    
   247  125  126 1    
   248  126  246 1    
   249  126  247 1    
@<TRIPOS>SUBSTRUCTURE
     1 UNK         1 GROUP             0       ****    0 ROOT    
