@<TRIPOS>MOLECULE
3R540
247   249    1
SMALL
USER_CHARGES


@<TRIPOS>ATOM
      1 CA         -0.0398   -9.7724  -47.3356 C.3       0 UNK        -0.1800 
      2 C           0.2282  -11.1482  -46.7442 C.2       0 UNK         0.5000 
      3 O           1.1732  -11.3081  -45.9711 O.2       0 UNK        -0.5000 
      4 N          -0.5910  -12.1436  -47.1108 N.am      1 UNK        -0.5000 
      5 CA         -0.4750  -13.5334  -46.6536 C.3       1 UNK         0.1400 
      6 C6         -1.3952  -14.5028  -47.4384 C.3       23 UNK        -0.0398 
      7 S7         -1.0463  -14.4883  -49.2299 S.3       23 UNK        -0.2404 
      8 C8         -0.9873  -16.2650  -49.6371 C.3       23 UNK        -0.0205 
      9 C9         -2.3434  -16.9463  -49.5141 C.ar      23 UNK        -0.0193 
     10 C10        -3.4270  -16.5052  -50.2790 C.ar      23 UNK        -0.1150 
     11 C11        -4.6748  -17.1292  -50.1893 C.ar      23 UNK        -0.0193 
     12 C12        -4.8287  -18.2076  -49.3098 C.ar      23 UNK        -0.1150 
     13 C13        -3.7463  -18.6821  -48.5671 C.ar      23 UNK        -0.0193 
     14 C14        -2.5074  -18.0431  -48.6642 C.ar      23 UNK        -0.1150 
     15 C15        -3.9099  -19.9136  -47.6969 C.3       23 UNK        -0.0205 
     16 S16        -4.5313  -19.4937  -46.0391 S.3       23 UNK        -0.2404 
     17 C17        -4.7495  -21.1028  -45.1808 C.3       23 UNK        -0.0398 
     18 CA         -3.9582  -22.3143  -45.7356 C.3       11 UNK         0.1400 
     19 N          -2.5054  -22.0948  -45.7415 N.am      11 UNK        -0.5000 
     20 C          -1.6283  -22.8577  -46.4132 C.2       10 UNK         0.5000 
     21 O          -1.9654  -23.8559  -47.0508 O.2       10 UNK        -0.5000 
     22 CA         -0.1430  -22.4526  -46.3996 C.3       10 UNK         0.1400 
     23 CB          0.2138  -21.7745  -47.7309 C.3       10 UNK        -0.1800 
     24 N           0.2131  -21.5570  -45.3003 N.am      10 UNK        -0.5000 
     25 C           0.2318  -21.8968  -44.0014 C.2       9 UNK         0.5000 
     26 O           0.0078  -23.0375  -43.5959 O.2       9 UNK        -0.5000 
     27 CA          0.4883  -20.7648  -42.9800 C.3       9 UNK         0.1400 
     28 CB          1.9708  -20.7265  -42.5820 C.3       9 UNK        -0.1800 
     29 N           0.0929  -19.4391  -43.4654 N.am      9 UNK        -0.5000 
     30 C          -1.1421  -19.1114  -43.8753 C.2       8 UNK         0.5000 
     31 O          -2.1089  -19.8588  -43.7374 O.2       8 UNK        -0.5000 
     32 CA         -1.3228  -17.7761  -44.6292 C.3       8 UNK         0.1400 
     33 CB         -2.0765  -16.7618  -43.7574 C.3       8 UNK        -0.1800 
     34 N          -0.0698  -17.1818  -45.1109 N.am      8 UNK        -0.5000 
     35 C           0.7767  -17.7554  -45.9816 C.2       7 UNK         0.5000 
     36 O           0.5337  -18.8185  -46.5494 O.2       7 UNK        -0.5000 
     37 CA          2.1437  -17.0808  -46.2148 C.3       7 UNK         0.1400 
     38 CB          2.2507  -16.4984  -47.6312 C.3       7 UNK        -0.1800 
     39 N           2.4625  -16.0360  -45.2424 N.am      7 UNK        -0.5000 
     40 C           2.7286  -16.2314  -43.9435 C.2       6 UNK         0.5000 
     41 O           2.7146  -17.3435  -43.4125 O.2       6 UNK        -0.5000 
     42 CA          3.0049  -14.9694  -43.0960 C.3       6 UNK         0.1400 
     43 CB          4.0344  -15.2217  -41.9759 C.3       6 UNK        -0.1800 
     44 N           3.3651  -13.7836  -43.8886 N.am      6 UNK        -0.5000 
     45 C           4.4609  -13.6025  -44.6428 C.2       5 UNK         0.5000 
     46 O           5.3443  -14.4461  -44.7954 O.2       5 UNK        -0.5000 
     47 CA          4.5823  -12.2443  -45.3601 C.3       5 UNK         0.1400 
     48 CB          4.0826  -12.3601  -46.8092 C.3       5 UNK        -0.1800 
     49 N           3.8761  -11.1583  -44.6636 N.am      5 UNK        -0.5000 
     50 C           4.3331  -10.6049  -43.5280 C.2       4 UNK         0.5000 
     51 O           5.3583  -10.9874  -42.9629 O.2       4 UNK        -0.5000 
     52 CA          3.5496   -9.4358  -42.8976 C.3       4 UNK         0.1400 
     53 CB          4.3742   -8.1414  -42.9900 C.3       4 UNK        -0.1800 
     54 N           2.2381   -9.1780  -43.4966 N.am      4 UNK        -0.5000 
     55 C           1.0571   -9.7385  -43.1986 C.2       3 UNK         0.5000 
     56 O           0.0249   -9.3144  -43.7177 O.2       3 UNK        -0.5000 
     57 CA          0.9864  -10.9178  -42.1960 C.3       3 UNK         0.1400 
     58 CB          0.8017  -10.4294  -40.7439 C.3       3 UNK        -0.1800 
     59 N          -0.0382  -11.8998  -42.5775 N.am      3 UNK        -0.5000 
     60 C          -1.3748  -11.8042  -42.5128 C.2       2 UNK         0.5000 
     61 O          -1.9889  -10.8902  -41.9597 O.2       2 UNK        -0.5000 
     62 CA         -2.1473  -12.9312  -43.2286 C.3       2 UNK         0.1400 
     63 CB         -3.6753  -12.7781  -43.1234 C.3       2 UNK        -0.1800 
     64 N          -1.7781  -12.9926  -44.6443 N.am      2 UNK        -0.5000 
     65 C          -0.7234  -13.6524  -45.1385 C.2       1 UNK         0.5000 
     66 O           0.0587  -14.3004  -44.4416 O.2       1 UNK        -0.5000 
     67 C          -4.3419  -23.6178  -45.0039 C.2       11 UNK         0.5000 
     68 O          -5.3309  -24.2498  -45.3753 O.2       11 UNK        -0.5000 
     69 N          -3.5094  -24.0425  -44.0417 N.am      12 UNK        -0.5000 
     70 CA         -3.5990  -25.3380  -43.3630 C.3       12 UNK         0.1400 
     71 CB         -2.6552  -25.3243  -42.1509 C.3       12 UNK        -0.1800 
     72 C          -3.2771  -26.5359  -44.2835 C.2       12 UNK         0.5000 
     73 O          -3.6696  -27.6599  -43.9703 O.2       12 UNK        -0.5000 
     74 N          -2.5883  -26.2738  -45.4021 N.am      13 UNK        -0.5000 
     75 CA         -2.2243  -27.2363  -46.4398 C.3       13 UNK         0.1400 
     76 CB         -0.7095  -27.1273  -46.6939 C.3       13 UNK        -0.1800 
     77 C          -3.0421  -27.0027  -47.7271 C.2       13 UNK         0.5000 
     78 O          -2.5731  -27.3464  -48.8125 O.2       13 UNK        -0.5000 
     79 N          -4.2376  -26.4039  -47.5967 N.am      14 UNK        -0.5000 
     80 CA         -5.1843  -26.0789  -48.6712 C.3       14 UNK         0.1400 
     81 CB         -5.7667  -27.3657  -49.2930 C.3       14 UNK        -0.1800 
     82 C          -4.5753  -25.1265  -49.7201 C.2       14 UNK         0.5000 
     83 O          -4.5931  -25.4188  -50.9174 O.2       14 UNK        -0.5000 
     84 N          -3.9983  -24.0200  -49.2286 N.am      15 UNK        -0.5000 
     85 CA         -3.2661  -22.9992  -49.9887 C.3       15 UNK         0.1400 
     86 CB         -4.2097  -22.2678  -50.9704 C.3       15 UNK        -0.1800 
     87 C          -1.9975  -23.5796  -50.6484 C.2       15 UNK         0.5000 
     88 O          -1.6805  -23.2408  -51.7893 O.2       15 UNK        -0.5000 
     89 N          -1.3216  -24.4756  -49.9104 N.am      16 UNK        -0.5000 
     90 CA         -0.1898  -25.3113  -50.3282 C.3       16 UNK         0.1400 
     91 CB          1.0847  -24.4595  -50.5051 C.3       16 UNK        -0.1800 
     92 C          -0.5334  -26.1691  -51.5636 C.2       16 UNK         0.5000 
     93 O           0.2017  -26.1597  -52.5501 O.2       16 UNK        -0.5000 
     94 N          -1.6836  -26.8549  -51.4947 N.am      17 UNK        -0.5000 
     95 CA         -2.3398  -27.5973  -52.5768 C.3       17 UNK         0.1400 
     96 CB         -1.5364  -28.8645  -52.9354 C.3       17 UNK        -0.1800 
     97 C          -2.6450  -26.6998  -53.7973 C.2       17 UNK         0.5000 
     98 O          -2.3692  -27.0793  -54.9371 O.2       17 UNK        -0.5000 
     99 N          -3.1932  -25.5095  -53.5131 N.am      18 UNK        -0.5000 
    100 CA        -3.5271  -24.4279  -54.4459 C.3       18 UNK         0.1400 
    101 CB        -4.6920  -24.8478  -55.3664 C.3       18 UNK        -0.1800 
    102 C         -2.3175  -23.8564  -55.2221 C.2       18 UNK         0.5000 
    103 O         -2.4839  -23.3865  -56.3494 O.2       18 UNK        -0.5000 
    104 N         -1.1254  -23.8883  -54.6101 N.am      19 UNK        -0.5000 
    105 CA         0.0869  -23.2579  -55.1362 C.3       19 UNK         0.1400 
    106 CB         1.3287  -23.9851  -54.6030 C.3       19 UNK        -0.1800 
    107 C          0.1524  -21.7583  -54.7946 C.2       19 UNK         0.5000 
    108 O          0.7356  -20.9930  -55.5648 O.2       19 UNK        -0.5000 
    109 N         -0.4497  -21.3568  -53.6648 N.am      20 UNK        -0.5000 
    110 CA        -0.6603  -19.9550  -53.2983 C.3       20 UNK         0.1400 
    111 CB        -0.8976  -19.8579  -51.7812 C.3       20 UNK        -0.1800 
    112 C         -1.8251  -19.3412  -54.1044 C.2       20 UNK         0.5000 
    113 O         -2.5274  -20.0571  -54.8225 O.2       20 UNK        -0.5000 
    114 N         -2.0182  -18.0213  -53.9705 N.am      21 UNK        -0.5000 
    115 CA        -2.9532  -17.2043  -54.7596 C.3       21 UNK         0.1400 
    116 CB        -2.8392  -15.7410  -54.3054 C.3       21 UNK        -0.1800 
    117 C         -4.4297  -17.6575  -54.7434 C.2       21 UNK         0.5000 
    118 O         -5.1553  -17.3773  -55.6985 O.2       21 UNK        -0.5000 
    119 N         -4.8403  -18.3558  -53.6789 N.am      22 UNK        -0.5000 
    120 CA        -6.1539  -19.0074  -53.5564 C.3       22 UNK         0.1400 
    121 C         -6.2799  -20.3456  -54.3484 C.2       22 UNK         0.5000 
    122 N         -5.2201  -20.9035  -54.9207 N.am      22 UNK        -0.7600 
    123 O         -7.3771  -20.8851  -54.4618 O.2       22 UNK        -0.5000 
    124 C124       -6.5403  -19.1978  -52.0670 C.3       23 UNK        -0.0398 
    125 S125       -7.2519  -17.6992  -51.2979 S.3       23 UNK        -0.2404 
    126 C126       -5.8198  -16.5888  -51.0467 C.3       23 UNK        -0.0205 
    127 H127        0.8382   -9.4210  -47.8774 H         1 UNK         0.0600 
    128 H128       -0.2583   -9.0603  -46.5399 H         1 UNK         0.0600 
    129 H129       -0.8843   -9.7842  -48.0249 H         1 UNK         0.0600 
    130 H130       -1.3307  -11.9592  -47.7734 H         1 UNK         0.3000 
    131 H131        0.5583  -13.8382  -46.8256 H         1 UNK         0.0600 
    132 H132       -2.4460  -14.2446  -47.2960 H         1 UNK         0.0800 
    133 H133       -1.2817  -15.5217  -47.0654 H         1 UNK         0.0800 
    134 H134       -0.2500  -16.7604  -49.0063 H         1 UNK         0.0800 
    135 H135       -0.6335  -16.3739  -50.6628 H         1 UNK         0.0800 
    136 H136       -3.2968  -15.6602  -50.9397 H         1 UNK         0.1150 
    137 H137       -5.7848  -18.6992  -49.2066 H         1 UNK         0.1150 
    138 H138       -1.6692  -18.4096  -48.0881 H         1 UNK         0.1150 
    139 H139       -4.5976  -20.6104  -48.1776 H         1 UNK         0.0800 
    140 H140       -2.9460  -20.4127  -47.6264 H         1 UNK         0.0800 
    141 H141       -5.8185  -21.3224  -45.2053 H         1 UNK         0.0800 
    142 H142       -4.5077  -20.9494  -44.1279 H         1 UNK         0.0800 
    143 H143       -4.2705  -22.4624  -46.7697 H         1 UNK         0.0600 
    144 H144       -2.1753  -21.2994  -45.2050 H         1 UNK         0.3000 
    145 H145        0.4480  -23.3657  -46.3049 H         1 UNK         0.0600 
    146 H146       -0.3749  -20.8714  -47.8947 H         1 UNK         0.0600 
    147 H147        1.2681  -21.4999  -47.7676 H         1 UNK         0.0600 
    148 H148        0.0212  -22.4351  -48.5738 H         1 UNK         0.0600 
    149 H149        0.3953  -20.5925  -45.5590 H         1 UNK         0.3000 
    150 H150       -0.1042  -20.9846  -42.0897 H         1 UNK         0.0600 
    151 H151        2.2973  -21.6915  -42.1921 H         1 UNK         0.0600 
    152 H152        2.1515  -19.9837  -41.8046 H         1 UNK         0.0600 
    153 H153        2.6083  -20.4811  -43.4325 H         1 UNK         0.0600 
    154 H154        0.8378  -18.7656  -43.5910 H         1 UNK         0.3000 
    155 H155       -1.9389  -17.9917  -45.5038 H         1 UNK         0.0600 
    156 H156       -2.9737  -17.2050  -43.3230 H         1 UNK         0.0600 
    157 H157       -2.4030  -15.9065  -44.3469 H         1 UNK         0.0600 
    158 H158       -1.4575  -16.3973  -42.9369 H         1 UNK         0.0600 
    159 H159        0.1954  -16.2946  -44.6965 H         1 UNK         0.3000 
    160 H160        2.8991  -17.8634  -46.1183 H         1 UNK         0.0600 
    161 H161        3.2476  -16.0980  -47.8167 H         1 UNK         0.0600 
    162 H162        1.5340  -15.6960  -47.7965 H         1 UNK         0.0600 
    163 H163        2.0683  -17.2665  -48.3839 H         1 UNK         0.0600 
    164 H164        2.4683  -15.0857  -45.5793 H         1 UNK         0.3000 
    165 H165        2.0575  -14.7282  -42.6123 H         1 UNK         0.0600 
    166 H166        4.9947  -15.5512  -42.3732 H         1 UNK         0.0600 
    167 H167        4.2056  -14.3201  -41.3877 H         1 UNK         0.0600 
    168 H168        3.6848  -15.9938  -41.2896 H         1 UNK         0.0600 
    169 H169        2.6915  -13.0328  -43.8838 H         1 UNK         0.3000 
    170 H170        5.6431  -11.9866  -45.3988 H         1 UNK         0.0600 
    171 H171        3.0739  -12.7687  -46.8626 H         1 UNK         0.0600 
    172 H172        4.0832  -11.3922  -47.3105 H         1 UNK         0.0600 
    173 H173        4.7266  -13.0253  -47.3856 H         1 UNK         0.0600 
    174 H174        3.0059  -10.8377  -45.0770 H         1 UNK         0.3000 
    175 H175        3.4293   -9.6648  -41.8388 H         1 UNK         0.0600 
    176 H176        4.5468   -7.8469  -44.0261 H         1 UNK         0.0600 
    177 H177        3.8708   -7.3160  -42.4859 H         1 UNK         0.0600 
    178 H178        5.3496   -8.2594  -42.5160 H         1 UNK         0.0600 
    179 H179        2.2318   -8.4414  -44.1862 H         1 UNK         0.3000 
    180 H180        1.9208  -11.4746  -42.2408 H         1 UNK         0.0600 
    181 H181       -0.0673   -9.7798  -40.6383 H         1 UNK         0.0600 
    182 H182        1.6642   -9.8574  -40.4039 H         1 UNK         0.0600 
    183 H183        0.6801  -11.2675  -40.0577 H         1 UNK         0.0600 
    184 H184        0.3051  -12.6964  -43.1002 H         1 UNK         0.3000 
    185 H185       -1.8767  -13.8688  -42.7388 H         1 UNK         0.0600 
    186 H186       -4.1872  -13.6127  -43.6029 H         1 UNK         0.0600 
    187 H187       -3.9958  -12.7583  -42.0811 H         1 UNK         0.0600 
    188 H188       -4.0222  -11.8569  -43.5932 H         1 UNK         0.0600 
    189 H189       -2.3273  -12.4240  -45.2723 H         1 UNK         0.3000 
    190 H190       -2.7045  -23.4735  -43.8175 H         1 UNK         0.3000 
    191 H191       -4.6218  -25.4654  -43.0024 H         1 UNK         0.0600 
    192 H192       -1.6161  -25.1851  -42.4527 H         1 UNK         0.0600 
    193 H193       -2.9135  -24.5230  -41.4583 H         1 UNK         0.0600 
    194 H194       -2.7141  -26.2625  -41.5976 H         1 UNK         0.0600 
    195 H195       -2.3409  -25.3132  -45.6063 H         1 UNK         0.3000 
    196 H196       -2.4399  -28.2542  -46.1101 H         1 UNK         0.0600 
    197 H197       -0.1453  -27.3109  -45.7795 H         1 UNK         0.0600 
    198 H198       -0.4327  -26.1392  -47.0624 H         1 UNK         0.0600 
    199 H199       -0.3767  -27.8606  -47.4295 H         1 UNK         0.0600 
    200 H200       -4.5255  -26.1291  -46.6669 H         1 UNK         0.3000 
    201 H201       -6.0081  -25.5364  -48.2050 H         1 UNK         0.0600 
    202 H202       -6.5466  -27.1291  -50.0178 H         1 UNK         0.0600 
    203 H203       -6.2149  -28.0033  -48.5311 H         1 UNK         0.0600 
    204 H204       -5.0060  -27.9489  -49.8130 H         1 UNK         0.0600 
    205 H205       -3.9373  -23.9384  -48.2236 H         1 UNK         0.3000 
    206 H206       -2.9103  -22.2638  -49.2676 H         1 UNK         0.0600 
    207 H207       -5.0457  -21.8135  -50.4392 H         1 UNK         0.0600 
    208 H208       -4.6249  -22.9398  -51.7197 H         1 UNK         0.0600 
    209 H209       -3.7011  -21.4705  -51.5080 H         1 UNK         0.0600 
    210 H210       -1.6664  -24.6477  -48.9731 H         1 UNK         0.3000 
    211 H211       -0.0023  -26.0169  -49.5182 H         1 UNK         0.0600 
    212 H212        1.3963  -24.0205  -49.5584 H         1 UNK         0.0600 
    213 H213        1.9189  -25.0653  -50.8607 H         1 UNK         0.0600 
    214 H214        0.9386  -23.6486  -51.2182 H         1 UNK         0.0600 
    215 H215       -2.1865  -26.8408  -50.6104 H         1 UNK         0.3000 
    216 H216       -3.3056  -27.9183  -52.1835 H         1 UNK         0.0600 
    217 H217       -2.0783  -29.4787  -53.6553 H         1 UNK         0.0600 
    218 H218       -0.5691  -28.6214  -53.3760 H         1 UNK         0.0600 
    219 H219       -1.3583  -29.4796  -52.0534 H         1 UNK         0.0600 
    220 H220       -3.4234  -25.3268  -52.5406 H         1 UNK         0.3000 
    221 H221       -3.8850  -23.6040  -53.8287 H         1 UNK         0.0600 
    222 H222       -4.3971  -25.6387  -56.0564 H         1 UNK         0.0600 
    223 H223       -5.5414  -25.2076  -54.7857 H         1 UNK         0.0600 
    224 H224       -5.0445  -24.0076  -55.9650 H         1 UNK         0.0600 
    225 H225       -1.0762  -24.2608  -53.6694 H         1 UNK         0.3000 
    226 H226        0.0923  -23.3510  -56.2243 H         1 UNK         0.0600 
    227 H227        1.3076  -25.0436  -54.8629 H         1 UNK         0.0600 
    228 H228        2.2402  -23.5635  -55.0281 H         1 UNK         0.0600 
    229 H229        1.4068  -23.9060  -53.5192 H         1 UNK         0.0600 
    230 H230       -0.9255  -22.0499  -53.0935 H         1 UNK         0.3000 
    231 H231        0.2444  -19.3921  -53.5367 H         1 UNK         0.0600 
    232 H232       -0.9549  -18.8197  -51.4551 H         1 UNK         0.0600 
    233 H233       -0.0847  -20.3247  -51.2244 H         1 UNK         0.0600 
    234 H234       -1.8232  -20.3426  -51.4816 H         1 UNK         0.0600 
    235 H235       -1.4104  -17.5092  -53.3483 H         1 UNK         0.3000 
    236 H236       -2.6210  -17.2605  -55.7981 H         1 UNK         0.0600 
    237 H237       -1.8212  -15.3682  -54.4196 H         1 UNK         0.0600 
    238 H238       -3.4876  -15.0949  -54.8987 H         1 UNK         0.0600 
    239 H239       -3.1266  -15.6217  -53.2614 H         1 UNK         0.0600 
    240 H240       -4.1722  -18.5470  -52.9482 H         1 UNK         0.3000 
    241 H241       -6.8970  -18.3477  -54.0087 H         1 UNK         0.0600 
    242 H242       -4.2935  -20.4845  -54.8613 H         1 UNK         0.3800 
    243 H243       -5.3441  -21.7488  -55.4514 H         1 UNK         0.3800 
    244 H244       -7.3074  -19.9667  -51.9578 H         1 UNK         0.0800 
    245 H245       -5.6895  -19.5614  -51.4923 H         1 UNK         0.0800 
    246 H246       -6.1855  -15.6755  -50.5761 H         1 UNK         0.0800 
    247 H247       -5.4402  -16.2885  -52.0236 H         1 UNK         0.0800 
@<TRIPOS>BOND
     1    1    2 1    
     2    1  127 1    
     3    1  128 1    
     4    1  129 1    
     5    2    3 2    
     6    2    4 am   BACKBONE|DICT|INTERRES
     7    4    5 1    
     8    4  130 1    
     9    5    6 1    
    10    5   65 1    
    11    5  131 1    
    12    6    7 1    
    13    6  132 1    
    14    6  133 1    
    15    7    8 1    
    16    8    9 1    
    17    8  134 1    
    18    8  135 1    
    19    9   10 ar   
    20    9   14 ar   
    21   10   11 ar   
    22   10  136 1    
    23   11   12 ar   
    24   11  126 1    
    25   12   13 ar   
    26   12  137 1    
    27   13   14 ar   
    28   13   15 1    
    29   14  138 1    
    30   15   16 1    
    31   15  139 1    
    32   15  140 1    
    33   16   17 1    
    34   17   18 1    
    35   17  141 1    
    36   17  142 1    
    37   18   19 1    
    38   18   67 1    
    39   18  143 1    
    40   19   20 am   BACKBONE|DICT|INTERRES
    41   19  144 1    
    42   20   21 2    
    43   20   22 1    
    44   22   23 1    
    45   22   24 1    
    46   22  145 1    
    47   23  146 1    
    48   23  147 1    
    49   23  148 1    
    50   24   25 am   BACKBONE|DICT|INTERRES
    51   24  149 1    
    52   25   26 2    
    53   25   27 1    
    54   27   28 1    
    55   27   29 1    
    56   27  150 1    
    57   28  151 1    
    58   28  152 1    
    59   28  153 1    
    60   29   30 am   BACKBONE|DICT|INTERRES
    61   29  154 1    
    62   30   31 2    
    63   30   32 1    
    64   32   33 1    
    65   32   34 1    
    66   32  155 1    
    67   33  156 1    
    68   33  157 1    
    69   33  158 1    
    70   34   35 am   BACKBONE|DICT|INTERRES
    71   34  159 1    
    72   35   36 2    
    73   35   37 1    
    74   37   38 1    
    75   37   39 1    
    76   37  160 1    
    77   38  161 1    
    78   38  162 1    
    79   38  163 1    
    80   39   40 am   BACKBONE|DICT|INTERRES
    81   39  164 1    
    82   40   41 2    
    83   40   42 1    
    84   42   43 1    
    85   42   44 1    
    86   42  165 1    
    87   43  166 1    
    88   43  167 1    
    89   43  168 1    
    90   44   45 am   BACKBONE|DICT|INTERRES
    91   44  169 1    
    92   45   46 2    
    93   45   47 1    
    94   47   48 1    
    95   47   49 1    
    96   47  170 1    
    97   48  171 1    
    98   48  172 1    
    99   48  173 1    
   100   49   50 am   BACKBONE|DICT|INTERRES
   101   49  174 1    
   102   50   51 2    
   103   50   52 1    
   104   52   53 1    
   105   52   54 1    
   106   52  175 1    
   107   53  176 1    
   108   53  177 1    
   109   53  178 1    
   110   54   55 am   BACKBONE|DICT|INTERRES
   111   54  179 1    
   112   55   56 2    
   113   55   57 1    
   114   57   58 1    
   115   57   59 1    
   116   57  180 1    
   117   58  181 1    
   118   58  182 1    
   119   58  183 1    
   120   59   60 am   BACKBONE|DICT|INTERRES
   121   59  184 1    
   122   60   61 2    
   123   60   62 1    
   124   62   63 1    
   125   62   64 1    
   126   62  185 1    
   127   63  186 1    
   128   63  187 1    
   129   63  188 1    
   130   64   65 am   BACKBONE|DICT|INTERRES
   131   64  189 1    
   132   65   66 2    
   133   67   68 2    
   134   67   69 am   BACKBONE|DICT|INTERRES
   135   69   70 1    
   136   69  190 1    
   137   70   71 1    
   138   70   72 1    
   139   70  191 1    
   140   71  192 1    
   141   71  193 1    
   142   71  194 1    
   143   72   73 2    
   144   72   74 am   BACKBONE|DICT|INTERRES
   145   74   75 1    
   146   74  195 1    
   147   75   76 1    
   148   75   77 1    
   149   75  196 1    
   150   76  197 1    
   151   76  198 1    
   152   76  199 1    
   153   77   78 2    
   154   77   79 am   BACKBONE|DICT|INTERRES
   155   79   80 1    
   156   79  200 1    
   157   80   81 1    
   158   80   82 1    
   159   80  201 1    
   160   81  202 1    
   161   81  203 1    
   162   81  204 1    
   163   82   83 2    
   164   82   84 am   BACKBONE|DICT|INTERRES
   165   84   85 1    
   166   84  205 1    
   167   85   86 1    
   168   85   87 1    
   169   85  206 1    
   170   86  207 1    
   171   86  208 1    
   172   86  209 1    
   173   87   88 2    
   174   87   89 am   BACKBONE|DICT|INTERRES
   175   89   90 1    
   176   89  210 1    
   177   90   91 1    
   178   90   92 1    
   179   90  211 1    
   180   91  212 1    
   181   91  213 1    
   182   91  214 1    
   183   92   93 2    
   184   92   94 am   BACKBONE|DICT|INTERRES
   185   94   95 1    
   186   94  215 1    
   187   95   96 1    
   188   95   97 1    
   189   95  216 1    
   190   96  217 1    
   191   96  218 1    
   192   96  219 1    
   193   97   98 2    
   194   97   99 am   BACKBONE|DICT|INTERRES
   195   99  100 1    
   196   99  220 1    
   197  100  101 1    
   198  100  102 1    
   199  100  221 1    
   200  101  222 1    
   201  101  223 1    
   202  101  224 1    
   203  102  103 2    
   204  102  104 am   BACKBONE|DICT|INTERRES
   205  104  105 1    
   206  104  225 1    
   207  105  106 1    
   208  105  107 1    
   209  105  226 1    
   210  106  227 1    
   211  106  228 1    
   212  106  229 1    
   213  107  108 2    
   214  107  109 am   BACKBONE|DICT|INTERRES
   215  109  110 1    
   216  109  230 1    
   217  110  111 1    
   218  110  112 1    
   219  110  231 1    
   220  111  232 1    
   221  111  233 1    
   222  111  234 1    
   223  112  113 2    
   224  112  114 am   BACKBONE|DICT|INTERRES
   225  114  115 1    
   226  114  235 1    
   227  115  116 1    
   228  115  117 1    
   229  115  236 1    
   230  116  237 1    
   231  116  238 1    
   232  116  239 1    
   233  117  118 2    
   234  117  119 am   BACKBONE|DICT|INTERRES
   235  119  120 1    
   236  119  240 1    
   237  120  121 1    
   238  120  124 1    
   239  120  241 1    
   240  121  122 am   BACKBONE|DICT|INTERRES
   241  121  123 2    
   242  122  242 1    
   243  122  243 1    
   244  124  125 1    
   245  124  244 1    
   246  124  245 1    
   247  125  126 1    
   248  126  246 1    
   249  126  247 1    
@<TRIPOS>SUBSTRUCTURE
     1 UNK         1 GROUP             0       ****    0 ROOT    
