@<TRIPOS>MOLECULE
3R540
247   249    1
SMALL
USER_CHARGES


@<TRIPOS>ATOM
      1 CA          6.0274  -13.7050  -44.9403 C.3       0 UNK        -0.1800 
      2 C           5.1332  -13.6266  -46.1689 C.2       0 UNK         0.5000 
      3 O           4.8298  -12.5293  -46.6377 O.2       0 UNK        -0.5000 
      4 N           4.7128  -14.7872  -46.6912 N.am      1 UNK        -0.5000 
      5 CA          3.8334  -14.9371  -47.8585 C.3       1 UNK         0.1400 
      6 C6          4.4982  -14.4776  -49.1867 C.3       23 UNK        -0.0398 
      7 S7          5.9144  -15.5495  -49.6119 S.3       23 UNK        -0.2404 
      8 C8          5.4506  -16.1851  -51.2556 C.3       23 UNK        -0.0205 
      9 C9          4.2073  -17.0645  -51.2248 C.ar      23 UNK        -0.0193 
     10 C10         2.9818  -16.5625  -51.6690 C.ar      23 UNK        -0.1150 
     11 C11         1.8391  -17.3665  -51.6713 C.ar      23 UNK        -0.0193 
     12 C12         1.9318  -18.6943  -51.2429 C.ar      23 UNK        -0.1150 
     13 C13         3.1574  -19.2176  -50.8160 C.ar      23 UNK        -0.0193 
     14 C14         4.2877  -18.3926  -50.7967 C.ar      23 UNK        -0.1150 
     15 C15         3.2811  -20.6844  -50.4254 C.3       23 UNK        -0.0205 
     16 S16         2.6177  -21.0181  -48.7646 S.3       23 UNK        -0.2404 
     17 C17         0.8667  -21.3992  -49.1162 C.3       23 UNK        -0.0398 
     18 CA          0.3146  -22.5269  -48.2133 C.3       11 UNK         0.1400 
     19 N           0.3706  -22.1948  -46.7867 N.am      11 UNK        -0.5000 
     20 C           0.0890  -23.0470  -45.7912 C.2       10 UNK         0.5000 
     21 O          -0.1963  -24.2320  -45.9647 O.2       10 UNK        -0.5000 
     22 CA          0.0718  -22.4653  -44.3680 C.3       10 UNK         0.1400 
     23 CB          1.4887  -22.4033  -43.7776 C.3       10 UNK        -0.1800 
     24 N          -0.5393  -21.1362  -44.3372 N.am      10 UNK        -0.5000 
     25 C          -1.8548  -20.9091  -44.4594 C.2       9 UNK         0.5000 
     26 O          -2.6926  -21.8048  -44.5670 O.2       9 UNK        -0.5000 
     27 CA         -2.3056  -19.4353  -44.5089 C.3       9 UNK         0.1400 
     28 CB         -2.4559  -18.8649  -43.0913 C.3       9 UNK        -0.1800 
     29 N          -1.3954  -18.5864  -45.2800 N.am      9 UNK        -0.5000 
     30 C          -1.1844  -18.7231  -46.5975 C.2       8 UNK         0.5000 
     31 O          -1.7796  -19.5379  -47.2967 O.2       8 UNK        -0.5000 
     32 CA         -0.0982  -17.8447  -47.2417 C.3       8 UNK         0.1400 
     33 CB         -0.7214  -16.5384  -47.7428 C.3       8 UNK        -0.1800 
     34 N           1.0409  -17.5609  -46.3624 N.am      8 UNK        -0.5000 
     35 C           1.8086  -18.5062  -45.7931 C.2       7 UNK         0.5000 
     36 O           1.5984  -19.7107  -45.9212 O.2       7 UNK        -0.5000 
     37 CA          2.9683  -18.0654  -44.8898 C.3       7 UNK         0.1400 
     38 CB          4.3075  -18.0958  -45.6406 C.3       7 UNK        -0.1800 
     39 N           2.7227  -16.7432  -44.3092 N.am      7 UNK        -0.5000 
     40 C           2.6300  -16.5342  -42.9892 C.2       6 UNK         0.5000 
     41 O           2.9336  -17.3703  -42.1366 O.2       6 UNK        -0.5000 
     42 CA          2.0766  -15.1766  -42.5236 C.3       6 UNK         0.1400 
     43 CB          3.2258  -14.1879  -42.2823 C.3       6 UNK        -0.1800 
     44 N           1.0767  -14.5628  -43.4038 N.am      6 UNK        -0.5000 
     45 C          -0.0762  -15.1252  -43.8071 C.2       5 UNK         0.5000 
     46 O          -0.3615  -16.3095  -43.6185 O.2       5 UNK        -0.5000 
     47 CA         -1.0825  -14.2133  -44.5476 C.3       5 UNK         0.1400 
     48 CB         -2.5334  -14.7294  -44.4620 C.3       5 UNK        -0.1800 
     49 N          -1.0112  -12.8050  -44.1503 N.am      5 UNK        -0.5000 
     50 C          -1.1245  -12.2838  -42.9178 C.2       4 UNK         0.5000 
     51 O          -1.4685  -12.9329  -41.9288 O.2       4 UNK        -0.5000 
     52 CA         -0.7535  -10.7876  -42.7666 C.3       4 UNK         0.1400 
     53 CB         -0.1273  -10.4764  -41.3913 C.3       4 UNK        -0.1800 
     54 N           0.1072  -10.2812  -43.8481 N.am      4 UNK        -0.5000 
     55 C           1.3135  -10.7481  -44.2061 C.2       3 UNK         0.5000 
     56 O           1.9076  -11.6508  -43.6169 O.2       3 UNK        -0.5000 
     57 CA          1.9014  -10.1862  -45.5113 C.3       3 UNK         0.1400 
     58 CB          3.3668   -9.7615  -45.3272 C.3       3 UNK        -0.1800 
     59 N           1.8066  -11.1691  -46.5954 N.am      3 UNK        -0.5000 
     60 C           0.6594  -11.6591  -47.0933 C.2       2 UNK         0.5000 
     61 O          -0.4532  -11.3483  -46.6664 O.2       2 UNK        -0.5000 
     62 CA          0.7443  -12.6506  -48.2676 C.3       2 UNK         0.1400 
     63 CB          0.4758  -11.9155  -49.5895 C.3       2 UNK        -0.1800 
     64 N           2.0285  -13.3377  -48.3724 N.am      2 UNK        -0.5000 
     65 C           2.4573  -14.3083  -47.5558 C.2       1 UNK         0.5000 
     66 O           1.8191  -14.7305  -46.5857 O.2       1 UNK        -0.5000 
     67 C          -1.1121  -22.9279  -48.6409 C.2       11 UNK         0.5000 
     68 O          -1.2752  -23.9368  -49.3261 O.2       11 UNK        -0.5000 
     69 N          -2.1198  -22.1701  -48.1846 N.am      12 UNK        -0.5000 
     70 CA         -3.5372  -22.4633  -48.3816 C.3       12 UNK         0.1400 
     71 CB         -4.3943  -21.3044  -47.8589 C.3       12 UNK        -0.1800 
     72 C          -3.9660  -23.7804  -47.7216 C.2       12 UNK         0.5000 
     73 O          -4.6853  -24.5525  -48.3504 O.2       12 UNK        -0.5000 
     74 N          -3.4990  -24.0367  -46.4908 N.am      13 UNK        -0.5000 
     75 CA         -3.7458  -25.2849  -45.7656 C.3       13 UNK         0.1400 
     76 CB         -3.2156  -25.1733  -44.3286 C.3       13 UNK        -0.1800 
     77 C          -3.1535  -26.5122  -46.4831 C.2       13 UNK         0.5000 
     78 O          -3.8402  -27.5262  -46.6120 O.2       13 UNK        -0.5000 
     79 N          -1.9197  -26.3798  -46.9916 N.am      14 UNK        -0.5000 
     80 CA         -1.2421  -27.3904  -47.8088 C.3       14 UNK         0.1400 
     81 CB          0.2182  -26.9697  -48.0327 C.3       14 UNK        -0.1800 
     82 C          -1.9504  -27.6535  -49.1537 C.2       14 UNK         0.5000 
     83 O          -2.0000  -28.7989  -49.6025 O.2       14 UNK        -0.5000 
     84 N          -2.5192  -26.5970  -49.7482 N.am      15 UNK        -0.5000 
     85 CA         -3.3286  -26.6369  -50.9678 C.3       15 UNK         0.1400 
     86 CB         -3.2556  -25.2586  -51.6453 C.3       15 UNK        -0.1800 
     87 C          -4.7982  -27.0477  -50.7261 C.2       15 UNK         0.5000 
     88 O          -5.5788  -27.0463  -51.6785 O.2       15 UNK        -0.5000 
     89 N          -5.1705  -27.3561  -49.4732 N.am      16 UNK        -0.5000 
     90 CA         -6.5135  -27.7299  -49.0090 C.3       16 UNK         0.1400 
     91 CB         -6.9044  -29.1190  -49.5545 C.3       16 UNK        -0.1800 
     92 C          -7.5838  -26.6504  -49.2917 C.2       16 UNK         0.5000 
     93 O          -8.7393  -26.9782  -49.5661 O.2       16 UNK        -0.5000 
     94 N          -7.1608  -25.3793  -49.2384 N.am      17 UNK        -0.5000 
     95 CA         -7.9079  -24.1483  -49.5130 C.3       17 UNK         0.1400 
     96 CB         -9.0584  -23.9667  -48.5022 C.3       17 UNK        -0.1800 
     97 C          -8.3770  -23.9909  -50.9765 C.2       17 UNK         0.5000 
     98 O          -9.1749  -23.0951  -51.2574 O.2       17 UNK        -0.5000 
     99 N          -7.8735  -24.8311  -51.8925 N.am      18 UNK        -0.5000 
    100 CA        -8.2153  -24.7948  -53.3163 C.3       18 UNK         0.1400 
    101 CB        -7.9588  -26.1809  -53.9276 C.3       18 UNK        -0.1800 
    102 C         -7.4393  -23.7145  -54.0940 C.2       18 UNK         0.5000 
    103 O         -7.8686  -23.3310  -55.1831 O.2       18 UNK        -0.5000 
    104 N         -6.3146  -23.2520  -53.5373 N.am      19 UNK        -0.5000 
    105 CA        -5.4001  -22.2759  -54.1186 C.3       19 UNK         0.1400 
    106 CB        -4.5752  -22.9416  -55.2408 C.3       19 UNK        -0.1800 
    107 C         -4.4899  -21.7236  -53.0090 C.2       19 UNK         0.5000 
    108 O         -4.6089  -22.1396  -51.8547 O.2       19 UNK        -0.5000 
    109 N         -3.5879  -20.8086  -53.3914 N.am      20 UNK        -0.5000 
    110 CA        -2.4583  -20.2758  -52.6142 C.3       20 UNK         0.1400 
    111 CB        -1.4953  -21.4095  -52.2136 C.3       20 UNK        -0.1800 
    112 C         -2.8234  -19.3807  -51.4106 C.2       20 UNK         0.5000 
    113 O         -1.9252  -18.9539  -50.6840 O.2       20 UNK        -0.5000 
    114 N         -4.1103  -19.0547  -51.2446 N.am      21 UNK        -0.5000 
    115 CA        -4.6367  -18.1642  -50.2102 C.3       21 UNK         0.1400 
    116 CB        -6.0988  -18.5562  -49.9265 C.3       21 UNK        -0.1800 
    117 C         -4.4820  -16.6836  -50.6135 C.2       21 UNK         0.5000 
    118 O         -5.4765  -15.9671  -50.7410 O.2       21 UNK        -0.5000 
    119 N         -3.2334  -16.2582  -50.8371 N.am      22 UNK        -0.5000 
    120 CA        -2.8701  -14.8924  -51.2500 C.3       22 UNK         0.1400 
    121 C         -2.9308  -13.8129  -50.1273 C.2       22 UNK         0.5000 
    122 N         -3.1213  -14.1696  -48.8626 N.am      22 UNK        -0.7600 
    123 O         -2.8288  -12.6242  -50.4159 O.2       22 UNK        -0.5000 
    124 C124       -1.5277  -14.8625  -52.0250 C.3       23 UNK        -0.0398 
    125 S125       -0.1007  -15.4918  -51.0742 S.3       23 UNK        -0.2404 
    126 C126        0.5209  -16.7991  -52.1744 C.3       23 UNK        -0.0205 
    127 H127        5.9818  -14.6879  -44.4704 H         1 UNK         0.0600 
    128 H128        7.0618  -13.5030  -45.2176 H         1 UNK         0.0600 
    129 H129        5.7214  -12.9623  -44.2035 H         1 UNK         0.0600 
    130 H130        5.0058  -15.6499  -46.2576 H         1 UNK         0.3000 
    131 H131        3.6196  -15.9993  -47.9720 H         1 UNK         0.0600 
    132 H132        3.7836  -14.4998  -50.0086 H         1 UNK         0.0800 
    133 H133        4.8523  -13.4481  -49.1211 H         1 UNK         0.0800 
    134 H134        5.3119  -15.3456  -51.9387 H         1 UNK         0.0800 
    135 H135        6.2863  -16.7616  -51.6550 H         1 UNK         0.0800 
    136 H136        2.9116  -15.5420  -52.0185 H         1 UNK         0.1150 
    137 H137        1.0543  -19.3241  -51.2573 H         1 UNK         0.1150 
    138 H138        5.2389  -18.7885  -50.4691 H         1 UNK         0.1150 
    139 H139        2.7922  -21.3121  -51.1713 H         1 UNK         0.0800 
    140 H140        4.3305  -20.9825  -50.4345 H         1 UNK         0.0800 
    141 H141        0.7859  -21.7051  -50.1586 H         1 UNK         0.0800 
    142 H142        0.2743  -20.4896  -49.0155 H         1 UNK         0.0800 
    143 H143        0.9461  -23.4061  -48.3592 H         1 UNK         0.0600 
    144 H144        0.6652  -21.2507  -46.5505 H         1 UNK         0.3000 
    145 H145       -0.5233  -23.1321  -43.7406 H         1 UNK         0.0600 
    146 H146        1.4745  -22.0178  -42.7581 H         1 UNK         0.0600 
    147 H147        1.9371  -23.3969  -43.7434 H         1 UNK         0.0600 
    148 H148        2.1501  -21.7683  -44.3671 H         1 UNK         0.0600 
    149 H149        0.0930  -20.3479  -44.3482 H         1 UNK         0.3000 
    150 H150       -3.2841  -19.4050  -44.9928 H         1 UNK         0.0600 
    151 H151       -3.1417  -19.4694  -42.4964 H         1 UNK         0.0600 
    152 H152       -2.8534  -17.8499  -43.1158 H         1 UNK         0.0600 
    153 H153       -1.5003  -18.8354  -42.5662 H         1 UNK         0.0600 
    154 H154       -0.8820  -17.8780  -44.7637 H         1 UNK         0.3000 
    155 H155        0.2943  -18.3778  -48.1090 H         1 UNK         0.0600 
    156 H156        0.0241  -15.8955  -48.2054 H         1 UNK         0.0600 
    157 H157       -1.2003  -15.9837  -46.9392 H         1 UNK         0.0600 
    158 H158       -1.4816  -16.7443  -48.4965 H         1 UNK         0.0600 
    159 H159        1.2648  -16.5817  -46.2335 H         1 UNK         0.3000 
    160 H160        3.0308  -18.8191  -44.1021 H         1 UNK         0.0600 
    161 H161        4.2731  -17.5348  -46.5694 H         1 UNK         0.0600 
    162 H162        4.5703  -19.1211  -45.9043 H         1 UNK         0.0600 
    163 H163        5.1178  -17.7014  -45.0273 H         1 UNK         0.0600 
    164 H164        2.4450  -15.9955  -44.9334 H         1 UNK         0.3000 
    165 H165        1.5825  -15.3528  -41.5662 H         1 UNK         0.0600 
    166 H166        3.6642  -13.8533  -43.2221 H         1 UNK         0.0600 
    167 H167        2.8784  -13.3074  -41.7418 H         1 UNK         0.0600 
    168 H168        4.0210  -14.6376  -41.6862 H         1 UNK         0.0600 
    169 H169        1.2336  -13.5831  -43.6180 H         1 UNK         0.3000 
    170 H170       -0.7824  -14.2288  -45.5947 H         1 UNK         0.0600 
    171 H171       -2.8834  -14.7752  -43.4304 H         1 UNK         0.0600 
    172 H172       -2.6225  -15.7323  -44.8811 H         1 UNK         0.0600 
    173 H173       -3.2137  -14.0859  -45.0195 H         1 UNK         0.0600 
    174 H174       -0.7591  -12.1662  -44.8988 H         1 UNK         0.3000 
    175 H175       -1.6917  -10.2356  -42.8373 H         1 UNK         0.0600 
    176 H176        0.1274   -9.4203  -41.3036 H         1 UNK         0.0600 
    177 H177       -0.8206  -10.7090  -40.5823 H         1 UNK         0.0600 
    178 H178        0.7804  -11.0559  -41.2196 H         1 UNK         0.0600 
    179 H179       -0.3190   -9.5798  -44.4384 H         1 UNK         0.3000 
    180 H180        1.3314   -9.3034  -45.8079 H         1 UNK         0.0600 
    181 H181        3.9931  -10.5945  -45.0067 H         1 UNK         0.0600 
    182 H182        3.4519   -8.9810  -44.5703 H         1 UNK         0.0600 
    183 H183        3.7843   -9.3653  -46.2530 H         1 UNK         0.0600 
    184 H184        2.6833  -11.5289  -46.9500 H         1 UNK         0.3000 
    185 H185       -0.0384  -13.3990  -48.1265 H         1 UNK         0.0600 
    186 H186        0.4459  -12.6075  -50.4305 H         1 UNK         0.0600 
    187 H187       -0.4860  -11.4019  -49.5620 H         1 UNK         0.0600 
    188 H188        1.2406  -11.1663  -49.7975 H         1 UNK         0.0600 
    189 H189        2.6252  -13.0360  -49.1275 H         1 UNK         0.3000 
    190 H190       -1.9075  -21.3081  -47.6858 H         1 UNK         0.3000 
    191 H191       -3.7074  -22.5557  -49.4546 H         1 UNK         0.0600 
    192 H192       -4.1392  -20.3783  -48.3681 H         1 UNK         0.0600 
    193 H193       -5.4547  -21.4922  -48.0314 H         1 UNK         0.0600 
    194 H194       -4.2544  -21.1462  -46.7894 H         1 UNK         0.0600 
    195 H195       -2.9493  -23.3307  -46.0144 H         1 UNK         0.3000 
    196 H196       -4.8275  -25.4250  -45.7134 H         1 UNK         0.0600 
    197 H197       -3.4268  -26.0823  -43.7642 H         1 UNK         0.0600 
    198 H198       -3.6861  -24.3451  -43.7984 H         1 UNK         0.0600 
    199 H199       -2.1377  -25.0164  -44.3044 H         1 UNK         0.0600 
    200 H200       -1.4054  -25.5229  -46.8061 H         1 UNK         0.3000 
    201 H201       -1.2429  -28.3267  -47.2470 H         1 UNK         0.0600 
    202 H202        0.7428  -26.8483  -47.0848 H         1 UNK         0.0600 
    203 H203        0.2877  -26.0265  -48.5749 H         1 UNK         0.0600 
    204 H204        0.7574  -27.7215  -48.6102 H         1 UNK         0.0600 
    205 H205       -2.3750  -25.6793  -49.3397 H         1 UNK         0.3000 
    206 H206       -2.8992  -27.3717  -51.6515 H         1 UNK         0.0600 
    207 H207       -2.2256  -24.9803  -51.8687 H         1 UNK         0.0600 
    208 H208       -3.8061  -25.2451  -52.5867 H         1 UNK         0.0600 
    209 H209       -3.6773  -24.4831  -51.0065 H         1 UNK         0.0600 
    210 H210       -4.4703  -27.2847  -48.7456 H         1 UNK         0.3000 
    211 H211       -6.4462  -27.8088  -47.9231 H         1 UNK         0.0600 
    212 H212       -7.0477  -29.1035  -50.6354 H         1 UNK         0.0600 
    213 H213       -7.8348  -29.4688  -49.1060 H         1 UNK         0.0600 
    214 H214       -6.1382  -29.8604  -49.3281 H         1 UNK         0.0600 
    215 H215       -6.1841  -25.2233  -48.9860 H         1 UNK         0.3000 
    216 H216       -7.1983  -23.3364  -49.3463 H         1 UNK         0.0600 
    217 H217       -8.6999  -24.0592  -47.4770 H         1 UNK         0.0600 
    218 H218       -9.8485  -24.7031  -48.6504 H         1 UNK         0.0600 
    219 H219       -9.5119  -22.9794  -48.5968 H         1 UNK         0.0600 
    220 H220       -7.2189  -25.5477  -51.6009 H         1 UNK         0.3000 
    221 H221       -9.2803  -24.5757  -53.4178 H         1 UNK         0.0600 
    222 H222       -6.8982  -26.4341  -53.9204 H         1 UNK         0.0600 
    223 H223       -8.4941  -26.9594  -53.3835 H         1 UNK         0.0600 
    224 H224       -8.2954  -26.2174  -54.9644 H         1 UNK         0.0600 
    225 H225       -6.0524  -23.5617  -52.6099 H         1 UNK         0.3000 
    226 H226       -5.9781  -21.4445  -54.5267 H         1 UNK         0.0600 
    227 H227       -5.2166  -23.3449  -56.0243 H         1 UNK         0.0600 
    228 H228       -3.9025  -22.2306  -55.7209 H         1 UNK         0.0600 
    229 H229       -3.9670  -23.7610  -54.8553 H         1 UNK         0.0600 
    230 H230       -3.6105  -20.5065  -54.3556 H         1 UNK         0.3000 
    231 H231       -1.9167  -19.6246  -53.3017 H         1 UNK         0.0600 
    232 H232       -0.5631  -21.0008  -51.8286 H         1 UNK         0.0600 
    233 H233       -1.2418  -22.0368  -53.0681 H         1 UNK         0.0600 
    234 H234       -1.9222  -22.0503  -51.4418 H         1 UNK         0.0600 
    235 H235       -4.7796  -19.4321  -51.8983 H         1 UNK         0.3000 
    236 H236       -4.0657  -18.3013  -49.2900 H         1 UNK         0.0600 
    237 H237       -6.5150  -17.9543  -49.1178 H         1 UNK         0.0600 
    238 H238       -6.7319  -18.4146  -50.8032 H         1 UNK         0.0600 
    239 H239       -6.1781  -19.6010  -49.6267 H         1 UNK         0.0600 
    240 H240       -2.4697  -16.9152  -50.7196 H         1 UNK         0.3000 
    241 H241       -3.6304  -14.5753  -51.9666 H         1 UNK         0.0600 
    242 H242       -3.2408  -15.1370  -48.6170 H         1 UNK         0.3800 
    243 H243       -3.1816  -13.4549  -48.1559 H         1 UNK         0.3800 
    244 H244       -1.6346  -15.4462  -52.9401 H         1 UNK         0.0800 
    245 H245       -1.2975  -13.8484  -52.3561 H         1 UNK         0.0800 
    246 H246        0.6708  -16.3915  -53.1751 H         1 UNK         0.0800 
    247 H247       -0.2308  -17.5835  -52.2655 H         1 UNK         0.0800 
@<TRIPOS>BOND
     1    1    2 1    
     2    1  127 1    
     3    1  128 1    
     4    1  129 1    
     5    2    3 2    
     6    2    4 am   BACKBONE|DICT|INTERRES
     7    4    5 1    
     8    4  130 1    
     9    5    6 1    
    10    5   65 1    
    11    5  131 1    
    12    6    7 1    
    13    6  132 1    
    14    6  133 1    
    15    7    8 1    
    16    8    9 1    
    17    8  134 1    
    18    8  135 1    
    19    9   10 ar   
    20    9   14 ar   
    21   10   11 ar   
    22   10  136 1    
    23   11   12 ar   
    24   11  126 1    
    25   12   13 ar   
    26   12  137 1    
    27   13   14 ar   
    28   13   15 1    
    29   14  138 1    
    30   15   16 1    
    31   15  139 1    
    32   15  140 1    
    33   16   17 1    
    34   17   18 1    
    35   17  141 1    
    36   17  142 1    
    37   18   19 1    
    38   18   67 1    
    39   18  143 1    
    40   19   20 am   BACKBONE|DICT|INTERRES
    41   19  144 1    
    42   20   21 2    
    43   20   22 1    
    44   22   23 1    
    45   22   24 1    
    46   22  145 1    
    47   23  146 1    
    48   23  147 1    
    49   23  148 1    
    50   24   25 am   BACKBONE|DICT|INTERRES
    51   24  149 1    
    52   25   26 2    
    53   25   27 1    
    54   27   28 1    
    55   27   29 1    
    56   27  150 1    
    57   28  151 1    
    58   28  152 1    
    59   28  153 1    
    60   29   30 am   BACKBONE|DICT|INTERRES
    61   29  154 1    
    62   30   31 2    
    63   30   32 1    
    64   32   33 1    
    65   32   34 1    
    66   32  155 1    
    67   33  156 1    
    68   33  157 1    
    69   33  158 1    
    70   34   35 am   BACKBONE|DICT|INTERRES
    71   34  159 1    
    72   35   36 2    
    73   35   37 1    
    74   37   38 1    
    75   37   39 1    
    76   37  160 1    
    77   38  161 1    
    78   38  162 1    
    79   38  163 1    
    80   39   40 am   BACKBONE|DICT|INTERRES
    81   39  164 1    
    82   40   41 2    
    83   40   42 1    
    84   42   43 1    
    85   42   44 1    
    86   42  165 1    
    87   43  166 1    
    88   43  167 1    
    89   43  168 1    
    90   44   45 am   BACKBONE|DICT|INTERRES
    91   44  169 1    
    92   45   46 2    
    93   45   47 1    
    94   47   48 1    
    95   47   49 1    
    96   47  170 1    
    97   48  171 1    
    98   48  172 1    
    99   48  173 1    
   100   49   50 am   BACKBONE|DICT|INTERRES
   101   49  174 1    
   102   50   51 2    
   103   50   52 1    
   104   52   53 1    
   105   52   54 1    
   106   52  175 1    
   107   53  176 1    
   108   53  177 1    
   109   53  178 1    
   110   54   55 am   BACKBONE|DICT|INTERRES
   111   54  179 1    
   112   55   56 2    
   113   55   57 1    
   114   57   58 1    
   115   57   59 1    
   116   57  180 1    
   117   58  181 1    
   118   58  182 1    
   119   58  183 1    
   120   59   60 am   BACKBONE|DICT|INTERRES
   121   59  184 1    
   122   60   61 2    
   123   60   62 1    
   124   62   63 1    
   125   62   64 1    
   126   62  185 1    
   127   63  186 1    
   128   63  187 1    
   129   63  188 1    
   130   64   65 am   BACKBONE|DICT|INTERRES
   131   64  189 1    
   132   65   66 2    
   133   67   68 2    
   134   67   69 am   BACKBONE|DICT|INTERRES
   135   69   70 1    
   136   69  190 1    
   137   70   71 1    
   138   70   72 1    
   139   70  191 1    
   140   71  192 1    
   141   71  193 1    
   142   71  194 1    
   143   72   73 2    
   144   72   74 am   BACKBONE|DICT|INTERRES
   145   74   75 1    
   146   74  195 1    
   147   75   76 1    
   148   75   77 1    
   149   75  196 1    
   150   76  197 1    
   151   76  198 1    
   152   76  199 1    
   153   77   78 2    
   154   77   79 am   BACKBONE|DICT|INTERRES
   155   79   80 1    
   156   79  200 1    
   157   80   81 1    
   158   80   82 1    
   159   80  201 1    
   160   81  202 1    
   161   81  203 1    
   162   81  204 1    
   163   82   83 2    
   164   82   84 am   BACKBONE|DICT|INTERRES
   165   84   85 1    
   166   84  205 1    
   167   85   86 1    
   168   85   87 1    
   169   85  206 1    
   170   86  207 1    
   171   86  208 1    
   172   86  209 1    
   173   87   88 2    
   174   87   89 am   BACKBONE|DICT|INTERRES
   175   89   90 1    
   176   89  210 1    
   177   90   91 1    
   178   90   92 1    
   179   90  211 1    
   180   91  212 1    
   181   91  213 1    
   182   91  214 1    
   183   92   93 2    
   184   92   94 am   BACKBONE|DICT|INTERRES
   185   94   95 1    
   186   94  215 1    
   187   95   96 1    
   188   95   97 1    
   189   95  216 1    
   190   96  217 1    
   191   96  218 1    
   192   96  219 1    
   193   97   98 2    
   194   97   99 am   BACKBONE|DICT|INTERRES
   195   99  100 1    
   196   99  220 1    
   197  100  101 1    
   198  100  102 1    
   199  100  221 1    
   200  101  222 1    
   201  101  223 1    
   202  101  224 1    
   203  102  103 2    
   204  102  104 am   BACKBONE|DICT|INTERRES
   205  104  105 1    
   206  104  225 1    
   207  105  106 1    
   208  105  107 1    
   209  105  226 1    
   210  106  227 1    
   211  106  228 1    
   212  106  229 1    
   213  107  108 2    
   214  107  109 am   BACKBONE|DICT|INTERRES
   215  109  110 1    
   216  109  230 1    
   217  110  111 1    
   218  110  112 1    
   219  110  231 1    
   220  111  232 1    
   221  111  233 1    
   222  111  234 1    
   223  112  113 2    
   224  112  114 am   BACKBONE|DICT|INTERRES
   225  114  115 1    
   226  114  235 1    
   227  115  116 1    
   228  115  117 1    
   229  115  236 1    
   230  116  237 1    
   231  116  238 1    
   232  116  239 1    
   233  117  118 2    
   234  117  119 am   BACKBONE|DICT|INTERRES
   235  119  120 1    
   236  119  240 1    
   237  120  121 1    
   238  120  124 1    
   239  120  241 1    
   240  121  122 am   BACKBONE|DICT|INTERRES
   241  121  123 2    
   242  122  242 1    
   243  122  243 1    
   244  124  125 1    
   245  124  244 1    
   246  124  245 1    
   247  125  126 1    
   248  126  246 1    
   249  126  247 1    
@<TRIPOS>SUBSTRUCTURE
     1 UNK         1 GROUP             0       ****    0 ROOT    
