@<TRIPOS>MOLECULE
3R540
247   249    1
SMALL
USER_CHARGES


@<TRIPOS>ATOM
      1 CA          1.7145   -9.4839  -51.9124 C.3       0 UNK        -0.1800 
      2 C           1.7646   -9.7297  -50.4108 C.2       0 UNK         0.5000 
      3 O           1.2996   -8.8924  -49.6365 O.2       0 UNK        -0.5000 
      4 N           2.3348  -10.8673  -49.9977 N.am      1 UNK        -0.5000 
      5 CA          2.3999  -11.3187  -48.6051 C.3       1 UNK         0.1400 
      6 C6          3.4898  -12.4058  -48.4114 C.3       23 UNK        -0.0398 
      7 S7          3.2526  -13.9111  -49.4258 S.3       23 UNK        -0.2404 
      8 C8          2.5914  -15.0495  -48.1728 C.3       23 UNK        -0.0205 
      9 C9          1.7345  -16.1382  -48.7936 C.ar      23 UNK        -0.0193 
     10 C10         0.3898  -15.8882  -49.0820 C.ar      23 UNK        -0.1150 
     11 C11        -0.4247  -16.8840  -49.6278 C.ar      23 UNK        -0.0193 
     12 C12         0.1353  -18.1375  -49.9003 C.ar      23 UNK        -0.1150 
     13 C13         1.4727  -18.4106  -49.5948 C.ar      23 UNK        -0.0193 
     14 C14         2.2695  -17.4040  -49.0436 C.ar      23 UNK        -0.1150 
     15 C15         2.0528  -19.7944  -49.8564 C.3       23 UNK        -0.0205 
     16 S16         1.7493  -20.9551  -48.4818 S.3       23 UNK        -0.2404 
     17 C17        -0.0735  -20.9978  -48.4186 C.3       23 UNK        -0.0398 
     18 CA         -0.6431  -22.1553  -47.5713 C.3       11 UNK         0.1400 
     19 N          -0.2188  -22.0910  -46.1695 N.am      11 UNK        -0.5000 
     20 C          -0.4846  -23.0285  -45.2493 C.2       10 UNK         0.5000 
     21 O          -1.0800  -24.0775  -45.4929 O.2       10 UNK        -0.5000 
     22 CA         -0.0752  -22.7131  -43.8022 C.3       10 UNK         0.1400 
     23 CB          1.4228  -22.9693  -43.5786 C.3       10 UNK        -0.1800 
     24 N          -0.4083  -21.3355  -43.4407 N.am      10 UNK        -0.5000 
     25 C          -1.6577  -20.8927  -43.2391 C.2       9 UNK         0.5000 
     26 O          -2.6543  -21.6117  -43.3000 O.2       9 UNK        -0.5000 
     27 CA         -1.8262  -19.3888  -42.9522 C.3       9 UNK         0.1400 
     28 CB         -1.6449  -19.0983  -41.4544 C.3       9 UNK        -0.1800 
     29 N          -0.8986  -18.5550  -43.7152 N.am      9 UNK        -0.5000 
     30 C          -0.9025  -18.4266  -45.0491 C.2       8 UNK         0.5000 
     31 O          -1.7066  -18.9852  -45.7926 O.2       8 UNK        -0.5000 
     32 CA          0.2204  -17.5645  -45.6497 C.3       8 UNK         0.1400 
     33 CB         -0.1885  -16.0848  -45.6127 C.3       8 UNK        -0.1800 
     34 N           1.5136  -17.7483  -44.9763 N.am      8 UNK        -0.5000 
     35 C           2.1566  -18.9258  -44.8958 C.2       7 UNK         0.5000 
     36 O           1.6760  -19.9789  -45.3149 O.2       7 UNK        -0.5000 
     37 CA          3.5183  -18.9713  -44.1752 C.3       7 UNK         0.1400 
     38 CB          4.4905  -19.9863  -44.8130 C.3       7 UNK        -0.1800 
     39 N           4.1516  -17.6635  -43.9875 N.am      7 UNK        -0.5000 
     40 C           4.7084  -16.8659  -44.9129 C.2       6 UNK         0.5000 
     41 O           4.7604  -17.1419  -46.1107 O.2       6 UNK        -0.5000 
     42 CA          5.3096  -15.5305  -44.4202 C.3       6 UNK         0.1400 
     43 CB          4.7848  -14.3401  -45.2410 C.3       6 UNK        -0.1800 
     44 N           5.0143  -15.2872  -43.0073 N.am      6 UNK        -0.5000 
     45 C           5.8267  -15.5758  -41.9808 C.2       5 UNK         0.5000 
     46 O           6.9730  -16.0042  -42.1145 O.2       5 UNK        -0.5000 
     47 CA          5.2510  -15.3817  -40.5617 C.3       5 UNK         0.1400 
     48 CB          5.6908  -14.0269  -39.9865 C.3       5 UNK        -0.1800 
     49 N           3.7882  -15.4647  -40.5121 N.am      5 UNK        -0.5000 
     50 C           3.0660  -16.5655  -40.7688 C.2       4 UNK         0.5000 
     51 O           3.5613  -17.6648  -41.0113 O.2       4 UNK        -0.5000 
     52 CA          1.5375  -16.3879  -40.8526 C.3       4 UNK         0.1400 
     53 CB          0.8782  -16.6792  -39.4972 C.3       4 UNK        -0.1800 
     54 N           1.1462  -15.0509  -41.3108 N.am      4 UNK        -0.5000 
     55 C           1.4081  -14.5611  -42.5292 C.2       3 UNK         0.5000 
     56 O           1.9747  -15.2029  -43.4184 O.2       3 UNK        -0.5000 
     57 CA          1.0421  -13.0937  -42.7691 C.3       3 UNK         0.1400 
     58 CB          2.2286  -12.1831  -42.4098 C.3       3 UNK        -0.1800 
     59 N           0.6911  -12.9033  -44.1732 N.am      3 UNK        -0.5000 
     60 C          -0.2461  -12.0537  -44.6091 C.2       2 UNK         0.5000 
     61 O          -0.8784  -11.3015  -43.8651 O.2       2 UNK        -0.5000 
     62 CA         -0.4788  -12.0120  -46.1283 C.3       2 UNK         0.1400 
     63 CB         -1.6229  -11.0540  -46.5293 C.3       2 UNK        -0.1800 
     64 N           0.7690  -11.6367  -46.7933 N.am      2 UNK        -0.5000 
     65 C           1.0121  -11.7807  -48.1015 C.2       1 UNK         0.5000 
     66 O           0.2035  -12.2739  -48.8922 O.2       1 UNK        -0.5000 
     67 C          -2.1806  -22.1903  -47.6978 C.2       11 UNK         0.5000 
     68 O          -2.7097  -23.0123  -48.4461 O.2       11 UNK        -0.5000 
     69 N          -2.8711  -21.3276  -46.9379 N.am      12 UNK        -0.5000 
     70 CA         -4.3306  -21.2613  -46.8760 C.3       12 UNK         0.1400 
     71 CB         -4.7616  -20.0159  -46.0889 C.3       12 UNK        -0.1800 
     72 C          -4.9746  -22.5278  -46.2862 C.2       12 UNK         0.5000 
     73 O          -6.0630  -22.8998  -46.7185 O.2       12 UNK        -0.5000 
     74 N          -4.2983  -23.1839  -45.3349 N.am      13 UNK        -0.5000 
     75 CA         -4.7196  -24.4718  -44.7863 C.3       13 UNK         0.1400 
     76 CB         -3.9747  -24.7432  -43.4701 C.3       13 UNK        -0.1800 
     77 C          -4.5089  -25.6238  -45.7866 C.2       13 UNK         0.5000 
     78 O          -5.3957  -26.4644  -45.9398 O.2       13 UNK        -0.5000 
     79 N          -3.3410  -25.6445  -46.4424 N.am      14 UNK        -0.5000 
     80 CA         -2.9233  -26.7047  -47.3582 C.3       14 UNK         0.1400 
     81 CB         -1.4035  -26.6180  -47.5699 C.3       14 UNK        -0.1800 
     82 C          -3.6529  -26.6804  -48.7128 C.2       14 UNK         0.5000 
     83 O          -4.0728  -27.7356  -49.1896 O.2       14 UNK        -0.5000 
     84 N          -3.7614  -25.4921  -49.3194 N.am      15 UNK        -0.5000 
     85 CA         -4.2133  -25.2989  -50.7000 C.3       15 UNK         0.1400 
     86 CB         -3.0847  -24.6060  -51.4795 C.3       15 UNK        -0.1800 
     87 C          -5.5189  -24.4910  -50.7961 C.2       15 UNK         0.5000 
     88 O          -5.8670  -24.0288  -51.8860 O.2       15 UNK        -0.5000 
     89 N          -6.2009  -24.2769  -49.6611 N.am      16 UNK        -0.5000 
     90 CA         -7.4635  -23.5344  -49.5007 C.3       16 UNK         0.1400 
     91 CB         -8.5940  -24.2234  -50.2950 C.3       16 UNK        -0.1800 
     92 C          -7.3792  -22.0285  -49.8474 C.2       16 UNK         0.5000 
     93 O          -8.4004  -21.3428  -49.7870 O.2       16 UNK        -0.5000 
     94 N          -6.1861  -21.5567  -50.2474 N.am      17 UNK        -0.5000 
     95 CA         -5.9085  -20.2908  -50.9344 C.3       17 UNK         0.1400 
     96 CB         -6.0950  -19.0922  -49.9807 C.3       17 UNK        -0.1800 
     97 C          -6.7113  -20.1572  -52.2500 C.2       17 UNK         0.5000 
     98 O          -7.1380  -19.0555  -52.6010 O.2       17 UNK        -0.5000 
     99 N          -6.9331  -21.2881  -52.9393 N.am      18 UNK        -0.5000 
    100 CA        -7.8035  -21.3711  -54.1128 C.3       18 UNK         0.1400 
    101 CB        -9.2799  -21.3982  -53.6740 C.3       18 UNK        -0.1800 
    102 C         -7.4934  -22.5764  -55.0128 C.2       18 UNK         0.5000 
    103 O         -7.6026  -22.4473  -56.2329 O.2       18 UNK        -0.5000 
    104 N         -7.1283  -23.7255  -54.4249 N.am      19 UNK        -0.5000 
    105 CA        -6.8171  -24.9513  -55.1677 C.3       19 UNK         0.1400 
    106 CB        -6.9717  -26.1647  -54.2371 C.3       19 UNK        -0.1800 
    107 C         -5.4060  -24.9180  -55.7819 C.2       19 UNK         0.5000 
    108 O         -5.1753  -25.5431  -56.8178 O.2       19 UNK        -0.5000 
    109 N         -4.5012  -24.1776  -55.1360 N.am      20 UNK        -0.5000 
    110 CA        -3.1240  -23.9189  -55.5336 C.3       20 UNK         0.1400 
    111 CB        -2.2546  -25.1834  -55.3490 C.3       20 UNK        -0.1800 
    112 C         -2.6228  -22.7162  -54.7136 C.2       20 UNK         0.5000 
    113 O         -3.4376  -21.9904  -54.1309 O.2       20 UNK        -0.5000 
    114 N         -1.2962  -22.5327  -54.6655 N.am      21 UNK        -0.5000 
    115 CA        -0.5883  -21.4764  -53.9376 C.3       21 UNK         0.1400 
    116 CB        -0.7405  -21.6827  -52.4116 C.3       21 UNK        -0.1800 
    117 C         -1.0124  -20.0792  -54.4370 C.2       21 UNK         0.5000 
    118 O         -0.8724  -19.8014  -55.6297 O.2       21 UNK        -0.5000 
    119 N         -1.5365  -19.2430  -53.5360 N.am      22 UNK        -0.5000 
    120 CA        -2.1395  -17.9383  -53.8398 C.3       22 UNK         0.1400 
    121 C         -3.5891  -18.0093  -54.4111 C.2       22 UNK         0.5000 
    122 N         -4.2093  -19.1765  -54.5452 N.am      22 UNK        -0.7600 
    123 O         -4.1584  -16.9795  -54.7626 O.2       22 UNK        -0.5000 
    124 C124       -2.0230  -16.9691  -52.6343 C.3       23 UNK        -0.0398 
    125 S125       -2.7554  -17.6178  -51.0912 S.3       23 UNK        -0.2404 
    126 C126       -1.9090  -16.5825  -49.8466 C.3       23 UNK        -0.0205 
    127 H127        2.1718  -10.3003  -52.4721 H         1 UNK         0.0600 
    128 H128        2.2433   -8.5636  -52.1604 H         1 UNK         0.0600 
    129 H129        0.6802   -9.3838  -52.2415 H         1 UNK         0.0600 
    130 H130        2.6620  -11.5370  -50.6796 H         1 UNK         0.3000 
    131 H131        2.6932  -10.4579  -48.0000 H         1 UNK         0.0600 
    132 H132        4.4615  -11.9861  -48.6750 H         1 UNK         0.0800 
    133 H133        3.5751  -12.6750  -47.3581 H         1 UNK         0.0800 
    134 H134        3.4190  -15.4899  -47.6190 H         1 UNK         0.0800 
    135 H135        1.9970  -14.4939  -47.4495 H         1 UNK         0.0800 
    136 H136       -0.0279  -14.9155  -48.8636 H         1 UNK         0.1150 
    137 H137       -0.4763  -18.9198  -50.3212 H         1 UNK         0.1150 
    138 H138        3.3029  -17.6078  -48.7988 H         1 UNK         0.1150 
    139 H139        1.6510  -20.2039  -50.7815 H         1 UNK         0.0800 
    140 H140        3.1301  -19.7187  -50.0109 H         1 UNK         0.0800 
    141 H141       -0.4430  -21.0744  -49.4417 H         1 UNK         0.0800 
    142 H142       -0.4235  -20.0428  -48.0238 H         1 UNK         0.0800 
    143 H143       -0.2641  -23.0932  -47.9829 H         1 UNK         0.0600 
    144 H144        0.3225  -21.2748  -45.8967 H         1 UNK         0.3000 
    145 H145       -0.6317  -23.3835  -43.1434 H         1 UNK         0.0600 
    146 H146        1.7088  -22.7653  -42.5467 H         1 UNK         0.0600 
    147 H147        1.6716  -24.0109  -43.7852 H         1 UNK         0.0600 
    148 H148        2.0439  -22.3527  -44.2277 H         1 UNK         0.0600 
    149 H149        0.3492  -20.6688  -43.4522 H         1 UNK         0.3000 
    150 H150       -2.8428  -19.1084  -43.2355 H         1 UNK         0.0600 
    151 H151       -2.3384  -19.6906  -40.8559 H         1 UNK         0.0600 
    152 H152       -1.8383  -18.0492  -41.2299 H         1 UNK         0.0600 
    153 H153       -0.6352  -19.3338  -41.1157 H         1 UNK         0.0600 
    154 H154       -0.1917  -18.0607  -43.1937 H         1 UNK         0.3000 
    155 H155        0.3506  -17.8629  -46.6916 H         1 UNK         0.0600 
    156 H156        0.6171  -15.4420  -45.9577 H         1 UNK         0.0600 
    157 H157       -0.4623  -15.7651  -44.6071 H         1 UNK         0.0600 
    158 H158       -1.0496  -15.9056  -46.2577 H         1 UNK         0.0600 
    159 H159        1.9378  -16.9231  -44.5671 H         1 UNK         0.3000 
    160 H160        3.2985  -19.3332  -43.1703 H         1 UNK         0.0600 
    161 H161        4.6758  -19.7657  -45.8645 H         1 UNK         0.0600 
    162 H162        4.0877  -20.9983  -44.7639 H         1 UNK         0.0600 
    163 H163        5.4494  -19.9957  -44.2951 H         1 UNK         0.0600 
    164 H164        4.1638  -17.3436  -43.0271 H         1 UNK         0.3000 
    165 H165        6.3896  -15.5893  -44.5683 H         1 UNK         0.0600 
    166 H166        3.6961  -14.2883  -45.2312 H         1 UNK         0.0600 
    167 H167        5.1689  -13.3951  -44.8567 H         1 UNK         0.0600 
    168 H168        5.1043  -14.4162  -46.2807 H         1 UNK         0.0600 
    169 H169        4.0714  -14.9792  -42.8105 H         1 UNK         0.3000 
    170 H170        5.6574  -16.1739  -39.9294 H         1 UNK         0.0600 
    171 H171        6.7781  -13.9386  -39.9820 H         1 UNK         0.0600 
    172 H172        5.2963  -13.1943  -40.5707 H         1 UNK         0.0600 
    173 H173        5.3525  -13.9062  -38.9572 H         1 UNK         0.0600 
    174 H174        3.2954  -14.6066  -40.3146 H         1 UNK         0.3000 
    175 H175        1.1636  -17.1150  -41.5762 H         1 UNK         0.0600 
    176 H176        1.1999  -15.9722  -38.7316 H         1 UNK         0.0600 
    177 H177       -0.2085  -16.6272  -39.5680 H         1 UNK         0.0600 
    178 H178        1.1315  -17.6809  -39.1473 H         1 UNK         0.0600 
    179 H179        0.6824  -14.4625  -40.6331 H         1 UNK         0.3000 
    180 H180        0.1898  -12.8483  -42.1317 H         1 UNK         0.0600 
    181 H181        3.1048  -12.4030  -43.0215 H         1 UNK         0.0600 
    182 H182        2.5169  -12.3035  -41.3649 H         1 UNK         0.0600 
    183 H183        1.9758  -11.1327  -42.5556 H         1 UNK         0.0600 
    184 H184        1.1573  -13.5281  -44.8164 H         1 UNK         0.3000 
    185 H185       -0.7523  -13.0236  -46.4362 H         1 UNK         0.0600 
    186 H186       -1.8405  -11.1092  -47.5957 H         1 UNK         0.0600 
    187 H187       -2.5458  -11.3044  -46.0047 H         1 UNK         0.0600 
    188 H188       -1.3787  -10.0178  -46.2925 H         1 UNK         0.0600 
    189 H189        1.4725  -11.2277  -46.1925 H         1 UNK         0.3000 
    190 H190       -2.3665  -20.6369  -46.3869 H         1 UNK         0.3000 
    191 H191       -4.6967  -21.1580  -47.8981 H         1 UNK         0.0600 
    192 H192       -4.3872  -19.1054  -46.5571 H         1 UNK         0.0600 
    193 H193       -4.3927  -20.0427  -45.0631 H         1 UNK         0.0600 
    194 H194       -5.8486  -19.9360  -46.0476 H         1 UNK         0.0600 
    195 H195       -3.4366  -22.7895  -44.9780 H         1 UNK         0.3000 
    196 H196       -5.7865  -24.4177  -44.5591 H         1 UNK         0.0600 
    197 H197       -4.2860  -25.6933  -43.0344 H         1 UNK         0.0600 
    198 H198       -4.1807  -23.9652  -42.7348 H         1 UNK         0.0600 
    199 H199       -2.8953  -24.7866  -43.6152 H         1 UNK         0.0600 
    200 H200       -2.6453  -24.9363  -46.2240 H         1 UNK         0.3000 
    201 H201       -3.1389  -27.6649  -46.8843 H         1 UNK         0.0600 
    202 H202       -0.8679  -26.7363  -46.6278 H         1 UNK         0.0600 
    203 H203       -1.1115  -25.6594  -48.0010 H         1 UNK         0.0600 
    204 H204       -1.0551  -27.4024  -48.2431 H         1 UNK         0.0600 
    205 H205       -3.3864  -24.6637  -48.8590 H         1 UNK         0.3000 
    206 H206       -4.4112  -26.2584  -51.1811 H         1 UNK         0.0600 
    207 H207       -2.1608  -25.1829  -51.4391 H         1 UNK         0.0600 
    208 H208       -3.3523  -24.4972  -52.5280 H         1 UNK         0.0600 
    209 H209       -2.8768  -23.6095  -51.0897 H         1 UNK         0.0600 
    210 H210       -5.8118  -24.6540  -48.8077 H         1 UNK         0.3000 
    211 H211       -7.7350  -23.5982  -48.4479 H         1 UNK         0.0600 
    212 H212       -8.4539  -24.1319  -51.3723 H         1 UNK         0.0600 
    213 H213       -9.5627  -23.7822  -50.0578 H         1 UNK         0.0600 
    214 H214       -8.6559  -25.2845  -50.0536 H         1 UNK         0.0600 
    215 H215       -5.4289  -22.2244  -50.2580 H         1 UNK         0.3000 
    216 H216       -4.8573  -20.3203  -51.2257 H         1 UNK         0.0600 
    217 H217       -5.4800  -19.1973  -49.0878 H         1 UNK         0.0600 
    218 H218       -7.1322  -18.9806  -49.6648 H         1 UNK         0.0600 
    219 H219       -5.7996  -18.1601  -50.4636 H         1 UNK         0.0600 
    220 H220       -6.5201  -22.1510  -52.6056 H         1 UNK         0.3000 
    221 H221       -7.6434  -20.4812  -54.7254 H         1 UNK         0.0600 
    222 H222       -9.4830  -22.2371  -53.0073 H         1 UNK         0.0600 
    223 H223       -9.5568  -20.4830  -53.1506 H         1 UNK         0.0600 
    224 H224       -9.9443  -21.4911  -54.5340 H         1 UNK         0.0600 
    225 H225       -7.0010  -23.7770  -53.4198 H         1 UNK         0.3000 
    226 H226       -7.5352  -25.0612  -55.9833 H         1 UNK         0.0600 
    227 H227       -7.9619  -26.1916  -53.7821 H         1 UNK         0.0600 
    228 H228       -6.8421  -27.0956  -54.7904 H         1 UNK         0.0600 
    229 H229       -6.2330  -26.1586  -53.4356 H         1 UNK         0.0600 
    230 H230       -4.7956  -23.6494  -54.3232 H         1 UNK         0.3000 
    231 H231       -3.1159  -23.6250  -56.5848 H         1 UNK         0.0600 
    232 H232       -1.2445  -25.0320  -55.7301 H         1 UNK         0.0600 
    233 H233       -2.6651  -26.0346  -55.8915 H         1 UNK         0.0600 
    234 H234       -2.1720  -25.4706  -54.3009 H         1 UNK         0.0600 
    235 H235       -0.7089  -23.1576  -55.1988 H         1 UNK         0.3000 
    236 H236        0.4698  -21.5801  -54.1819 H         1 UNK         0.0600 
    237 H237       -0.3741  -22.6647  -52.1121 H         1 UNK         0.0600 
    238 H238       -0.1620  -20.9442  -51.8611 H         1 UNK         0.0600 
    239 H239       -1.7761  -21.6040  -52.0796 H         1 UNK         0.0600 
    240 H240       -1.6510  -19.5598  -52.5852 H         1 UNK         0.3000 
    241 H241       -1.5513  -17.4920  -54.6438 H         1 UNK         0.0600 
    242 H242       -3.7649  -20.0540  -54.2957 H         1 UNK         0.3800 
    243 H243       -5.1445  -19.1831  -54.9165 H         1 UNK         0.3800 
    244 H244       -0.9679  -16.7594  -52.4540 H         1 UNK         0.0800 
    245 H245       -2.4781  -16.0039  -52.8622 H         1 UNK         0.0800 
    246 H246       -2.4207  -16.7147  -48.8925 H         1 UNK         0.0800 
    247 H247       -2.0390  -15.5348  -50.1228 H         1 UNK         0.0800 
@<TRIPOS>BOND
     1    1    2 1    
     2    1  127 1    
     3    1  128 1    
     4    1  129 1    
     5    2    3 2    
     6    2    4 am   BACKBONE|DICT|INTERRES
     7    4    5 1    
     8    4  130 1    
     9    5    6 1    
    10    5   65 1    
    11    5  131 1    
    12    6    7 1    
    13    6  132 1    
    14    6  133 1    
    15    7    8 1    
    16    8    9 1    
    17    8  134 1    
    18    8  135 1    
    19    9   10 ar   
    20    9   14 ar   
    21   10   11 ar   
    22   10  136 1    
    23   11   12 ar   
    24   11  126 1    
    25   12   13 ar   
    26   12  137 1    
    27   13   14 ar   
    28   13   15 1    
    29   14  138 1    
    30   15   16 1    
    31   15  139 1    
    32   15  140 1    
    33   16   17 1    
    34   17   18 1    
    35   17  141 1    
    36   17  142 1    
    37   18   19 1    
    38   18   67 1    
    39   18  143 1    
    40   19   20 am   BACKBONE|DICT|INTERRES
    41   19  144 1    
    42   20   21 2    
    43   20   22 1    
    44   22   23 1    
    45   22   24 1    
    46   22  145 1    
    47   23  146 1    
    48   23  147 1    
    49   23  148 1    
    50   24   25 am   BACKBONE|DICT|INTERRES
    51   24  149 1    
    52   25   26 2    
    53   25   27 1    
    54   27   28 1    
    55   27   29 1    
    56   27  150 1    
    57   28  151 1    
    58   28  152 1    
    59   28  153 1    
    60   29   30 am   BACKBONE|DICT|INTERRES
    61   29  154 1    
    62   30   31 2    
    63   30   32 1    
    64   32   33 1    
    65   32   34 1    
    66   32  155 1    
    67   33  156 1    
    68   33  157 1    
    69   33  158 1    
    70   34   35 am   BACKBONE|DICT|INTERRES
    71   34  159 1    
    72   35   36 2    
    73   35   37 1    
    74   37   38 1    
    75   37   39 1    
    76   37  160 1    
    77   38  161 1    
    78   38  162 1    
    79   38  163 1    
    80   39   40 am   BACKBONE|DICT|INTERRES
    81   39  164 1    
    82   40   41 2    
    83   40   42 1    
    84   42   43 1    
    85   42   44 1    
    86   42  165 1    
    87   43  166 1    
    88   43  167 1    
    89   43  168 1    
    90   44   45 am   BACKBONE|DICT|INTERRES
    91   44  169 1    
    92   45   46 2    
    93   45   47 1    
    94   47   48 1    
    95   47   49 1    
    96   47  170 1    
    97   48  171 1    
    98   48  172 1    
    99   48  173 1    
   100   49   50 am   BACKBONE|DICT|INTERRES
   101   49  174 1    
   102   50   51 2    
   103   50   52 1    
   104   52   53 1    
   105   52   54 1    
   106   52  175 1    
   107   53  176 1    
   108   53  177 1    
   109   53  178 1    
   110   54   55 am   BACKBONE|DICT|INTERRES
   111   54  179 1    
   112   55   56 2    
   113   55   57 1    
   114   57   58 1    
   115   57   59 1    
   116   57  180 1    
   117   58  181 1    
   118   58  182 1    
   119   58  183 1    
   120   59   60 am   BACKBONE|DICT|INTERRES
   121   59  184 1    
   122   60   61 2    
   123   60   62 1    
   124   62   63 1    
   125   62   64 1    
   126   62  185 1    
   127   63  186 1    
   128   63  187 1    
   129   63  188 1    
   130   64   65 am   BACKBONE|DICT|INTERRES
   131   64  189 1    
   132   65   66 2    
   133   67   68 2    
   134   67   69 am   BACKBONE|DICT|INTERRES
   135   69   70 1    
   136   69  190 1    
   137   70   71 1    
   138   70   72 1    
   139   70  191 1    
   140   71  192 1    
   141   71  193 1    
   142   71  194 1    
   143   72   73 2    
   144   72   74 am   BACKBONE|DICT|INTERRES
   145   74   75 1    
   146   74  195 1    
   147   75   76 1    
   148   75   77 1    
   149   75  196 1    
   150   76  197 1    
   151   76  198 1    
   152   76  199 1    
   153   77   78 2    
   154   77   79 am   BACKBONE|DICT|INTERRES
   155   79   80 1    
   156   79  200 1    
   157   80   81 1    
   158   80   82 1    
   159   80  201 1    
   160   81  202 1    
   161   81  203 1    
   162   81  204 1    
   163   82   83 2    
   164   82   84 am   BACKBONE|DICT|INTERRES
   165   84   85 1    
   166   84  205 1    
   167   85   86 1    
   168   85   87 1    
   169   85  206 1    
   170   86  207 1    
   171   86  208 1    
   172   86  209 1    
   173   87   88 2    
   174   87   89 am   BACKBONE|DICT|INTERRES
   175   89   90 1    
   176   89  210 1    
   177   90   91 1    
   178   90   92 1    
   179   90  211 1    
   180   91  212 1    
   181   91  213 1    
   182   91  214 1    
   183   92   93 2    
   184   92   94 am   BACKBONE|DICT|INTERRES
   185   94   95 1    
   186   94  215 1    
   187   95   96 1    
   188   95   97 1    
   189   95  216 1    
   190   96  217 1    
   191   96  218 1    
   192   96  219 1    
   193   97   98 2    
   194   97   99 am   BACKBONE|DICT|INTERRES
   195   99  100 1    
   196   99  220 1    
   197  100  101 1    
   198  100  102 1    
   199  100  221 1    
   200  101  222 1    
   201  101  223 1    
   202  101  224 1    
   203  102  103 2    
   204  102  104 am   BACKBONE|DICT|INTERRES
   205  104  105 1    
   206  104  225 1    
   207  105  106 1    
   208  105  107 1    
   209  105  226 1    
   210  106  227 1    
   211  106  228 1    
   212  106  229 1    
   213  107  108 2    
   214  107  109 am   BACKBONE|DICT|INTERRES
   215  109  110 1    
   216  109  230 1    
   217  110  111 1    
   218  110  112 1    
   219  110  231 1    
   220  111  232 1    
   221  111  233 1    
   222  111  234 1    
   223  112  113 2    
   224  112  114 am   BACKBONE|DICT|INTERRES
   225  114  115 1    
   226  114  235 1    
   227  115  116 1    
   228  115  117 1    
   229  115  236 1    
   230  116  237 1    
   231  116  238 1    
   232  116  239 1    
   233  117  118 2    
   234  117  119 am   BACKBONE|DICT|INTERRES
   235  119  120 1    
   236  119  240 1    
   237  120  121 1    
   238  120  124 1    
   239  120  241 1    
   240  121  122 am   BACKBONE|DICT|INTERRES
   241  121  123 2    
   242  122  242 1    
   243  122  243 1    
   244  124  125 1    
   245  124  244 1    
   246  124  245 1    
   247  125  126 1    
   248  126  246 1    
   249  126  247 1    
@<TRIPOS>SUBSTRUCTURE
     1 UNK         1 GROUP             0       ****    0 ROOT    
