@<TRIPOS>MOLECULE
3R540
247   249    1
SMALL
USER_CHARGES


@<TRIPOS>ATOM
      1 CA         -0.7448  -10.2346  -47.2428 C.3       0 UNK        -0.1800 
      2 C          -0.1466  -11.4617  -46.5712 C.2       0 UNK         0.5000 
      3 O          -0.2093  -11.5793  -45.3475 O.2       0 UNK        -0.5000 
      4 N           0.4107  -12.3851  -47.3676 N.am      1 UNK        -0.5000 
      5 CA          1.0618  -13.6275  -46.9234 C.3       1 UNK         0.1400 
      6 C6          1.6950  -14.4105  -48.1062 C.3       23 UNK        -0.0398 
      7 S7          0.5206  -14.8366  -49.4418 S.3       23 UNK        -0.2404 
      8 C8          0.0682  -16.5477  -49.0081 C.3       23 UNK        -0.0205 
      9 C9          0.8219  -17.5769  -49.8350 C.ar      23 UNK        -0.0193 
     10 C10         0.4514  -17.7969  -51.1639 C.ar      23 UNK        -0.1150 
     11 C11         1.1046  -18.7617  -51.9341 C.ar      23 UNK        -0.0193 
     12 C12         2.1317  -19.5166  -51.3635 C.ar      23 UNK        -0.1150 
     13 C13         2.5128  -19.3091  -50.0346 C.ar      23 UNK        -0.0193 
     14 C14         1.8574  -18.3328  -49.2742 C.ar      23 UNK        -0.1150 
     15 C15         3.6477  -20.1335  -49.4435 C.3       23 UNK        -0.0205 
     16 S16         3.0796  -21.7603  -48.8489 S.3       23 UNK        -0.2404 
     17 C17         2.4836  -21.3268  -47.1833 C.3       23 UNK        -0.0398 
     18 CA          1.2418  -22.1223  -46.7164 C.3       11 UNK         0.1400 
     19 N           1.0430  -21.9813  -45.2704 N.am      11 UNK        -0.5000 
     20 C           0.1442  -22.6536  -44.5384 C.2       10 UNK         0.5000 
     21 O          -0.5794  -23.5387  -44.9911 O.2       10 UNK        -0.5000 
     22 CA         -0.0119  -22.2297  -43.0654 C.3       10 UNK         0.1400 
     23 CB          1.0402  -22.9139  -42.1807 C.3       10 UNK        -0.1800 
     24 N           0.0585  -20.7775  -42.8906 N.am      10 UNK        -0.5000 
     25 C          -0.8333  -19.9120  -43.3957 C.2       9 UNK         0.5000 
     26 O          -1.8524  -20.2588  -43.9920 O.2       9 UNK        -0.5000 
     27 CA         -0.5000  -18.4136  -43.2732 C.3       9 UNK         0.1400 
     28 CB         -0.8799  -17.8654  -41.8907 C.3       9 UNK        -0.1800 
     29 N           0.9110  -18.1423  -43.5406 N.am      9 UNK        -0.5000 
     30 C           1.5111  -18.3251  -44.7241 C.2       8 UNK         0.5000 
     31 O           0.9141  -18.6747  -45.7416 O.2       8 UNK        -0.5000 
     32 CA          3.0430  -18.1663  -44.7621 C.3       8 UNK         0.1400 
     33 CB          3.4632  -16.7138  -45.0159 C.3       8 UNK        -0.1800 
     34 N           3.6714  -18.6440  -43.5318 N.am      8 UNK        -0.5000 
     35 C           3.8048  -19.9363  -43.2073 C.2       7 UNK         0.5000 
     36 O           3.4372  -20.8596  -43.9325 O.2       7 UNK        -0.5000 
     37 CA          4.4191  -20.2452  -41.8292 C.3       7 UNK         0.1400 
     38 CB          5.9528  -20.2469  -41.9095 C.3       7 UNK        -0.1800 
     39 N           3.9886  -19.3005  -40.7966 N.am      7 UNK        -0.5000 
     40 C           2.7366  -19.2205  -40.3248 C.2       6 UNK         0.5000 
     41 O           1.8252  -19.9657  -40.6834 O.2       6 UNK        -0.5000 
     42 CA          2.4415  -18.0836  -39.3256 C.3       6 UNK         0.1400 
     43 CB          2.7681  -18.5283  -37.8924 C.3       6 UNK        -0.1800 
     44 N           3.1483  -16.8303  -39.6196 N.am      6 UNK        -0.5000 
     45 C           3.0453  -16.1475  -40.7677 C.2       5 UNK         0.5000 
     46 O           2.3621  -16.5291  -41.7173 O.2       5 UNK        -0.5000 
     47 CA          3.8479  -14.8352  -40.8752 C.3       5 UNK         0.1400 
     48 CB          5.3573  -15.1214  -40.7965 C.3       5 UNK        -0.1800 
     49 N           3.5913  -14.1217  -42.1320 N.am      5 UNK        -0.5000 
     50 C           2.4975  -13.4382  -42.5019 C.2       4 UNK         0.5000 
     51 O           2.4117  -12.9392  -43.6244 O.2       4 UNK        -0.5000 
     52 CA          1.3530  -13.1992  -41.4987 C.3       4 UNK         0.1400 
     53 CB          1.6412  -11.9514  -40.6400 C.3       4 UNK        -0.1800 
     54 N           0.1030  -13.0177  -42.2323 N.am      4 UNK        -0.5000 
     55 C          -1.1222  -13.1005  -41.6997 C.2       3 UNK         0.5000 
     56 O          -1.3358  -13.3629  -40.5153 O.2       3 UNK        -0.5000 
     57 CA         -2.3130  -12.8500  -42.6392 C.3       3 UNK         0.1400 
     58 CB         -2.5525  -11.3434  -42.8263 C.3       3 UNK        -0.1800 
     59 N          -2.1221  -13.4830  -43.9430 N.am      3 UNK        -0.5000 
     60 C          -2.4433  -14.7577  -44.2099 C.2       2 UNK         0.5000 
     61 O          -2.9518  -15.5180  -43.3860 O.2       2 UNK        -0.5000 
     62 CA         -2.1753  -15.2794  -45.6360 C.3       2 UNK         0.1400 
     63 CB         -3.4691  -15.2930  -46.4637 C.3       2 UNK        -0.1800 
     64 N          -1.1619  -14.5152  -46.3586 N.am      2 UNK        -0.5000 
     65 C           0.1464  -14.5343  -46.0712 C.2       1 UNK         0.5000 
     66 O           0.6295  -15.2130  -45.1693 O.2       1 UNK        -0.5000 
     67 C          -0.0340  -21.7504  -47.5060 C.2       11 UNK         0.5000 
     68 O          -0.4562  -22.5184  -48.3708 O.2       11 UNK        -0.5000 
     69 N          -0.6647  -20.6215  -47.1471 N.am      12 UNK        -0.5000 
     70 CA         -1.9430  -20.1724  -47.7020 C.3       12 UNK         0.1400 
     71 CB         -2.2957  -18.7842  -47.1484 C.3       12 UNK        -0.1800 
     72 C          -3.0897  -21.1599  -47.4243 C.2       12 UNK         0.5000 
     73 O          -3.8726  -21.4464  -48.3300 O.2       12 UNK        -0.5000 
     74 N          -3.1536  -21.6811  -46.1909 N.am      13 UNK        -0.5000 
     75 CA         -4.1223  -22.6911  -45.7642 C.3       13 UNK         0.1400 
     76 CB         -4.0351  -22.8880  -44.2437 C.3       13 UNK        -0.1800 
     77 C          -3.9492  -24.0284  -46.5066 C.2       13 UNK         0.5000 
     78 O          -4.9420  -24.5995  -46.9571 O.2       13 UNK        -0.5000 
     79 N          -2.6964  -24.4766  -46.6735 N.am      14 UNK        -0.5000 
     80 CA         -2.3280  -25.6664  -47.4468 C.3       14 UNK         0.1400 
     81 CB         -0.8336  -25.9638  -47.2521 C.3       14 UNK        -0.1800 
     82 C          -2.6691  -25.5402  -48.9446 C.2       14 UNK         0.5000 
     83 O          -3.0615  -26.5287  -49.5648 O.2       14 UNK        -0.5000 
     84 N          -2.5621  -24.3183  -49.4826 N.am      15 UNK        -0.5000 
     85 CA         -2.9784  -23.9493  -50.8364 C.3       15 UNK         0.1400 
     86 CB         -2.2010  -22.6949  -51.2673 C.3       15 UNK        -0.1800 
     87 C          -4.5018  -23.7315  -50.9798 C.2       15 UNK         0.5000 
     88 O          -4.9498  -23.4043  -52.0779 O.2       15 UNK        -0.5000 
     89 N          -5.2663  -23.9003  -49.8885 N.am      16 UNK        -0.5000 
     90 CA         -6.7197  -23.7358  -49.7784 C.3       16 UNK         0.1400 
     91 CB         -7.4599  -24.7893  -50.6295 C.3       16 UNK        -0.1800 
     92 C          -7.1752  -22.2895  -50.0591 C.2       16 UNK         0.5000 
     93 O          -8.1423  -22.0742  -50.7914 O.2       16 UNK        -0.5000 
     94 N          -6.4506  -21.3269  -49.4677 N.am      17 UNK        -0.5000 
     95 CA         -6.5810  -19.8773  -49.6460 C.3       17 UNK         0.1400 
     96 CB         -7.9520  -19.3643  -49.1575 C.3       17 UNK        -0.1800 
     97 C          -6.2433  -19.4647  -51.0911 C.2       17 UNK         0.5000 
     98 O          -7.0051  -18.7397  -51.7334 O.2       17 UNK        -0.5000 
     99 N          -5.1118  -19.9895  -51.5829 N.am      18 UNK        -0.5000 
    100 CA        -4.5293  -19.8595  -52.9249 C.3       18 UNK         0.1400 
    101 CB        -4.2423  -18.3871  -53.2784 C.3       18 UNK        -0.1800 
    102 C         -5.3201  -20.5656  -54.0443 C.2       18 UNK         0.5000 
    103 O         -4.7020  -21.1491  -54.9356 O.2       18 UNK        -0.5000 
    104 N         -6.6582  -20.4912  -53.9950 N.am      19 UNK        -0.5000 
    105 CA        -7.6423  -21.1963  -54.8304 C.3       19 UNK         0.1400 
    106 CB        -7.6168  -22.7018  -54.4954 C.3       19 UNK        -0.1800 
    107 C         -7.5174  -20.9501  -56.3522 C.2       19 UNK         0.5000 
    108 O         -8.0649  -21.7254  -57.1379 O.2       19 UNK        -0.5000 
    109 N         -6.7825  -19.8960  -56.7408 N.am      20 UNK        -0.5000 
    110 CA        -6.3343  -19.5750  -58.1020 C.3       20 UNK         0.1400 
    111 CB        -7.5280  -19.1795  -58.9964 C.3       20 UNK        -0.1800 
    112 C         -5.4491  -20.6795  -58.7298 C.2       20 UNK         0.5000 
    113 O         -5.4174  -20.8184  -59.9540 O.2       20 UNK        -0.5000 
    114 N         -4.7441  -21.4443  -57.8846 N.am      21 UNK        -0.5000 
    115 CA        -3.9170  -22.5908  -58.2626 C.3       21 UNK         0.1400 
    116 CB        -4.7780  -23.8684  -58.2433 C.3       21 UNK        -0.1800 
    117 C         -2.6786  -22.6870  -57.3515 C.2       21 UNK         0.5000 
    118 O         -2.2208  -23.7875  -57.0389 O.2       21 UNK        -0.5000 
    119 N         -2.1677  -21.5248  -56.9269 N.am      22 UNK        -0.5000 
    120 CA        -1.0558  -21.3815  -55.9728 C.3       22 UNK         0.1400 
    121 C          0.3619  -21.6407  -56.5672 C.2       22 UNK         0.5000 
    122 N          0.5172  -21.7871  -57.8776 N.am      22 UNK        -0.7600 
    123 O          1.3395  -21.7189  -55.8291 O.2       22 UNK        -0.5000 
    124 C124       -1.1402  -20.0118  -55.2467 C.3       23 UNK        -0.0398 
    125 S125       -0.7239  -20.1143  -53.4753 S.3       23 UNK        -0.2404 
    126 C126        0.6944  -18.9860  -53.3791 C.3       23 UNK        -0.0205 
    127 H127       -0.2500   -9.3327  -46.8828 H         1 UNK         0.0600 
    128 H128       -1.8065  -10.1591  -47.0075 H         1 UNK         0.0600 
    129 H129       -0.6378  -10.2723  -48.3272 H         1 UNK         0.0600 
    130 H130        0.4064  -12.2387  -48.3673 H         1 UNK         0.3000 
    131 H131        1.8796  -13.3243  -46.2667 H         1 UNK         0.0600 
    132 H132        2.1936  -15.3154  -47.7599 H         1 UNK         0.0800 
    133 H133        2.4849  -13.8037  -48.5505 H         1 UNK         0.0800 
    134 H134       -1.0025  -16.6729  -49.1757 H         1 UNK         0.0800 
    135 H135        0.2319  -16.7257  -47.9450 H         1 UNK         0.0800 
    136 H136       -0.3517  -17.2183  -51.5987 H         1 UNK         0.1150 
    137 H137        2.6340  -20.2702  -51.9540 H         1 UNK         0.1150 
    138 H138        2.1447  -18.1656  -48.2459 H         1 UNK         0.1150 
    139 H139        4.4121  -20.2911  -50.2059 H         1 UNK         0.0800 
    140 H140        4.1402  -19.5900  -48.6356 H         1 UNK         0.0800 
    141 H141        2.2897  -20.2581  -47.1364 H         1 UNK         0.0800 
    142 H142        3.3152  -21.5097  -46.5021 H         1 UNK         0.0800 
    143 H143        1.4370  -23.1811  -46.8989 H         1 UNK         0.0600 
    144 H144        1.6451  -21.3176  -44.7962 H         1 UNK         0.3000 
    145 H145       -0.9976  -22.5570  -42.7290 H         1 UNK         0.0600 
    146 H146        0.8908  -22.6672  -41.1294 H         1 UNK         0.0600 
    147 H147        0.9799  -23.9991  -42.2724 H         1 UNK         0.0600 
    148 H148        2.0531  -22.6178  -42.4521 H         1 UNK         0.0600 
    149 H149        0.8379  -20.4185  -42.3482 H         1 UNK         0.3000 
    150 H150       -1.0887  -17.8811  -44.0208 H         1 UNK         0.0600 
    151 H151       -1.9464  -17.9944  -41.7027 H         1 UNK         0.0600 
    152 H152       -0.6645  -16.7986  -41.8188 H         1 UNK         0.0600 
    153 H153       -0.3407  -18.3721  -41.0911 H         1 UNK         0.0600 
    154 H154        1.4611  -17.7588  -42.7765 H         1 UNK         0.3000 
    155 H155        3.4197  -18.7669  -45.5921 H         1 UNK         0.0600 
    156 H156        3.0794  -16.0415  -44.2493 H         1 UNK         0.0600 
    157 H157        3.0804  -16.3680  -45.9739 H         1 UNK         0.0600 
    158 H158        4.5480  -16.6117  -45.0434 H         1 UNK         0.0600 
    159 H159        3.9256  -17.9420  -42.8529 H         1 UNK         0.3000 
    160 H160        4.0918  -21.2450  -41.5358 H         1 UNK         0.0600 
    161 H161        6.3969  -20.5385  -40.9576 H         1 UNK         0.0600 
    162 H162        6.3449  -19.2647  -42.1766 H         1 UNK         0.0600 
    163 H163        6.3029  -20.9559  -42.6610 H         1 UNK         0.0600 
    164 H164        4.6794  -18.6524  -40.4482 H         1 UNK         0.3000 
    165 H165        1.3713  -17.8743  -39.3786 H         1 UNK         0.0600 
    166 H166        2.4667  -17.7731  -37.1663 H         1 UNK         0.0600 
    167 H167        2.2401  -19.4488  -37.6392 H         1 UNK         0.0600 
    168 H168        3.8347  -18.7149  -37.7612 H         1 UNK         0.0600 
    169 H169        3.7293  -16.4624  -38.8799 H         1 UNK         0.3000 
    170 H170        3.5722  -14.1967  -40.0350 H         1 UNK         0.0600 
    171 H171        5.6293  -15.5860  -39.8482 H         1 UNK         0.0600 
    172 H172        5.6833  -15.7893  -41.5952 H         1 UNK         0.0600 
    173 H173        5.9362  -14.2008  -40.8755 H         1 UNK         0.0600 
    174 H174        4.3093  -14.2367  -42.8301 H         1 UNK         0.3000 
    175 H175        1.2367  -14.0681  -40.8522 H         1 UNK         0.0600 
    176 H176        1.6812  -11.0490  -41.2515 H         1 UNK         0.0600 
    177 H177        0.8762  -11.8039  -39.8779 H         1 UNK         0.0600 
    178 H178        2.5967  -12.0355  -40.1222 H         1 UNK         0.0600 
    179 H179        0.2183  -12.8215  -43.2210 H         1 UNK         0.3000 
    180 H180       -3.2052  -13.2661  -42.1660 H         1 UNK         0.0600 
    181 H181       -1.6872  -10.8441  -43.2625 H         1 UNK         0.0600 
    182 H182       -2.7577  -10.8619  -41.8694 H         1 UNK         0.0600 
    183 H183       -3.4092  -11.1574  -43.4742 H         1 UNK         0.0600 
    184 H184       -1.6508  -12.9306  -44.6501 H         1 UNK         0.3000 
    185 H185       -1.8204  -16.3068  -45.5471 H         1 UNK         0.0600 
    186 H186       -4.2357  -15.8991  -45.9792 H         1 UNK         0.0600 
    187 H187       -3.8752  -14.2889  -46.5915 H         1 UNK         0.0600 
    188 H188       -3.2999  -15.7165  -47.4539 H         1 UNK         0.0600 
    189 H189       -1.4803  -13.9251  -47.1133 H         1 UNK         0.3000 
    190 H190       -0.2271  -20.0149  -46.4585 H         1 UNK         0.3000 
    191 H191       -1.8185  -20.0891  -48.7837 H         1 UNK         0.0600 
    192 H192       -2.5535  -18.8192  -46.0902 H         1 UNK         0.0600 
    193 H193       -3.1491  -18.3602  -47.6785 H         1 UNK         0.0600 
    194 H194       -1.4641  -18.0931  -47.2562 H         1 UNK         0.0600 
    195 H195       -2.5055  -21.3424  -45.4855 H         1 UNK         0.3000 
    196 H196       -5.1189  -22.3105  -45.9971 H         1 UNK         0.0600 
    197 H197       -4.7841  -23.6024  -43.8999 H         1 UNK         0.0600 
    198 H198       -4.2108  -21.9513  -43.7144 H         1 UNK         0.0600 
    199 H199       -3.0591  -23.2652  -43.9398 H         1 UNK         0.0600 
    200 H200       -1.9334  -23.9737  -46.2261 H         1 UNK         0.3000 
    201 H201       -2.8967  -26.5095  -47.0493 H         1 UNK         0.0600 
    202 H202       -0.5996  -26.1335  -46.2010 H         1 UNK         0.0600 
    203 H203       -0.2103  -25.1416  -47.6044 H         1 UNK         0.0600 
    204 H204       -0.5381  -26.8592  -47.8002 H         1 UNK         0.0600 
    205 H205       -2.1643  -23.5756  -48.9170 H         1 UNK         0.3000 
    206 H206       -2.7065  -24.7598  -51.5154 H         1 UNK         0.0600 
    207 H207       -2.4149  -22.4424  -52.3063 H         1 UNK         0.0600 
    208 H208       -2.4563  -21.8293  -50.6562 H         1 UNK         0.0600 
    209 H209       -1.1246  -22.8498  -51.1905 H         1 UNK         0.0600 
    210 H210       -4.8031  -24.1492  -49.0227 H         1 UNK         0.3000 
    211 H211       -6.9691  -23.9305  -48.7347 H         1 UNK         0.0600 
    212 H212       -7.2967  -24.6398  -51.6969 H         1 UNK         0.0600 
    213 H213       -8.5355  -24.7458  -50.4551 H         1 UNK         0.0600 
    214 H214       -7.1317  -25.7979  -50.3785 H         1 UNK         0.0600 
    215 H215       -5.6307  -21.6093  -48.9347 H         1 UNK         0.3000 
    216 H216       -5.8190  -19.4215  -49.0119 H         1 UNK         0.0600 
    217 H217       -7.9851  -18.2744  -49.1738 H         1 UNK         0.0600 
    218 H218       -8.1479  -19.6798  -48.1328 H         1 UNK         0.0600 
    219 H219       -8.7710  -19.7221  -49.7816 H         1 UNK         0.0600 
    220 H220       -4.6129  -20.6211  -50.9724 H         1 UNK         0.3000 
    221 H221       -3.5705  -20.3733  -52.8686 H         1 UNK         0.0600 
    222 H222       -5.1529  -17.7907  -53.3310 H         1 UNK         0.0600 
    223 H223       -3.5821  -17.9294  -52.5416 H         1 UNK         0.0600 
    224 H224       -3.7515  -18.3036  -54.2476 H         1 UNK         0.0600 
    225 H225       -7.0462  -19.9311  -53.2407 H         1 UNK         0.3000 
    226 H226       -8.6191  -20.8073  -54.5404 H         1 UNK         0.0600 
    227 H227       -8.4304  -23.2337  -54.9896 H         1 UNK         0.0600 
    228 H228       -6.6810  -23.1674  -54.8070 H         1 UNK         0.0600 
    229 H229       -7.7285  -22.8671  -53.4241 H         1 UNK         0.0600 
    230 H230       -6.3840  -19.3280  -56.0071 H         1 UNK         0.3000 
    231 H231       -5.6925  -18.6980  -58.0082 H         1 UNK         0.0600 
    232 H232       -8.1315  -18.4022  -58.5277 H         1 UNK         0.0600 
    233 H233       -8.1783  -20.0292  -59.2055 H         1 UNK         0.0600 
    234 H234       -7.1858  -18.7880  -59.9551 H         1 UNK         0.0600 
    235 H235       -4.8149  -21.2739  -56.8833 H         1 UNK         0.3000 
    236 H236       -3.5351  -22.4486  -59.2755 H         1 UNK         0.0600 
    237 H237       -4.2032  -24.7383  -58.5630 H         1 UNK         0.0600 
    238 H238       -5.1628  -24.0728  -57.2433 H         1 UNK         0.0600 
    239 H239       -5.6306  -23.7799  -58.9168 H         1 UNK         0.0600 
    240 H240       -2.5958  -20.6703  -57.2507 H         1 UNK         0.3000 
    241 H241       -1.2026  -22.1642  -55.2255 H         1 UNK         0.0600 
    242 H242        1.4370  -21.9599  -58.2522 H         1 UNK         0.3800 
    243 H243       -0.2747  -21.7324  -58.4978 H         1 UNK         0.3800 
    244 H244       -0.5329  -19.2549  -55.7464 H         1 UNK         0.0800 
    245 H245       -2.1598  -19.6296  -55.2861 H         1 UNK         0.0800 
    246 H246        1.5251  -19.3970  -53.9553 H         1 UNK         0.0800 
    247 H247        0.4366  -18.0305  -53.8386 H         1 UNK         0.0800 
@<TRIPOS>BOND
     1    1    2 1    
     2    1  127 1    
     3    1  128 1    
     4    1  129 1    
     5    2    3 2    
     6    2    4 am   BACKBONE|DICT|INTERRES
     7    4    5 1    
     8    4  130 1    
     9    5    6 1    
    10    5   65 1    
    11    5  131 1    
    12    6    7 1    
    13    6  132 1    
    14    6  133 1    
    15    7    8 1    
    16    8    9 1    
    17    8  134 1    
    18    8  135 1    
    19    9   10 ar   
    20    9   14 ar   
    21   10   11 ar   
    22   10  136 1    
    23   11   12 ar   
    24   11  126 1    
    25   12   13 ar   
    26   12  137 1    
    27   13   14 ar   
    28   13   15 1    
    29   14  138 1    
    30   15   16 1    
    31   15  139 1    
    32   15  140 1    
    33   16   17 1    
    34   17   18 1    
    35   17  141 1    
    36   17  142 1    
    37   18   19 1    
    38   18   67 1    
    39   18  143 1    
    40   19   20 am   BACKBONE|DICT|INTERRES
    41   19  144 1    
    42   20   21 2    
    43   20   22 1    
    44   22   23 1    
    45   22   24 1    
    46   22  145 1    
    47   23  146 1    
    48   23  147 1    
    49   23  148 1    
    50   24   25 am   BACKBONE|DICT|INTERRES
    51   24  149 1    
    52   25   26 2    
    53   25   27 1    
    54   27   28 1    
    55   27   29 1    
    56   27  150 1    
    57   28  151 1    
    58   28  152 1    
    59   28  153 1    
    60   29   30 am   BACKBONE|DICT|INTERRES
    61   29  154 1    
    62   30   31 2    
    63   30   32 1    
    64   32   33 1    
    65   32   34 1    
    66   32  155 1    
    67   33  156 1    
    68   33  157 1    
    69   33  158 1    
    70   34   35 am   BACKBONE|DICT|INTERRES
    71   34  159 1    
    72   35   36 2    
    73   35   37 1    
    74   37   38 1    
    75   37   39 1    
    76   37  160 1    
    77   38  161 1    
    78   38  162 1    
    79   38  163 1    
    80   39   40 am   BACKBONE|DICT|INTERRES
    81   39  164 1    
    82   40   41 2    
    83   40   42 1    
    84   42   43 1    
    85   42   44 1    
    86   42  165 1    
    87   43  166 1    
    88   43  167 1    
    89   43  168 1    
    90   44   45 am   BACKBONE|DICT|INTERRES
    91   44  169 1    
    92   45   46 2    
    93   45   47 1    
    94   47   48 1    
    95   47   49 1    
    96   47  170 1    
    97   48  171 1    
    98   48  172 1    
    99   48  173 1    
   100   49   50 am   BACKBONE|DICT|INTERRES
   101   49  174 1    
   102   50   51 2    
   103   50   52 1    
   104   52   53 1    
   105   52   54 1    
   106   52  175 1    
   107   53  176 1    
   108   53  177 1    
   109   53  178 1    
   110   54   55 am   BACKBONE|DICT|INTERRES
   111   54  179 1    
   112   55   56 2    
   113   55   57 1    
   114   57   58 1    
   115   57   59 1    
   116   57  180 1    
   117   58  181 1    
   118   58  182 1    
   119   58  183 1    
   120   59   60 am   BACKBONE|DICT|INTERRES
   121   59  184 1    
   122   60   61 2    
   123   60   62 1    
   124   62   63 1    
   125   62   64 1    
   126   62  185 1    
   127   63  186 1    
   128   63  187 1    
   129   63  188 1    
   130   64   65 am   BACKBONE|DICT|INTERRES
   131   64  189 1    
   132   65   66 2    
   133   67   68 2    
   134   67   69 am   BACKBONE|DICT|INTERRES
   135   69   70 1    
   136   69  190 1    
   137   70   71 1    
   138   70   72 1    
   139   70  191 1    
   140   71  192 1    
   141   71  193 1    
   142   71  194 1    
   143   72   73 2    
   144   72   74 am   BACKBONE|DICT|INTERRES
   145   74   75 1    
   146   74  195 1    
   147   75   76 1    
   148   75   77 1    
   149   75  196 1    
   150   76  197 1    
   151   76  198 1    
   152   76  199 1    
   153   77   78 2    
   154   77   79 am   BACKBONE|DICT|INTERRES
   155   79   80 1    
   156   79  200 1    
   157   80   81 1    
   158   80   82 1    
   159   80  201 1    
   160   81  202 1    
   161   81  203 1    
   162   81  204 1    
   163   82   83 2    
   164   82   84 am   BACKBONE|DICT|INTERRES
   165   84   85 1    
   166   84  205 1    
   167   85   86 1    
   168   85   87 1    
   169   85  206 1    
   170   86  207 1    
   171   86  208 1    
   172   86  209 1    
   173   87   88 2    
   174   87   89 am   BACKBONE|DICT|INTERRES
   175   89   90 1    
   176   89  210 1    
   177   90   91 1    
   178   90   92 1    
   179   90  211 1    
   180   91  212 1    
   181   91  213 1    
   182   91  214 1    
   183   92   93 2    
   184   92   94 am   BACKBONE|DICT|INTERRES
   185   94   95 1    
   186   94  215 1    
   187   95   96 1    
   188   95   97 1    
   189   95  216 1    
   190   96  217 1    
   191   96  218 1    
   192   96  219 1    
   193   97   98 2    
   194   97   99 am   BACKBONE|DICT|INTERRES
   195   99  100 1    
   196   99  220 1    
   197  100  101 1    
   198  100  102 1    
   199  100  221 1    
   200  101  222 1    
   201  101  223 1    
   202  101  224 1    
   203  102  103 2    
   204  102  104 am   BACKBONE|DICT|INTERRES
   205  104  105 1    
   206  104  225 1    
   207  105  106 1    
   208  105  107 1    
   209  105  226 1    
   210  106  227 1    
   211  106  228 1    
   212  106  229 1    
   213  107  108 2    
   214  107  109 am   BACKBONE|DICT|INTERRES
   215  109  110 1    
   216  109  230 1    
   217  110  111 1    
   218  110  112 1    
   219  110  231 1    
   220  111  232 1    
   221  111  233 1    
   222  111  234 1    
   223  112  113 2    
   224  112  114 am   BACKBONE|DICT|INTERRES
   225  114  115 1    
   226  114  235 1    
   227  115  116 1    
   228  115  117 1    
   229  115  236 1    
   230  116  237 1    
   231  116  238 1    
   232  116  239 1    
   233  117  118 2    
   234  117  119 am   BACKBONE|DICT|INTERRES
   235  119  120 1    
   236  119  240 1    
   237  120  121 1    
   238  120  124 1    
   239  120  241 1    
   240  121  122 am   BACKBONE|DICT|INTERRES
   241  121  123 2    
   242  122  242 1    
   243  122  243 1    
   244  124  125 1    
   245  124  244 1    
   246  124  245 1    
   247  125  126 1    
   248  126  246 1    
   249  126  247 1    
@<TRIPOS>SUBSTRUCTURE
     1 UNK         1 GROUP             0       ****    0 ROOT    
