@<TRIPOS>MOLECULE
3R540
247   249    1
SMALL
USER_CHARGES


@<TRIPOS>ATOM
      1 CA          0.4092  -10.7716  -50.4346 C.3       0 UNK        -0.1800 
      2 C           0.9041  -11.6734  -49.3135 C.2       0 UNK         0.5000 
      3 O           0.9931  -11.2349  -48.1669 O.2       0 UNK        -0.5000 
      4 N           1.2107  -12.9380  -49.6343 N.am      1 UNK        -0.5000 
      5 CA          1.7436  -13.9458  -48.7040 C.3       1 UNK         0.1400 
      6 C6          2.1811  -15.2402  -49.4266 C.3       23 UNK        -0.0398 
      7 S7          3.5075  -14.9652  -50.6481 S.3       23 UNK        -0.2404 
      8 C8          2.6305  -15.1908  -52.2320 C.3       23 UNK        -0.0205 
      9 C9          2.0282  -16.5813  -52.4103 C.ar      23 UNK        -0.0193 
     10 C10         0.7016  -16.7159  -52.8301 C.ar      23 UNK        -0.1150 
     11 C11         0.1468  -17.9806  -53.0448 C.ar      23 UNK        -0.0193 
     12 C12         0.9263  -19.1206  -52.8256 C.ar      23 UNK        -0.1150 
     13 C13         2.2492  -19.0025  -52.3898 C.ar      23 UNK        -0.0193 
     14 C14         2.7960  -17.7304  -52.1947 C.ar      23 UNK        -0.1150 
     15 C15         3.1030  -20.2432  -52.1581 C.3       23 UNK        -0.0205 
     16 S16         2.5108  -21.2826  -50.7805 S.3       23 UNK        -0.2404 
     17 C17         2.5348  -20.1328  -49.3618 C.3       23 UNK        -0.0398 
     18 CA          1.1550  -20.0681  -48.6638 C.3       11 UNK         0.1400 
     19 N           0.7979  -21.3481  -48.0376 N.am      11 UNK        -0.5000 
     20 C          -0.3747  -21.6411  -47.4596 C.2       10 UNK         0.5000 
     21 O          -1.3053  -20.8367  -47.3754 O.2       10 UNK        -0.5000 
     22 CA         -0.5416  -23.0517  -46.8528 C.3       10 UNK         0.1400 
     23 CB          0.7764  -23.8503  -46.7464 C.3       10 UNK        -0.1800 
     24 N          -1.2162  -23.0168  -45.5502 N.am      10 UNK        -0.5000 
     25 C          -0.8437  -22.3114  -44.4711 C.2       9 UNK         0.5000 
     26 O           0.1296  -21.5534  -44.4552 O.2       9 UNK        -0.5000 
     27 CA         -1.7246  -22.4485  -43.2084 C.3       9 UNK         0.1400 
     28 CB         -2.4744  -23.7959  -43.1097 C.3       9 UNK        -0.1800 
     29 N          -0.9762  -22.1730  -41.9784 N.am      9 UNK        -0.5000 
     30 C           0.0801  -22.8478  -41.4958 C.2       8 UNK         0.5000 
     31 O           0.5131  -23.8890  -41.9923 O.2       8 UNK        -0.5000 
     32 CA          0.7907  -22.2665  -40.2540 C.3       8 UNK         0.1400 
     33 CB          2.1929  -21.7602  -40.6300 C.3       8 UNK        -0.1800 
     34 N           0.0501  -21.1726  -39.6218 N.am      8 UNK        -0.5000 
     35 C          -0.9980  -21.3350  -38.7996 C.2       7 UNK         0.5000 
     36 O          -1.3986  -22.4361  -38.4206 O.2       7 UNK        -0.5000 
     37 CA         -1.7461  -20.0631  -38.3406 C.3       7 UNK         0.1400 
     38 CB         -1.2725  -19.6378  -36.9426 C.3       7 UNK        -0.1800 
     39 N          -1.6007  -18.9270  -39.2546 N.am      7 UNK        -0.5000 
     40 C          -1.9899  -18.9100  -40.5370 C.2       6 UNK         0.5000 
     41 O          -2.6149  -19.8294  -41.0642 O.2       6 UNK        -0.5000 
     42 CA         -1.5565  -17.7054  -41.3963 C.3       6 UNK         0.1400 
     43 CB         -2.7337  -16.7476  -41.6297 C.3       6 UNK        -0.1800 
     44 N          -0.4159  -16.9435  -40.8782 N.am      6 UNK        -0.5000 
     45 C           0.8061  -17.4240  -40.6186 C.2       5 UNK         0.5000 
     46 O           1.1027  -18.6149  -40.7239 O.2       5 UNK        -0.5000 
     47 CA          1.8617  -16.3943  -40.1659 C.3       5 UNK         0.1400 
     48 CB          3.1088  -17.0663  -39.5638 C.3       5 UNK        -0.1800 
     49 N           2.2854  -15.5208  -41.2611 N.am      5 UNK        -0.5000 
     50 C           1.5574  -14.5447  -41.8204 C.2       4 UNK         0.5000 
     51 O           0.4197  -14.2557  -41.4395 O.2       4 UNK        -0.5000 
     52 CA          2.2359  -13.7541  -42.9642 C.3       4 UNK         0.1400 
     53 CB          3.1314  -14.6408  -43.8506 C.3       4 UNK        -0.1800 
     54 N           1.2682  -13.0649  -43.8187 N.am      4 UNK        -0.5000 
     55 C           0.6574  -11.9090  -43.5179 C.2       3 UNK         0.5000 
     56 O           0.9002  -11.2620  -42.4972 O.2       3 UNK        -0.5000 
     57 CA         -0.3766  -11.3516  -44.5214 C.3       3 UNK         0.1400 
     58 CB          0.1074  -10.0179  -45.1134 C.3       3 UNK        -0.1800 
     59 N          -0.6780  -12.2681  -45.6217 N.am      3 UNK        -0.5000 
     60 C          -1.4943  -13.3288  -45.5361 C.2       2 UNK         0.5000 
     61 O          -2.1579  -13.5925  -44.5334 O.2       2 UNK        -0.5000 
     62 CA         -1.6004  -14.2481  -46.7732 C.3       2 UNK         0.1400 
     63 CB         -2.9519  -14.0434  -47.4737 C.3       2 UNK        -0.1800 
     64 N          -0.5315  -14.0729  -47.7603 N.am      2 UNK        -0.5000 
     65 C           0.7766  -14.2832  -47.5481 C.2       1 UNK         0.5000 
     66 O           1.2371  -14.6703  -46.4762 O.2       1 UNK        -0.5000 
     67 C           1.0950  -18.8746  -47.6896 C.2       11 UNK         0.5000 
     68 O           0.7742  -17.7720  -48.1270 O.2       11 UNK        -0.5000 
     69 N           1.3454  -19.1097  -46.3926 N.am      12 UNK        -0.5000 
     70 CA          1.2887  -18.0832  -45.3475 C.3       12 UNK         0.1400 
     71 CB          1.9838  -18.6036  -44.0800 C.3       12 UNK        -0.1800 
     72 C          -0.1407  -17.5974  -45.0312 C.2       12 UNK         0.5000 
     73 O          -0.2905  -16.5375  -44.4266 O.2       12 UNK        -0.5000 
     74 N          -1.1570  -18.3694  -45.4389 N.am      13 UNK        -0.5000 
     75 CA         -2.5737  -18.0102  -45.3540 C.3       13 UNK         0.1400 
     76 CB         -3.3069  -19.1381  -44.6139 C.3       13 UNK        -0.1800 
     77 C          -3.2112  -17.8144  -46.7432 C.2       13 UNK         0.5000 
     78 O          -4.3261  -17.2989  -46.8187 O.2       13 UNK        -0.5000 
     79 N          -2.5221  -18.2716  -47.8006 N.am      14 UNK        -0.5000 
     80 CA         -3.0265  -18.5219  -49.1554 C.3       14 UNK         0.1400 
     81 CB         -3.3518  -17.2067  -49.8899 C.3       14 UNK        -0.1800 
     82 C          -4.1931  -19.5369  -49.1438 C.2       14 UNK         0.5000 
     83 O          -5.2150  -19.3198  -49.7956 O.2       14 UNK        -0.5000 
     84 N          -4.0176  -20.6099  -48.3612 N.am      15 UNK        -0.5000 
     85 CA         -5.0086  -21.6466  -48.0834 C.3       15 UNK         0.1400 
     86 CB         -5.1851  -21.7410  -46.5592 C.3       15 UNK        -0.1800 
     87 C          -4.5521  -23.0054  -48.6366 C.2       15 UNK         0.5000 
     88 O          -3.3680  -23.1912  -48.9268 O.2       15 UNK        -0.5000 
     89 N          -5.5012  -23.9464  -48.7385 N.am      16 UNK        -0.5000 
     90 CA         -5.3118  -25.3507  -49.1216 C.3       16 UNK         0.1400 
     91 CB         -4.5965  -26.1143  -47.9832 C.3       16 UNK        -0.1800 
     92 C          -4.6287  -25.4914  -50.4982 C.2       16 UNK         0.5000 
     93 O          -5.2101  -25.0790  -51.5029 O.2       16 UNK        -0.5000 
     94 N          -3.4020  -26.0290  -50.5263 N.am      17 UNK        -0.5000 
     95 CA         -2.5765  -26.1770  -51.7260 C.3       17 UNK         0.1400 
     96 CB         -1.2953  -26.9426  -51.3642 C.3       17 UNK        -0.1800 
     97 C          -2.2295  -24.8365  -52.4009 C.2       17 UNK         0.5000 
     98 O          -2.1321  -24.7862  -53.6265 O.2       17 UNK        -0.5000 
     99 N          -2.0882  -23.7678  -51.6039 N.am      18 UNK        -0.5000 
    100 CA        -1.8505  -22.4162  -52.1046 C.3       18 UNK         0.1400 
    101 CB        -1.3071  -21.5362  -50.9762 C.3       18 UNK        -0.1800 
    102 C         -3.1156  -21.8036  -52.7247 C.2       18 UNK         0.5000 
    103 O         -3.0114  -21.1107  -53.7342 O.2       18 UNK        -0.5000 
    104 N         -4.2904  -22.1073  -52.1541 N.am      19 UNK        -0.5000 
    105 CA        -5.5869  -21.7114  -52.7096 C.3       19 UNK         0.1400 
    106 CB        -6.7109  -21.9694  -51.6951 C.3       19 UNK        -0.1800 
    107 C         -5.8770  -22.4281  -54.0384 C.2       19 UNK         0.5000 
    108 O         -6.3539  -21.7938  -54.9786 O.2       19 UNK        -0.5000 
    109 N         -5.5356  -23.7224  -54.1086 N.am      20 UNK        -0.5000 
    110 CA        -5.6120  -24.5335  -55.3240 C.3       20 UNK         0.1400 
    111 CB        -5.3188  -26.0008  -54.9766 C.3       20 UNK        -0.1800 
    112 C         -4.6723  -24.0333  -56.4398 C.2       20 UNK         0.5000 
    113 O         -5.0527  -24.0711  -57.6105 O.2       20 UNK        -0.5000 
    114 N         -3.4764  -23.5625  -56.0589 N.am      21 UNK        -0.5000 
    115 CA        -2.4889  -22.9783  -56.9637 C.3       21 UNK         0.1400 
    116 CB        -1.1165  -22.9313  -56.2719 C.3       21 UNK        -0.1800 
    117 C         -2.8997  -21.5822  -57.4665 C.2       21 UNK         0.5000 
    118 O         -2.9144  -21.3574  -58.6779 O.2       21 UNK        -0.5000 
    119 N         -3.2018  -20.6685  -56.5352 N.am      22 UNK        -0.5000 
    120 CA        -3.5104  -19.2595  -56.8312 C.3       22 UNK         0.1400 
    121 C         -4.9654  -18.9972  -57.3123 C.2       22 UNK         0.5000 
    122 N         -5.9296  -19.8727  -57.0626 N.am      22 UNK        -0.7600 
    123 O         -5.2239  -17.9755  -57.9428 O.2       22 UNK        -0.5000 
    124 C124       -3.1378  -18.3243  -55.6523 C.3       23 UNK        -0.0398 
    125 S125       -1.3393  -18.3005  -55.3399 S.3       23 UNK        -0.2404 
    126 C126       -1.2870  -18.1104  -53.5324 C.3       23 UNK        -0.0205 
    127 H127        0.3748  -11.2942  -51.3908 H         1 UNK         0.0600 
    128 H128        1.0689   -9.9105  -50.5409 H         1 UNK         0.0600 
    129 H129       -0.5933  -10.4085  -50.2084 H         1 UNK         0.0600 
    130 H130        1.1226  -13.2361  -50.5942 H         1 UNK         0.3000 
    131 H131        2.6312  -13.5092  -48.2408 H         1 UNK         0.0600 
    132 H132        1.3250  -15.7259  -49.8975 H         1 UNK         0.0800 
    133 H133        2.5740  -15.9568  -48.7034 H         1 UNK         0.0800 
    134 H134        3.3343  -15.0141  -53.0462 H         1 UNK         0.0800 
    135 H135        1.8625  -14.4216  -52.3216 H         1 UNK         0.0800 
    136 H136        0.1025  -15.8345  -53.0114 H         1 UNK         0.1150 
    137 H137        0.5081  -20.1010  -53.0042 H         1 UNK         0.1150 
    138 H138        3.8245  -17.6309  -51.8774 H         1 UNK         0.1150 
    139 H139        3.1101  -20.8416  -53.0700 H         1 UNK         0.0800 
    140 H140        4.1417  -19.9683  -51.9677 H         1 UNK         0.0800 
    141 H141        2.8421  -19.1438  -49.7051 H         1 UNK         0.0800 
    142 H142        3.3062  -20.4582  -48.6618 H         1 UNK         0.0800 
    143 H143        0.4039  -19.8618  -49.4283 H         1 UNK         0.0600 
    144 H144        1.5085  -22.0646  -48.0680 H         1 UNK         0.3000 
    145 H145       -1.2012  -23.5964  -47.5280 H         1 UNK         0.0600 
    146 H146        0.6005  -24.8313  -46.3047 H         1 UNK         0.0600 
    147 H147        1.2201  -24.0220  -47.7279 H         1 UNK         0.0600 
    148 H148        1.5144  -23.3397  -46.1263 H         1 UNK         0.0600 
    149 H149       -2.0463  -23.5863  -45.4795 H         1 UNK         0.3000 
    150 H150       -2.4765  -21.6627  -43.2767 H         1 UNK         0.0600 
    151 H151       -3.2108  -23.9012  -43.9070 H         1 UNK         0.0600 
    152 H152       -3.0172  -23.8722  -42.1674 H         1 UNK         0.0600 
    153 H153       -1.7946  -24.6465  -43.1705 H         1 UNK         0.0600 
    154 H154       -1.2622  -21.3311  -41.4929 H         1 UNK         0.3000 
    155 H155        0.9063  -23.0769  -39.5313 H         1 UNK         0.0600 
    156 H156        2.1483  -20.9945  -41.4055 H         1 UNK         0.0600 
    157 H157        2.8124  -22.5730  -41.0107 H         1 UNK         0.0600 
    158 H158        2.7068  -21.3356  -39.7675 H         1 UNK         0.0600 
    159 H159        0.3254  -20.2338  -39.8972 H         1 UNK         0.3000 
    160 H160       -2.8080  -20.3110  -38.2846 H         1 UNK         0.0600 
    161 H161       -0.2193  -19.3538  -36.9445 H         1 UNK         0.0600 
    162 H162       -1.3920  -20.4508  -36.2251 H         1 UNK         0.0600 
    163 H163       -1.8493  -18.7909  -36.5704 H         1 UNK         0.0600 
    164 H164       -1.0869  -18.1309  -38.9076 H         1 UNK         0.3000 
    165 H165       -1.2499  -18.1114  -42.3603 H         1 UNK         0.0600 
    166 H166       -2.4656  -15.9642  -42.3399 H         1 UNK         0.0600 
    167 H167       -3.5956  -17.2749  -42.0407 H         1 UNK         0.0600 
    168 H168       -3.0508  -16.2684  -40.7029 H         1 UNK         0.0600 
    169 H169       -0.5236  -15.9343  -40.8542 H         1 UNK         0.3000 
    170 H170        1.4075  -15.7791  -39.3863 H         1 UNK         0.0600 
    171 H171        3.6352  -17.6752  -40.3001 H         1 UNK         0.0600 
    172 H172        3.8094  -16.3252  -39.1786 H         1 UNK         0.0600 
    173 H173        2.8382  -17.7184  -38.7322 H         1 UNK         0.0600 
    174 H174        3.2027  -15.7062  -41.6390 H         1 UNK         0.3000 
    175 H175        2.8753  -13.0035  -42.4955 H         1 UNK         0.0600 
    176 H176        2.5783  -15.4914  -44.2473 H         1 UNK         0.0600 
    177 H177        3.5267  -14.0795  -44.6976 H         1 UNK         0.0600 
    178 H178        3.9898  -15.0274  -43.3006 H         1 UNK         0.0600 
    179 H179        1.0021  -13.5523  -44.6670 H         1 UNK         0.3000 
    180 H180       -1.2964  -11.1594  -43.9653 H         1 UNK         0.0600 
    181 H181       -0.6219   -9.6062  -45.8113 H         1 UNK         0.0600 
    182 H182        1.0522  -10.1351  -45.6455 H         1 UNK         0.0600 
    183 H183        0.2626   -9.2744  -44.3307 H         1 UNK         0.0600 
    184 H184       -0.1717  -12.1103  -46.4852 H         1 UNK         0.3000 
    185 H185       -1.5519  -15.2774  -46.4185 H         1 UNK         0.0600 
    186 H186       -3.0724  -14.7307  -48.3098 H         1 UNK         0.0600 
    187 H187       -3.7797  -14.2263  -46.7871 H         1 UNK         0.0600 
    188 H188       -3.0577  -13.0270  -47.8547 H         1 UNK         0.0600 
    189 H189       -0.8108  -13.7276  -48.6665 H         1 UNK         0.3000 
    190 H190        1.5353  -20.0551  -46.0884 H         1 UNK         0.3000 
    191 H191        1.8502  -17.2189  -45.7066 H         1 UNK         0.0600 
    192 H192        2.0617  -17.8146  -43.3321 H         1 UNK         0.0600 
    193 H193        2.9960  -18.9473  -44.2925 H         1 UNK         0.0600 
    194 H194        1.4351  -19.4278  -43.6240 H         1 UNK         0.0600 
    195 H195       -0.9409  -19.2540  -45.8823 H         1 UNK         0.3000 
    196 H196       -2.7098  -17.0809  -44.7971 H         1 UNK         0.0600 
    197 H197       -3.2040  -20.0879  -45.1381 H         1 UNK         0.0600 
    198 H198       -2.9138  -19.2708  -43.6091 H         1 UNK         0.0600 
    199 H199       -4.3722  -18.9240  -44.5191 H         1 UNK         0.0600 
    200 H200       -1.6235  -18.6910  -47.6093 H         1 UNK         0.3000 
    201 H201       -2.2099  -18.9994  -49.6969 H         1 UNK         0.0600 
    202 H202       -4.1880  -16.6798  -49.4301 H         1 UNK         0.0600 
    203 H203       -3.6188  -17.3987  -50.9297 H         1 UNK         0.0600 
    204 H204       -2.4905  -16.5387  -49.8954 H         1 UNK         0.0600 
    205 H205       -3.1068  -20.7463  -47.9292 H         1 UNK         0.3000 
    206 H206       -5.9698  -21.3903  -48.5312 H         1 UNK         0.0600 
    207 H207       -5.9520  -22.4695  -46.2933 H         1 UNK         0.0600 
    208 H208       -4.2608  -22.0439  -46.0656 H         1 UNK         0.0600 
    209 H209       -5.4926  -20.7828  -46.1399 H         1 UNK         0.0600 
    210 H210       -6.4508  -23.6945  -48.5032 H         1 UNK         0.3000 
    211 H211       -6.3076  -25.7818  -49.2339 H         1 UNK         0.0600 
    212 H212       -4.4951  -27.1741  -48.2205 H         1 UNK         0.0600 
    213 H213       -5.1679  -26.0500  -47.0572 H         1 UNK         0.0600 
    214 H214       -3.6008  -25.7185  -47.7791 H         1 UNK         0.0600 
    215 H215       -2.9879  -26.3215  -49.6536 H         1 UNK         0.3000 
    216 H216       -3.1403  -26.7727  -52.4466 H         1 UNK         0.0600 
    217 H217       -0.7017  -26.4065  -50.6225 H         1 UNK         0.0600 
    218 H218       -0.6670  -27.0896  -52.2439 H         1 UNK         0.0600 
    219 H219       -1.5250  -27.9296  -50.9623 H         1 UNK         0.0600 
    220 H220       -2.2497  -23.8644  -50.6077 H         1 UNK         0.3000 
    221 H221       -1.0863  -22.4640  -52.8834 H         1 UNK         0.0600 
    222 H222       -0.3864  -21.9556  -50.5744 H         1 UNK         0.0600 
    223 H223       -2.0152  -21.4392  -50.1574 H         1 UNK         0.0600 
    224 H224       -1.0847  -20.5315  -51.3312 H         1 UNK         0.0600 
    225 H225       -4.2983  -22.7351  -51.3638 H         1 UNK         0.3000 
    226 H226       -5.5552  -20.6380  -52.9097 H         1 UNK         0.0600 
    227 H227       -6.7829  -23.0201  -51.4171 H         1 UNK         0.0600 
    228 H228       -6.5621  -21.3892  -50.7872 H         1 UNK         0.0600 
    229 H229       -7.6774  -21.6755  -52.1062 H         1 UNK         0.0600 
    230 H230       -5.2080  -24.1840  -53.2655 H         1 UNK         0.3000 
    231 H231       -6.6354  -24.4716  -55.6998 H         1 UNK         0.0600 
    232 H232       -4.3039  -26.1311  -54.6015 H         1 UNK         0.0600 
    233 H233       -5.4277  -26.6380  -55.8550 H         1 UNK         0.0600 
    234 H234       -6.0067  -26.3720  -54.2167 H         1 UNK         0.0600 
    235 H235       -3.2165  -23.6273  -55.0824 H         1 UNK         0.3000 
    236 H236       -2.3980  -23.6320  -57.8338 H         1 UNK         0.0600 
    237 H237       -0.7862  -23.9296  -55.9845 H         1 UNK         0.0600 
    238 H238       -0.3585  -22.5168  -56.9376 H         1 UNK         0.0600 
    239 H239       -1.1347  -22.3143  -55.3735 H         1 UNK         0.0600 
    240 H240       -3.1530  -20.9174  -55.5494 H         1 UNK         0.3000 
    241 H241       -2.8803  -18.9609  -57.6718 H         1 UNK         0.0600 
    242 H242       -6.8607  -19.6808  -57.3952 H         1 UNK         0.3800 
    243 H243       -5.7783  -20.6799  -56.4661 H         1 UNK         0.3800 
    244 H244       -3.6696  -18.6272  -54.7487 H         1 UNK         0.0800 
    245 H245       -3.4427  -17.2967  -55.8585 H         1 UNK         0.0800 
    246 H246       -1.8662  -17.2319  -53.2435 H         1 UNK         0.0800 
    247 H247       -1.7651  -18.9637  -53.0543 H         1 UNK         0.0800 
@<TRIPOS>BOND
     1    1    2 1    
     2    1  127 1    
     3    1  128 1    
     4    1  129 1    
     5    2    3 2    
     6    2    4 am   BACKBONE|DICT|INTERRES
     7    4    5 1    
     8    4  130 1    
     9    5    6 1    
    10    5   65 1    
    11    5  131 1    
    12    6    7 1    
    13    6  132 1    
    14    6  133 1    
    15    7    8 1    
    16    8    9 1    
    17    8  134 1    
    18    8  135 1    
    19    9   10 ar   
    20    9   14 ar   
    21   10   11 ar   
    22   10  136 1    
    23   11   12 ar   
    24   11  126 1    
    25   12   13 ar   
    26   12  137 1    
    27   13   14 ar   
    28   13   15 1    
    29   14  138 1    
    30   15   16 1    
    31   15  139 1    
    32   15  140 1    
    33   16   17 1    
    34   17   18 1    
    35   17  141 1    
    36   17  142 1    
    37   18   19 1    
    38   18   67 1    
    39   18  143 1    
    40   19   20 am   BACKBONE|DICT|INTERRES
    41   19  144 1    
    42   20   21 2    
    43   20   22 1    
    44   22   23 1    
    45   22   24 1    
    46   22  145 1    
    47   23  146 1    
    48   23  147 1    
    49   23  148 1    
    50   24   25 am   BACKBONE|DICT|INTERRES
    51   24  149 1    
    52   25   26 2    
    53   25   27 1    
    54   27   28 1    
    55   27   29 1    
    56   27  150 1    
    57   28  151 1    
    58   28  152 1    
    59   28  153 1    
    60   29   30 am   BACKBONE|DICT|INTERRES
    61   29  154 1    
    62   30   31 2    
    63   30   32 1    
    64   32   33 1    
    65   32   34 1    
    66   32  155 1    
    67   33  156 1    
    68   33  157 1    
    69   33  158 1    
    70   34   35 am   BACKBONE|DICT|INTERRES
    71   34  159 1    
    72   35   36 2    
    73   35   37 1    
    74   37   38 1    
    75   37   39 1    
    76   37  160 1    
    77   38  161 1    
    78   38  162 1    
    79   38  163 1    
    80   39   40 am   BACKBONE|DICT|INTERRES
    81   39  164 1    
    82   40   41 2    
    83   40   42 1    
    84   42   43 1    
    85   42   44 1    
    86   42  165 1    
    87   43  166 1    
    88   43  167 1    
    89   43  168 1    
    90   44   45 am   BACKBONE|DICT|INTERRES
    91   44  169 1    
    92   45   46 2    
    93   45   47 1    
    94   47   48 1    
    95   47   49 1    
    96   47  170 1    
    97   48  171 1    
    98   48  172 1    
    99   48  173 1    
   100   49   50 am   BACKBONE|DICT|INTERRES
   101   49  174 1    
   102   50   51 2    
   103   50   52 1    
   104   52   53 1    
   105   52   54 1    
   106   52  175 1    
   107   53  176 1    
   108   53  177 1    
   109   53  178 1    
   110   54   55 am   BACKBONE|DICT|INTERRES
   111   54  179 1    
   112   55   56 2    
   113   55   57 1    
   114   57   58 1    
   115   57   59 1    
   116   57  180 1    
   117   58  181 1    
   118   58  182 1    
   119   58  183 1    
   120   59   60 am   BACKBONE|DICT|INTERRES
   121   59  184 1    
   122   60   61 2    
   123   60   62 1    
   124   62   63 1    
   125   62   64 1    
   126   62  185 1    
   127   63  186 1    
   128   63  187 1    
   129   63  188 1    
   130   64   65 am   BACKBONE|DICT|INTERRES
   131   64  189 1    
   132   65   66 2    
   133   67   68 2    
   134   67   69 am   BACKBONE|DICT|INTERRES
   135   69   70 1    
   136   69  190 1    
   137   70   71 1    
   138   70   72 1    
   139   70  191 1    
   140   71  192 1    
   141   71  193 1    
   142   71  194 1    
   143   72   73 2    
   144   72   74 am   BACKBONE|DICT|INTERRES
   145   74   75 1    
   146   74  195 1    
   147   75   76 1    
   148   75   77 1    
   149   75  196 1    
   150   76  197 1    
   151   76  198 1    
   152   76  199 1    
   153   77   78 2    
   154   77   79 am   BACKBONE|DICT|INTERRES
   155   79   80 1    
   156   79  200 1    
   157   80   81 1    
   158   80   82 1    
   159   80  201 1    
   160   81  202 1    
   161   81  203 1    
   162   81  204 1    
   163   82   83 2    
   164   82   84 am   BACKBONE|DICT|INTERRES
   165   84   85 1    
   166   84  205 1    
   167   85   86 1    
   168   85   87 1    
   169   85  206 1    
   170   86  207 1    
   171   86  208 1    
   172   86  209 1    
   173   87   88 2    
   174   87   89 am   BACKBONE|DICT|INTERRES
   175   89   90 1    
   176   89  210 1    
   177   90   91 1    
   178   90   92 1    
   179   90  211 1    
   180   91  212 1    
   181   91  213 1    
   182   91  214 1    
   183   92   93 2    
   184   92   94 am   BACKBONE|DICT|INTERRES
   185   94   95 1    
   186   94  215 1    
   187   95   96 1    
   188   95   97 1    
   189   95  216 1    
   190   96  217 1    
   191   96  218 1    
   192   96  219 1    
   193   97   98 2    
   194   97   99 am   BACKBONE|DICT|INTERRES
   195   99  100 1    
   196   99  220 1    
   197  100  101 1    
   198  100  102 1    
   199  100  221 1    
   200  101  222 1    
   201  101  223 1    
   202  101  224 1    
   203  102  103 2    
   204  102  104 am   BACKBONE|DICT|INTERRES
   205  104  105 1    
   206  104  225 1    
   207  105  106 1    
   208  105  107 1    
   209  105  226 1    
   210  106  227 1    
   211  106  228 1    
   212  106  229 1    
   213  107  108 2    
   214  107  109 am   BACKBONE|DICT|INTERRES
   215  109  110 1    
   216  109  230 1    
   217  110  111 1    
   218  110  112 1    
   219  110  231 1    
   220  111  232 1    
   221  111  233 1    
   222  111  234 1    
   223  112  113 2    
   224  112  114 am   BACKBONE|DICT|INTERRES
   225  114  115 1    
   226  114  235 1    
   227  115  116 1    
   228  115  117 1    
   229  115  236 1    
   230  116  237 1    
   231  116  238 1    
   232  116  239 1    
   233  117  118 2    
   234  117  119 am   BACKBONE|DICT|INTERRES
   235  119  120 1    
   236  119  240 1    
   237  120  121 1    
   238  120  124 1    
   239  120  241 1    
   240  121  122 am   BACKBONE|DICT|INTERRES
   241  121  123 2    
   242  122  242 1    
   243  122  243 1    
   244  124  125 1    
   245  124  244 1    
   246  124  245 1    
   247  125  126 1    
   248  126  246 1    
   249  126  247 1    
@<TRIPOS>SUBSTRUCTURE
     1 UNK         1 GROUP             0       ****    0 ROOT    
