@<TRIPOS>MOLECULE
3R540
247   249    1
SMALL
USER_CHARGES


@<TRIPOS>ATOM
      1 CA          6.9965  -16.8542  -46.0556 C.3       0 UNK        -0.1800 
      2 C           5.6323  -16.1926  -46.1802 C.2       0 UNK         0.5000 
      3 O           4.7603  -16.4276  -45.3461 O.2       0 UNK        -0.5000 
      4 N           5.4473  -15.3504  -47.2061 N.am      1 UNK        -0.5000 
      5 CA          4.1921  -14.6490  -47.5180 C.3       1 UNK         0.1400 
      6 C6          4.2713  -13.9535  -48.9031 C.3       23 UNK        -0.0398 
      7 S7          2.6407  -13.8273  -49.7107 S.3       23 UNK        -0.2404 
      8 C8          2.6765  -15.2761  -50.8102 C.3       23 UNK        -0.0205 
      9 C9          1.2798  -15.8419  -50.9954 C.ar      23 UNK        -0.0193 
     10 C10         0.4591  -15.3926  -52.0354 C.ar      23 UNK        -0.1150 
     11 C11        -0.8323  -15.9076  -52.1880 C.ar      23 UNK        -0.0193 
     12 C12        -1.2991  -16.8723  -51.2922 C.ar      23 UNK        -0.1150 
     13 C13        -0.4864  -17.3273  -50.2520 C.ar      23 UNK        -0.0193 
     14 C14         0.8044  -16.8137  -50.1107 C.ar      23 UNK        -0.1150 
     15 C15        -1.0187  -18.3505  -49.2672 C.3       23 UNK        -0.0205 
     16 S16        -0.9910  -20.0277  -49.9672 S.3       23 UNK        -0.2404 
     17 C17        -1.8831  -20.9179  -48.6538 C.3       23 UNK        -0.0398 
     18 CA         -1.2018  -22.2370  -48.2275 C.3       11 UNK         0.1400 
     19 N           0.1855  -22.0491  -47.7931 N.am      11 UNK        -0.5000 
     20 C           1.0113  -23.0263  -47.3927 C.2       10 UNK         0.5000 
     21 O           0.7125  -24.2201  -47.4181 O.2       10 UNK        -0.5000 
     22 CA          2.3763  -22.6060  -46.8096 C.3       10 UNK         0.1400 
     23 CB          3.4736  -22.7467  -47.8748 C.3       10 UNK        -0.1800 
     24 N           2.4335  -21.2513  -46.2420 N.am      10 UNK        -0.5000 
     25 C           1.6134  -20.7459  -45.3088 C.2       9 UNK         0.5000 
     26 O           0.6371  -21.3555  -44.8632 O.2       9 UNK        -0.5000 
     27 CA          1.9279  -19.3136  -44.8283 C.3       9 UNK         0.1400 
     28 CB          1.9174  -18.3077  -45.9920 C.3       9 UNK        -0.1800 
     29 N           0.9737  -18.8652  -43.8147 N.am      9 UNK        -0.5000 
     30 C           0.9859  -19.2469  -42.5299 C.2       8 UNK         0.5000 
     31 O           1.8776  -19.9409  -42.0381 O.2       8 UNK        -0.5000 
     32 CA         -0.1879  -18.7834  -41.6453 C.3       8 UNK         0.1400 
     33 CB          0.2955  -18.2572  -40.2823 C.3       8 UNK        -0.1800 
     34 N          -0.9856  -17.7453  -42.3029 N.am      8 UNK        -0.5000 
     35 C          -2.2771  -17.8623  -42.6403 C.2       7 UNK         0.5000 
     36 O          -2.9576  -18.8602  -42.4022 O.2       7 UNK        -0.5000 
     37 CA         -2.9335  -16.6735  -43.3704 C.3       7 UNK         0.1400 
     38 CB         -3.7957  -15.8543  -42.3991 C.3       7 UNK        -0.1800 
     39 N          -1.9739  -15.7914  -44.0402 N.am      7 UNK        -0.5000 
     40 C          -1.3152  -16.1169  -45.1619 C.2       6 UNK         0.5000 
     41 O          -1.4457  -17.2072  -45.7198 O.2       6 UNK        -0.5000 
     42 CA         -0.3115  -15.1035  -45.7447 C.3       6 UNK         0.1400 
     43 CB         -0.5859  -14.7994  -47.2310 C.3       6 UNK        -0.1800 
     44 N          -0.1384  -13.8848  -44.9503 N.am      6 UNK        -0.5000 
     45 C          -0.9270  -12.8068  -44.8572 C.2       5 UNK         0.5000 
     46 O          -1.9996  -12.6741  -45.4481 O.2       5 UNK        -0.5000 
     47 CA         -0.4159  -11.7122  -43.8933 C.3       5 UNK         0.1400 
     48 CB         -1.4285  -10.5689  -43.6733 C.3       5 UNK        -0.1800 
     49 N           0.0299  -12.2739  -42.6107 N.am      5 UNK        -0.5000 
     50 C          -0.7125  -12.9988  -41.7577 C.2       4 UNK         0.5000 
     51 O          -1.9141  -13.2142  -41.9142 O.2       4 UNK        -0.5000 
     52 CA          0.0319  -13.6237  -40.5576 C.3       4 UNK         0.1400 
     53 CB         -0.7631  -14.7580  -39.8805 C.3       4 UNK        -0.1800 
     54 N           1.3834  -14.0791  -40.9014 N.am      4 UNK        -0.5000 
     55 C           1.7329  -14.9470  -41.8621 C.2       3 UNK         0.5000 
     56 O           0.9322  -15.5464  -42.5838 O.2       3 UNK        -0.5000 
     57 CA          3.2465  -15.1292  -42.0763 C.3       3 UNK         0.1400 
     58 CB          3.6015  -16.6028  -42.3258 C.3       3 UNK        -0.1800 
     59 N           3.7650  -14.3150  -43.1801 N.am      3 UNK        -0.5000 
     60 C           3.7085  -12.9753  -43.2723 C.2       2 UNK         0.5000 
     61 O           3.1262  -12.2563  -42.4588 O.2       2 UNK        -0.5000 
     62 CA          4.4348  -12.3038  -44.4558 C.3       2 UNK         0.1400 
     63 CB          5.7724  -11.7085  -43.9904 C.3       2 UNK        -0.1800 
     64 N           4.6873  -13.1988  -45.5841 N.am      2 UNK        -0.5000 
     65 C           3.7424  -13.6622  -46.4128 C.2       1 UNK         0.5000 
     66 O           2.5572  -13.3503  -46.3152 O.2       1 UNK        -0.5000 
     67 C          -2.0780  -22.9138  -47.1545 C.2       11 UNK         0.5000 
     68 O          -2.9610  -23.6916  -47.5141 O.2       11 UNK        -0.5000 
     69 N          -1.8270  -22.6095  -45.8716 N.am      12 UNK        -0.5000 
     70 CA         -2.5498  -23.1754  -44.7331 C.3       12 UNK         0.1400 
     71 CB         -2.2682  -22.3407  -43.4748 C.3       12 UNK        -0.1800 
     72 C          -2.1859  -24.6510  -44.5065 C.2       12 UNK         0.5000 
     73 O          -3.0783  -25.4701  -44.2864 O.2       12 UNK        -0.5000 
     74 N          -0.8894  -24.9725  -44.6267 N.am      13 UNK        -0.5000 
     75 CA         -0.3585  -26.3377  -44.5642 C.3       13 UNK         0.1400 
     76 CB          1.1761  -26.2858  -44.5145 C.3       13 UNK        -0.1800 
     77 C          -0.8413  -27.2098  -45.7395 C.2       13 UNK         0.5000 
     78 O          -1.0775  -28.4046  -45.5611 O.2       13 UNK        -0.5000 
     79 N          -1.0299  -26.5763  -46.9036 N.am      14 UNK        -0.5000 
     80 CA         -1.6065  -27.1552  -48.1161 C.3       14 UNK         0.1400 
     81 CB         -1.0535  -26.3831  -49.3232 C.3       14 UNK        -0.1800 
     82 C          -3.1542  -27.1948  -48.1156 C.2       14 UNK         0.5000 
     83 O          -3.7399  -27.5262  -49.1467 O.2       14 UNK        -0.5000 
     84 N          -3.7865  -26.8842  -46.9726 N.am      15 UNK        -0.5000 
     85 CA         -5.2257  -26.9439  -46.6970 C.3       15 UNK         0.1400 
     86 CB         -5.7604  -28.3859  -46.8326 C.3       15 UNK        -0.1800 
     87 C          -6.0407  -25.9087  -47.4978 C.2       15 UNK         0.5000 
     88 O          -6.9939  -26.2656  -48.1928 O.2       15 UNK        -0.5000 
     89 N          -5.6491  -24.6354  -47.3527 N.am      16 UNK        -0.5000 
     90 CA         -6.2522  -23.4342  -47.9408 C.3       16 UNK         0.1400 
     91 CB         -7.7097  -23.2435  -47.4705 C.3       16 UNK        -0.1800 
     92 C          -6.0880  -23.3877  -49.4717 C.2       16 UNK         0.5000 
     93 O          -7.0394  -23.1003  -50.2001 O.2       16 UNK        -0.5000 
     94 N          -4.8598  -23.6593  -49.9307 N.am      17 UNK        -0.5000 
     95 CA         -4.4900  -23.7301  -51.3479 C.3       17 UNK         0.1400 
     96 CB         -3.1653  -24.4924  -51.4778 C.3       17 UNK        -0.1800 
     97 C          -4.3931  -22.3672  -52.0631 C.2       17 UNK         0.5000 
     98 O          -4.1775  -22.3503  -53.2745 O.2       17 UNK        -0.5000 
     99 N          -4.5508  -21.2550  -51.3301 N.am      18 UNK        -0.5000 
    100 CA        -4.4256  -19.8756  -51.8170 C.3       18 UNK         0.1400 
    101 CB        -4.7387  -18.9076  -50.6658 C.3       18 UNK        -0.1800 
    102 C         -5.3132  -19.5518  -53.0338 C.2       18 UNK         0.5000 
    103 O         -4.8671  -18.8564  -53.9463 O.2       18 UNK        -0.5000 
    104 N         -6.5366  -20.0985  -53.0394 N.am      19 UNK        -0.5000 
    105 CA        -7.5105  -19.9511  -54.1219 C.3       19 UNK         0.1400 
    106 CB        -8.8750  -20.4649  -53.6382 C.3       19 UNK        -0.1800 
    107 C         -7.0960  -20.6655  -55.4231 C.2       19 UNK         0.5000 
    108 O         -7.4766  -20.2157  -56.5040 O.2       19 UNK        -0.5000 
    109 N         -6.3230  -21.7529  -55.3039 N.am      20 UNK        -0.5000 
    110 CA        -5.7629  -22.4901  -56.4350 C.3       20 UNK         0.1400 
    111 CB        -5.5791  -23.9655  -56.0448 C.3       20 UNK        -0.1800 
    112 C         -4.4301  -21.8737  -56.8903 C.2       20 UNK         0.5000 
    113 O         -4.1894  -21.7684  -58.0931 O.2       20 UNK        -0.5000 
    114 N         -3.5959  -21.4725  -55.9212 N.am      21 UNK        -0.5000 
    115 CA        -2.2738  -20.8872  -56.1350 C.3       21 UNK         0.1400 
    116 CB        -1.5328  -20.8085  -54.7904 C.3       21 UNK        -0.1800 
    117 C         -2.3214  -19.5040  -56.8072 C.2       21 UNK         0.5000 
    118 O         -1.5378  -19.2538  -57.7247 O.2       21 UNK        -0.5000 
    119 N         -3.2301  -18.6408  -56.3381 N.am      22 UNK        -0.5000 
    120 CA        -3.3671  -17.2399  -56.7742 C.3       22 UNK         0.1400 
    121 C         -4.7039  -16.9516  -57.5158 C.2       22 UNK         0.5000 
    122 N         -5.5517  -17.9388  -57.7745 N.am      22 UNK        -0.7600 
    123 O         -4.9723  -15.8115  -57.8853 O.2       22 UNK        -0.5000 
    124 C124       -3.1492  -16.2539  -55.5957 C.3       23 UNK        -0.0398 
    125 S125       -1.5269  -16.4717  -54.7872 S.3       23 UNK        -0.2404 
    126 C126       -1.7336  -15.4298  -53.3135 C.3       23 UNK        -0.0205 
    127 H127        7.6723  -16.5449  -46.8532 H         1 UNK         0.0600 
    128 H128        6.8911  -17.9381  -46.0990 H         1 UNK         0.0600 
    129 H129        7.4531  -16.5931  -45.1009 H         1 UNK         0.0600 
    130 H130        6.2117  -15.1880  -47.8464 H         1 UNK         0.3000 
    131 H131        3.4248  -15.4253  -47.5680 H         1 UNK         0.0600 
    132 H132        4.9358  -14.5019  -49.5723 H         1 UNK         0.0800 
    133 H133        4.7062  -12.9554  -48.8227 H         1 UNK         0.0800 
    134 H134        3.3260  -16.0489  -50.3957 H         1 UNK         0.0800 
    135 H135        3.1072  -14.9932  -51.7719 H         1 UNK         0.0800 
    136 H136        0.8234  -14.6417  -52.7224 H         1 UNK         0.1150 
    137 H137       -2.2958  -17.2733  -51.4070 H         1 UNK         0.1150 
    138 H138        1.4338  -17.1569  -49.3015 H         1 UNK         0.1150 
    139 H139       -0.4367  -18.3336  -48.3457 H         1 UNK         0.0800 
    140 H140       -2.0377  -18.0802  -48.9873 H         1 UNK         0.0800 
    141 H141       -2.8900  -21.1160  -49.0226 H         1 UNK         0.0800 
    142 H142       -2.0033  -20.2615  -47.7892 H         1 UNK         0.0800 
    143 H143       -1.1762  -22.9011  -49.0929 H         1 UNK         0.0600 
    144 H144        0.5168  -21.0973  -47.7526 H         1 UNK         0.3000 
    145 H145        2.5991  -23.3015  -45.9981 H         1 UNK         0.0600 
    146 H146        4.4623  -22.5708  -47.4506 H         1 UNK         0.0600 
    147 H147        3.4798  -23.7512  -48.3006 H         1 UNK         0.0600 
    148 H148        3.3285  -22.0432  -48.6956 H         1 UNK         0.0600 
    149 H149        3.2019  -20.6796  -46.5611 H         1 UNK         0.3000 
    150 H150        2.9288  -19.3218  -44.3916 H         1 UNK         0.0600 
    151 H151        0.9397  -18.2538  -46.4684 H         1 UNK         0.0600 
    152 H152        2.6467  -18.5669  -46.7599 H         1 UNK         0.0600 
    153 H153        2.1777  -17.3101  -45.6404 H         1 UNK         0.0600 
    154 H154        0.1729  -18.3480  -44.1475 H         1 UNK         0.3000 
    155 H155       -0.7945  -19.6724  -41.4626 H         1 UNK         0.0600 
    156 H156        0.9549  -17.3972  -40.3920 H         1 UNK         0.0600 
    157 H157        0.8451  -19.0242  -39.7355 H         1 UNK         0.0600 
    158 H158       -0.5453  -17.9572  -39.6570 H         1 UNK         0.0600 
    159 H159       -0.4869  -16.8880  -42.5297 H         1 UNK         0.3000 
    160 H160       -3.5964  -17.0873  -44.1334 H         1 UNK         0.0600 
    161 H161       -3.2129  -15.4825  -41.5571 H         1 UNK         0.0600 
    162 H162       -4.6033  -16.4625  -41.9898 H         1 UNK         0.0600 
    163 H163       -4.2524  -14.9986  -42.8968 H         1 UNK         0.0600 
    164 H164       -1.8044  -14.8892  -43.6150 H         1 UNK         0.3000 
    165 H165        0.6587  -15.5961  -45.6983 H         1 UNK         0.0600 
    166 H166        0.1569  -14.1144  -47.6397 H         1 UNK         0.0600 
    167 H167       -1.5725  -14.3636  -47.3865 H         1 UNK         0.0600 
    168 H168       -0.5431  -15.7116  -47.8241 H         1 UNK         0.0600 
    169 H169        0.6933  -13.8929  -44.3764 H         1 UNK         0.3000 
    170 H170        0.4692  -11.2813  -44.3640 H         1 UNK         0.0600 
    171 H171       -1.6690  -10.0760  -44.6159 H         1 UNK         0.0600 
    172 H172       -2.3648  -10.9293  -43.2464 H         1 UNK         0.0600 
    173 H173       -1.0252   -9.8092  -43.0040 H         1 UNK         0.0600 
    174 H174        1.0196  -12.1755  -42.4076 H         1 UNK         0.3000 
    175 H175        0.1523  -12.8231  -39.8266 H         1 UNK         0.0600 
    176 H176       -0.9756  -15.5688  -40.5750 H         1 UNK         0.0600 
    177 H177       -0.2155  -15.1752  -39.0357 H         1 UNK         0.0600 
    178 H178       -1.7186  -14.3950  -39.5003 H         1 UNK         0.0600 
    179 H179        2.1291  -13.5996  -40.4156 H         1 UNK         0.3000 
    180 H180        3.7631  -14.8169  -41.1666 H         1 UNK         0.0600 
    181 H181        3.1443  -16.9749  -43.2426 H         1 UNK         0.0600 
    182 H182        3.2562  -17.2345  -41.5068 H         1 UNK         0.0600 
    183 H183        4.6792  -16.7418  -42.4116 H         1 UNK         0.0600 
    184 H184        4.2159  -14.8295  -43.9273 H         1 UNK         0.3000 
    185 H185        3.8012  -11.4850  -44.8035 H         1 UNK         0.0600 
    186 H186        6.2626  -11.1612  -44.7958 H         1 UNK         0.0600 
    187 H187        5.6242  -11.0077  -43.1676 H         1 UNK         0.0600 
    188 H188        6.4581  -12.4824  -43.6429 H         1 UNK         0.0600 
    189 H189        5.6390  -13.5070  -45.7197 H         1 UNK         0.3000 
    190 H190       -1.0429  -22.0026  -45.6479 H         1 UNK         0.3000 
    191 H191       -3.6200  -23.1194  -44.9437 H         1 UNK         0.0600 
    192 H192       -2.8515  -22.7033  -42.6277 H         1 UNK         0.0600 
    193 H193       -2.5344  -21.2952  -43.6296 H         1 UNK         0.0600 
    194 H194       -1.2167  -22.3773  -43.1881 H         1 UNK         0.0600 
    195 H195       -0.2307  -24.2372  -44.8389 H         1 UNK         0.3000 
    196 H196       -0.7160  -26.7969  -43.6402 H         1 UNK         0.0600 
    197 H197        1.5955  -25.8345  -45.4141 H         1 UNK         0.0600 
    198 H198        1.5242  -25.7106  -43.6565 H         1 UNK         0.0600 
    199 H199        1.5962  -27.2884  -44.4255 H         1 UNK         0.0600 
    200 H200       -0.7366  -25.6076  -46.9701 H         1 UNK         0.3000 
    201 H201       -1.2677  -28.1896  -48.2013 H         1 UNK         0.0600 
    202 H202       -1.3634  -25.3394  -49.2987 H         1 UNK         0.0600 
    203 H203       -1.3958  -26.8160  -50.2634 H         1 UNK         0.0600 
    204 H204        0.0364  -26.4045  -49.3378 H         1 UNK         0.0600 
    205 H205       -3.2175  -26.5880  -46.1897 H         1 UNK         0.3000 
    206 H206       -5.3376  -26.6637  -45.6485 H         1 UNK         0.0600 
    207 H207       -5.1825  -29.0792  -46.2216 H         1 UNK         0.0600 
    208 H208       -6.7972  -28.4480  -46.5003 H         1 UNK         0.0600 
    209 H209       -5.7288  -28.7400  -47.8632 H         1 UNK         0.0600 
    210 H210       -4.7744  -24.4721  -46.8677 H         1 UNK         0.3000 
    211 H211       -5.6780  -22.5915  -47.5529 H         1 UNK         0.0600 
    212 H212       -8.1005  -22.2795  -47.7983 H         1 UNK         0.0600 
    213 H213       -7.7794  -23.2683  -46.3831 H         1 UNK         0.0600 
    214 H214       -8.3720  -24.0131  -47.8674 H         1 UNK         0.0600 
    215 H215       -4.1393  -23.8843  -49.2537 H         1 UNK         0.3000 
    216 H216       -5.2583  -24.3047  -51.8694 H         1 UNK         0.0600 
    217 H217       -2.3498  -23.9669  -50.9812 H         1 UNK         0.0600 
    218 H218       -2.8833  -24.6197  -52.5239 H         1 UNK         0.0600 
    219 H219       -3.2486  -25.4889  -51.0460 H         1 UNK         0.0600 
    220 H220       -4.7608  -21.3694  -50.3514 H         1 UNK         0.3000 
    221 H221       -3.3867  -19.7270  -52.1168 H         1 UNK         0.0600 
    222 H222       -4.0616  -19.0551  -49.8261 H         1 UNK         0.0600 
    223 H223       -5.7576  -19.0357  -50.2984 H         1 UNK         0.0600 
    224 H224       -4.6354  -17.8704  -50.9870 H         1 UNK         0.0600 
    225 H225       -6.8107  -20.6718  -52.2543 H         1 UNK         0.3000 
    226 H226       -7.6058  -18.8870  -54.3483 H         1 UNK         0.0600 
    227 H227       -8.8352  -21.5216  -53.3707 H         1 UNK         0.0600 
    228 H228       -9.2188  -19.9098  -52.7652 H         1 UNK         0.0600 
    229 H229       -9.6333  -20.3504  -54.4140 H         1 UNK         0.0600 
    230 H230       -5.9963  -22.0212  -54.3849 H         1 UNK         0.3000 
    231 H231       -6.4585  -22.4522  -57.2763 H         1 UNK         0.0600 
    232 H232       -4.8834  -24.0847  -55.2137 H         1 UNK         0.0600 
    233 H233       -5.1884  -24.5431  -56.8834 H         1 UNK         0.0600 
    234 H234       -6.5280  -24.4162  -55.7539 H         1 UNK         0.0600 
    235 H235       -3.8584  -21.6498  -54.9547 H         1 UNK         0.3000 
    236 H236       -1.7150  -21.5581  -56.7908 H         1 UNK         0.0600 
    237 H237       -2.0492  -20.1574  -54.0846 H         1 UNK         0.0600 
    238 H238       -1.4402  -21.7927  -54.3307 H         1 UNK         0.0600 
    239 H239       -0.5250  -20.4128  -54.9222 H         1 UNK         0.0600 
    240 H240       -3.8234  -18.9123  -55.5586 H         1 UNK         0.3000 
    241 H241       -2.5972  -17.0165  -57.5144 H         1 UNK         0.0600 
    242 H242       -5.3484  -18.8819  -57.4844 H         1 UNK         0.3800 
    243 H243       -6.4148  -17.7409  -58.2554 H         1 UNK         0.3800 
    244 H244       -3.9364  -16.3859  -54.8514 H         1 UNK         0.0800 
    245 H245       -3.2151  -15.2198  -55.9381 H         1 UNK         0.0800 
    246 H246       -2.7725  -15.4517  -52.9808 H         1 UNK         0.0800 
    247 H247       -1.5126  -14.3921  -53.5679 H         1 UNK         0.0800 
@<TRIPOS>BOND
     1    1    2 1    
     2    1  127 1    
     3    1  128 1    
     4    1  129 1    
     5    2    3 2    
     6    2    4 am   BACKBONE|DICT|INTERRES
     7    4    5 1    
     8    4  130 1    
     9    5    6 1    
    10    5   65 1    
    11    5  131 1    
    12    6    7 1    
    13    6  132 1    
    14    6  133 1    
    15    7    8 1    
    16    8    9 1    
    17    8  134 1    
    18    8  135 1    
    19    9   10 ar   
    20    9   14 ar   
    21   10   11 ar   
    22   10  136 1    
    23   11   12 ar   
    24   11  126 1    
    25   12   13 ar   
    26   12  137 1    
    27   13   14 ar   
    28   13   15 1    
    29   14  138 1    
    30   15   16 1    
    31   15  139 1    
    32   15  140 1    
    33   16   17 1    
    34   17   18 1    
    35   17  141 1    
    36   17  142 1    
    37   18   19 1    
    38   18   67 1    
    39   18  143 1    
    40   19   20 am   BACKBONE|DICT|INTERRES
    41   19  144 1    
    42   20   21 2    
    43   20   22 1    
    44   22   23 1    
    45   22   24 1    
    46   22  145 1    
    47   23  146 1    
    48   23  147 1    
    49   23  148 1    
    50   24   25 am   BACKBONE|DICT|INTERRES
    51   24  149 1    
    52   25   26 2    
    53   25   27 1    
    54   27   28 1    
    55   27   29 1    
    56   27  150 1    
    57   28  151 1    
    58   28  152 1    
    59   28  153 1    
    60   29   30 am   BACKBONE|DICT|INTERRES
    61   29  154 1    
    62   30   31 2    
    63   30   32 1    
    64   32   33 1    
    65   32   34 1    
    66   32  155 1    
    67   33  156 1    
    68   33  157 1    
    69   33  158 1    
    70   34   35 am   BACKBONE|DICT|INTERRES
    71   34  159 1    
    72   35   36 2    
    73   35   37 1    
    74   37   38 1    
    75   37   39 1    
    76   37  160 1    
    77   38  161 1    
    78   38  162 1    
    79   38  163 1    
    80   39   40 am   BACKBONE|DICT|INTERRES
    81   39  164 1    
    82   40   41 2    
    83   40   42 1    
    84   42   43 1    
    85   42   44 1    
    86   42  165 1    
    87   43  166 1    
    88   43  167 1    
    89   43  168 1    
    90   44   45 am   BACKBONE|DICT|INTERRES
    91   44  169 1    
    92   45   46 2    
    93   45   47 1    
    94   47   48 1    
    95   47   49 1    
    96   47  170 1    
    97   48  171 1    
    98   48  172 1    
    99   48  173 1    
   100   49   50 am   BACKBONE|DICT|INTERRES
   101   49  174 1    
   102   50   51 2    
   103   50   52 1    
   104   52   53 1    
   105   52   54 1    
   106   52  175 1    
   107   53  176 1    
   108   53  177 1    
   109   53  178 1    
   110   54   55 am   BACKBONE|DICT|INTERRES
   111   54  179 1    
   112   55   56 2    
   113   55   57 1    
   114   57   58 1    
   115   57   59 1    
   116   57  180 1    
   117   58  181 1    
   118   58  182 1    
   119   58  183 1    
   120   59   60 am   BACKBONE|DICT|INTERRES
   121   59  184 1    
   122   60   61 2    
   123   60   62 1    
   124   62   63 1    
   125   62   64 1    
   126   62  185 1    
   127   63  186 1    
   128   63  187 1    
   129   63  188 1    
   130   64   65 am   BACKBONE|DICT|INTERRES
   131   64  189 1    
   132   65   66 2    
   133   67   68 2    
   134   67   69 am   BACKBONE|DICT|INTERRES
   135   69   70 1    
   136   69  190 1    
   137   70   71 1    
   138   70   72 1    
   139   70  191 1    
   140   71  192 1    
   141   71  193 1    
   142   71  194 1    
   143   72   73 2    
   144   72   74 am   BACKBONE|DICT|INTERRES
   145   74   75 1    
   146   74  195 1    
   147   75   76 1    
   148   75   77 1    
   149   75  196 1    
   150   76  197 1    
   151   76  198 1    
   152   76  199 1    
   153   77   78 2    
   154   77   79 am   BACKBONE|DICT|INTERRES
   155   79   80 1    
   156   79  200 1    
   157   80   81 1    
   158   80   82 1    
   159   80  201 1    
   160   81  202 1    
   161   81  203 1    
   162   81  204 1    
   163   82   83 2    
   164   82   84 am   BACKBONE|DICT|INTERRES
   165   84   85 1    
   166   84  205 1    
   167   85   86 1    
   168   85   87 1    
   169   85  206 1    
   170   86  207 1    
   171   86  208 1    
   172   86  209 1    
   173   87   88 2    
   174   87   89 am   BACKBONE|DICT|INTERRES
   175   89   90 1    
   176   89  210 1    
   177   90   91 1    
   178   90   92 1    
   179   90  211 1    
   180   91  212 1    
   181   91  213 1    
   182   91  214 1    
   183   92   93 2    
   184   92   94 am   BACKBONE|DICT|INTERRES
   185   94   95 1    
   186   94  215 1    
   187   95   96 1    
   188   95   97 1    
   189   95  216 1    
   190   96  217 1    
   191   96  218 1    
   192   96  219 1    
   193   97   98 2    
   194   97   99 am   BACKBONE|DICT|INTERRES
   195   99  100 1    
   196   99  220 1    
   197  100  101 1    
   198  100  102 1    
   199  100  221 1    
   200  101  222 1    
   201  101  223 1    
   202  101  224 1    
   203  102  103 2    
   204  102  104 am   BACKBONE|DICT|INTERRES
   205  104  105 1    
   206  104  225 1    
   207  105  106 1    
   208  105  107 1    
   209  105  226 1    
   210  106  227 1    
   211  106  228 1    
   212  106  229 1    
   213  107  108 2    
   214  107  109 am   BACKBONE|DICT|INTERRES
   215  109  110 1    
   216  109  230 1    
   217  110  111 1    
   218  110  112 1    
   219  110  231 1    
   220  111  232 1    
   221  111  233 1    
   222  111  234 1    
   223  112  113 2    
   224  112  114 am   BACKBONE|DICT|INTERRES
   225  114  115 1    
   226  114  235 1    
   227  115  116 1    
   228  115  117 1    
   229  115  236 1    
   230  116  237 1    
   231  116  238 1    
   232  116  239 1    
   233  117  118 2    
   234  117  119 am   BACKBONE|DICT|INTERRES
   235  119  120 1    
   236  119  240 1    
   237  120  121 1    
   238  120  124 1    
   239  120  241 1    
   240  121  122 am   BACKBONE|DICT|INTERRES
   241  121  123 2    
   242  122  242 1    
   243  122  243 1    
   244  124  125 1    
   245  124  244 1    
   246  124  245 1    
   247  125  126 1    
   248  126  246 1    
   249  126  247 1    
@<TRIPOS>SUBSTRUCTURE
     1 UNK         1 GROUP             0       ****    0 ROOT    
