@<TRIPOS>MOLECULE
3R540
247   249    1
SMALL
USER_CHARGES


@<TRIPOS>ATOM
      1 CA         -1.8814  -12.0720  -46.5345 C.3       0 UNK        -0.1800 
      2 C          -0.6681  -11.7193  -47.3824 C.2       0 UNK         0.5000 
      3 O          -0.8057  -11.0369  -48.3973 O.2       0 UNK        -0.5000 
      4 N           0.5169  -12.1892  -46.9706 N.am      1 UNK        -0.5000 
      5 CA          1.7922  -12.0173  -47.6823 C.3       1 UNK         0.1400 
      6 C6          2.9093  -12.9097  -47.0860 C.3       23 UNK        -0.0398 
      7 S7          2.4555  -14.6745  -47.0842 S.3       23 UNK        -0.2404 
      8 C8          3.1801  -15.2032  -48.6622 C.3       23 UNK        -0.0205 
      9 C9          2.6880  -16.5805  -49.0757 C.ar      23 UNK        -0.0193 
     10 C10         1.6340  -16.7068  -49.9866 C.ar      23 UNK        -0.1150 
     11 C11         1.2334  -17.9704  -50.4262 C.ar      23 UNK        -0.0193 
     12 C12         1.9063  -19.1010  -49.9641 C.ar      23 UNK        -0.1150 
     13 C13         2.8969  -19.0036  -48.9806 C.ar      23 UNK        -0.0193 
     14 C14         3.2956  -17.7303  -48.5598 C.ar      23 UNK        -0.1150 
     15 C15         3.5456  -20.2301  -48.3281 C.3       23 UNK        -0.0205 
     16 S16         2.8022  -21.8661  -48.6988 S.3       23 UNK        -0.2404 
     17 C17         1.0289  -21.6445  -48.3135 C.3       23 UNK        -0.0398 
     18 CA          0.4530  -22.7466  -47.3903 C.3       11 UNK         0.1400 
     19 N           0.4121  -22.3304  -45.9875 N.am      11 UNK        -0.5000 
     20 C           0.0737  -23.1258  -44.9632 C.2       10 UNK         0.5000 
     21 O          -0.1432  -24.3332  -45.0724 O.2       10 UNK        -0.5000 
     22 CA         -0.0978  -22.4471  -43.5927 C.3       10 UNK         0.1400 
     23 CB          1.2619  -22.2577  -42.9040 C.3       10 UNK        -0.1800 
     24 N          -0.7941  -21.1610  -43.6816 N.am      10 UNK        -0.5000 
     25 C          -2.0627  -21.0130  -44.0920 C.2       9 UNK         0.5000 
     26 O          -2.7911  -21.9536  -44.4068 O.2       9 UNK        -0.5000 
     27 CA         -2.6020  -19.5750  -44.2090 C.3       9 UNK         0.1400 
     28 CB         -2.9911  -19.0224  -42.8305 C.3       9 UNK        -0.1800 
     29 N          -1.6627  -18.6621  -44.8606 N.am      9 UNK        -0.5000 
     30 C          -1.2229  -18.7946  -46.1204 C.2       8 UNK         0.5000 
     31 O          -1.5796  -19.6911  -46.8802 O.2       8 UNK        -0.5000 
     32 CA         -0.1602  -17.7913  -46.5939 C.3       8 UNK         0.1400 
     33 CB         -0.8149  -16.4620  -47.0038 C.3       8 UNK        -0.1800 
     34 N           0.8748  -17.5677  -45.5823 N.am      8 UNK        -0.5000 
     35 C           1.6842  -18.5258  -45.1052 C.2       7 UNK         0.5000 
     36 O           1.6721  -19.6939  -45.4939 O.2       7 UNK        -0.5000 
     37 CA          2.6125  -18.1284  -43.9460 C.3       7 UNK         0.1400 
     38 CB          3.8111  -17.3092  -44.4462 C.3       7 UNK        -0.1800 
     39 N           1.8935  -17.3879  -42.9083 N.am      7 UNK        -0.5000 
     40 C           0.9604  -17.9368  -42.1132 C.2       6 UNK         0.5000 
     41 O           0.6538  -19.1276  -42.1480 O.2       6 UNK        -0.5000 
     42 CA          0.2118  -17.0049  -41.1397 C.3       6 UNK         0.1400 
     43 CB          0.9379  -16.9470  -39.7877 C.3       6 UNK        -0.1800 
     44 N           0.0427  -15.6461  -41.6505 N.am      6 UNK        -0.5000 
     45 C          -0.5961  -15.3161  -42.7813 C.2       5 UNK         0.5000 
     46 O          -1.2077  -16.1246  -43.4793 O.2       5 UNK        -0.5000 
     47 CA         -0.4894  -13.8482  -43.2390 C.3       5 UNK         0.1400 
     48 CB         -1.7878  -13.0889  -42.9320 C.3       5 UNK        -0.1800 
     49 N           0.6413  -13.1145  -42.6593 N.am      5 UNK        -0.5000 
     50 C           1.9372  -13.4136  -42.8177 C.2       4 UNK         0.5000 
     51 O           2.3258  -14.3788  -43.4766 O.2       4 UNK        -0.5000 
     52 CA          2.9517  -12.4865  -42.1115 C.3       4 UNK         0.1400 
     53 CB          4.4091  -12.9004  -42.3850 C.3       4 UNK        -0.1800 
     54 N           2.7871  -11.0790  -42.4861 N.am      4 UNK        -0.5000 
     55 C           1.8137  -10.2563  -42.0635 C.2       3 UNK         0.5000 
     56 O           0.9268  -10.5983  -41.2804 O.2       3 UNK        -0.5000 
     57 CA          1.7956   -8.8413  -42.6603 C.3       3 UNK         0.1400 
     58 CB          2.7314   -7.8959  -41.8875 C.3       3 UNK        -0.1800 
     59 N           2.1689   -8.8950  -44.0721 N.am      3 UNK        -0.5000 
     60 C           1.8135   -8.0159  -45.0163 C.2       2 UNK         0.5000 
     61 O           1.1541   -6.9980  -44.8057 O.2       2 UNK        -0.5000 
     62 CA          2.2448   -8.3753  -46.4451 C.3       2 UNK         0.1400 
     63 CB          3.7384   -8.0326  -46.6353 C.3       2 UNK        -0.1800 
     64 N           1.9588   -9.7960  -46.6684 N.am      2 UNK        -0.5000 
     65 C           2.2600  -10.5466  -47.7351 C.2       1 UNK         0.5000 
     66 O           2.8640  -10.1381  -48.7272 O.2       1 UNK        -0.5000 
     67 C          -0.9412  -23.1891  -47.8808 C.2       11 UNK         0.5000 
     68 O          -1.0738  -24.2969  -48.3995 O.2       11 UNK        -0.5000 
     69 N          -1.9542  -22.3314  -47.6936 N.am      12 UNK        -0.5000 
     70 CA         -3.3385  -22.5547  -48.1121 C.3       12 UNK         0.1400 
     71 CB         -4.1783  -21.3072  -47.8053 C.3       12 UNK        -0.1800 
     72 C          -3.9783  -23.7999  -47.4783 C.2       12 UNK         0.5000 
     73 O          -4.7017  -24.5157  -48.1672 O.2       12 UNK        -0.5000 
     74 N          -3.6720  -24.0641  -46.2017 N.am      13 UNK        -0.5000 
     75 CA         -4.1147  -25.2544  -45.4742 C.3       13 UNK         0.1400 
     76 CB         -3.7301  -25.1127  -43.9936 C.3       13 UNK        -0.1800 
     77 C          -3.5606  -26.5731  -46.0504 C.2       13 UNK         0.5000 
     78 O          -4.2297  -27.6020  -45.9462 O.2       13 UNK        -0.5000 
     79 N          -2.3598  -26.5230  -46.6414 N.am      14 UNK        -0.5000 
     80 CA         -1.6966  -27.6676  -47.2591 C.3       14 UNK         0.1400 
     81 CB         -0.1758  -27.5227  -47.0839 C.3       14 UNK        -0.1800 
     82 C          -2.0656  -27.8087  -48.7457 C.2       14 UNK         0.5000 
     83 O          -2.4341  -28.9007  -49.1799 O.2       14 UNK        -0.5000 
     84 N          -1.9292  -26.7137  -49.5040 N.am      15 UNK        -0.5000 
     85 CA         -2.0508  -26.6959  -50.9613 C.3       15 UNK         0.1400 
     86 CB         -1.2359  -25.5152  -51.5080 C.3       15 UNK        -0.1800 
     87 C          -3.5015  -26.6105  -51.4606 C.2       15 UNK         0.5000 
     88 O          -3.8007  -27.1552  -52.5247 O.2       15 UNK        -0.5000 
     89 N          -4.3684  -25.9161  -50.7086 N.am      16 UNK        -0.5000 
     90 CA         -5.7688  -25.6273  -51.0283 C.3       16 UNK         0.1400 
     91 CB         -6.6280  -26.8953  -50.8244 C.3       16 UNK        -0.1800 
     92 C          -5.9146  -24.9705  -52.4180 C.2       16 UNK         0.5000 
     93 O          -5.3345  -23.9057  -52.6515 O.2       16 UNK        -0.5000 
     94 N          -6.6516  -25.6271  -53.3228 N.am      17 UNK        -0.5000 
     95 CA         -6.9123  -25.1956  -54.6953 C.3       17 UNK         0.1400 
     96 CB         -7.9047  -26.1714  -55.3446 C.3       17 UNK        -0.1800 
     97 C          -5.6520  -25.0504  -55.5697 C.2       17 UNK         0.5000 
     98 O          -5.6730  -24.2504  -56.5046 O.2       17 UNK        -0.5000 
     99 N          -4.5677  -25.7716  -55.2426 N.am      18 UNK        -0.5000 
    100 CA        -3.2871  -25.6925  -55.9552 C.3       18 UNK         0.1400 
    101 CB        -2.3801  -26.8551  -55.5251 C.3       18 UNK        -0.1800 
    102 C         -2.5673  -24.3412  -55.7690 C.2       18 UNK         0.5000 
    103 O         -1.7962  -23.9453  -56.6436 O.2       18 UNK        -0.5000 
    104 N         -2.8530  -23.6499  -54.6572 N.am      19 UNK        -0.5000 
    105 CA        -2.3933  -22.2884  -54.3739 C.3       19 UNK         0.1400 
    106 CB        -1.8330  -22.2481  -52.9414 C.3       19 UNK        -0.1800 
    107 C         -3.5274  -21.2573  -54.5347 C.2       19 UNK         0.5000 
    108 O         -3.3154  -20.0849  -54.2244 O.2       19 UNK        -0.5000 
    109 N         -4.7250  -21.7069  -54.9483 N.am      20 UNK        -0.5000 
    110 CA        -5.9924  -20.9618  -54.9829 C.3       20 UNK         0.1400 
    111 CB        -5.9658  -19.9061  -56.1065 C.3       20 UNK        -0.1800 
    112 C         -6.3650  -20.3640  -53.6061 C.2       20 UNK         0.5000 
    113 O         -6.8934  -19.2522  -53.5305 O.2       20 UNK        -0.5000 
    114 N         -6.0003  -21.0910  -52.5365 N.am      21 UNK        -0.5000 
    115 CA        -6.0407  -20.6976  -51.1233 C.3       21 UNK         0.1400 
    116 CB        -7.4977  -20.6696  -50.6207 C.3       21 UNK        -0.1800 
    117 C         -5.2764  -19.3883  -50.8056 C.2       21 UNK         0.5000 
    118 O         -5.5691  -18.7445  -49.7971 O.2       21 UNK        -0.5000 
    119 N         -4.3283  -19.0090  -51.6759 N.am      22 UNK        -0.5000 
    120 CA        -3.5846  -17.7381  -51.6684 C.3       22 UNK         0.1400 
    121 C         -4.4779  -16.4736  -51.8641 C.2       22 UNK         0.5000 
    122 N         -5.6698  -16.5930  -52.4408 N.am      22 UNK        -0.7600 
    123 O         -4.0797  -15.3630  -51.5235 O.2       22 UNK        -0.5000 
    124 C124       -2.5833  -17.6234  -50.4845 C.3       23 UNK        -0.0398 
    125 S125       -1.3395  -18.9580  -50.5408 S.3       23 UNK        -0.2404 
    126 C126        0.0641  -18.1466  -51.3815 C.3       23 UNK        -0.0205 
    127 H127       -1.7613  -13.0423  -46.0538 H         1 UNK         0.0600 
    128 H128       -2.7773  -12.1181  -47.1538 H         1 UNK         0.0600 
    129 H129       -2.0369  -11.3162  -45.7650 H         1 UNK         0.0600 
    130 H130        0.5609  -12.7744  -46.1499 H         1 UNK         0.3000 
    131 H131        1.6286  -12.3324  -48.7152 H         1 UNK         0.0600 
    132 H132        3.8443  -12.7835  -47.6352 H         1 UNK         0.0800 
    133 H133        3.1225  -12.6213  -46.0550 H         1 UNK         0.0800 
    134 H134        4.2677  -15.2080  -48.5764 H         1 UNK         0.0800 
    135 H135        2.9356  -14.4754  -49.4375 H         1 UNK         0.0800 
    136 H136        1.1334  -15.8235  -50.3575 H         1 UNK         0.1150 
    137 H137        1.6064  -20.0596  -50.3543 H         1 UNK         0.1150 
    138 H138        4.0807  -17.6308  -47.8235 H         1 UNK         0.1150 
    139 H139        4.5935  -20.2616  -48.6285 H         1 UNK         0.0800 
    140 H140        3.5461  -20.0981  -47.2462 H         1 UNK         0.0800 
    141 H141        0.5166  -21.6346  -49.2777 H         1 UNK         0.0800 
    142 H142        0.8545  -20.6566  -47.8864 H         1 UNK         0.0800 
    143 H143        1.0934  -23.6294  -47.4491 H         1 UNK         0.0600 
    144 H144        0.6240  -21.3552  -45.7971 H         1 UNK         0.3000 
    145 H145       -0.7029  -23.1097  -42.9705 H         1 UNK         0.0600 
    146 H146        1.8977  -21.5612  -43.4515 H         1 UNK         0.0600 
    147 H147        1.1395  -21.8730  -41.8915 H         1 UNK         0.0600 
    148 H148        1.7981  -23.2045  -42.8292 H         1 UNK         0.0600 
    149 H149       -0.2669  -20.3410  -43.3970 H         1 UNK         0.3000 
    150 H150       -3.5032  -19.6081  -44.8242 H         1 UNK         0.0600 
    151 H151       -3.7477  -19.6509  -42.3593 H         1 UNK         0.0600 
    152 H152       -3.4047  -18.0167  -42.9092 H         1 UNK         0.0600 
    153 H153       -2.1353  -18.9816  -42.1578 H         1 UNK         0.0600 
    154 H154       -1.3465  -17.8635  -44.3175 H         1 UNK         0.3000 
    155 H155        0.3215  -18.2151  -47.4770 H         1 UNK         0.0600 
    156 H156       -1.2024  -15.9139  -46.1454 H         1 UNK         0.0600 
    157 H157       -0.1109  -15.8184  -47.5271 H         1 UNK         0.0600 
    158 H158       -1.6483  -16.6339  -47.6857 H         1 UNK         0.0600 
    159 H159        0.9432  -16.6382  -45.1956 H         1 UNK         0.3000 
    160 H160        2.9994  -19.0476  -43.5007 H         1 UNK         0.0600 
    161 H161        4.3662  -17.8565  -45.2089 H         1 UNK         0.0600 
    162 H162        3.4998  -16.3618  -44.8847 H         1 UNK         0.0600 
    163 H163        4.5033  -17.0878  -43.6338 H         1 UNK         0.0600 
    164 H164        2.0619  -16.3891  -42.8642 H         1 UNK         0.3000 
    165 H165       -0.7828  -17.4229  -40.9759 H         1 UNK         0.0600 
    166 H166        0.3769  -16.3569  -39.0628 H         1 UNK         0.0600 
    167 H167        1.0590  -17.9463  -39.3672 H         1 UNK         0.0600 
    168 H168        1.9318  -16.5080  -39.8829 H         1 UNK         0.0600 
    169 H169        0.5096  -14.9106  -41.1419 H         1 UNK         0.3000 
    170 H170       -0.3461  -13.8666  -44.3202 H         1 UNK         0.0600 
    171 H171       -2.6466  -13.5790  -43.3927 H         1 UNK         0.0600 
    172 H172       -1.9758  -13.0344  -41.8590 H         1 UNK         0.0600 
    173 H173       -1.7505  -12.0698  -43.3170 H         1 UNK         0.0600 
    174 H174        0.4194  -12.2979  -42.0970 H         1 UNK         0.3000 
    175 H175        2.7767  -12.5821  -41.0379 H         1 UNK         0.0600 
    176 H176        4.6548  -12.8337  -43.4457 H         1 UNK         0.0600 
    177 H177        5.1087  -12.2690  -41.8371 H         1 UNK         0.0600 
    178 H178        4.5903  -13.9292  -42.0706 H         1 UNK         0.0600 
    179 H179        3.5069  -10.7073  -43.0860 H         1 UNK         0.3000 
    180 H180        0.7725   -8.4675  -42.5786 H         1 UNK         0.0600 
    181 H181        3.7734   -8.2083  -41.9652 H         1 UNK         0.0600 
    182 H182        2.4724   -7.8700  -40.8283 H         1 UNK         0.0600 
    183 H183        2.6598   -6.8752  -42.2633 H         1 UNK         0.0600 
    184 H184        2.7014   -9.7024  -44.3573 H         1 UNK         0.3000 
    185 H185        1.6467   -7.7872  -47.1435 H         1 UNK         0.0600 
    186 H186        4.0360   -8.0887  -47.6818 H         1 UNK         0.0600 
    187 H187        3.9507   -7.0146  -46.3056 H         1 UNK         0.0600 
    188 H188        4.3836   -8.7026  -46.0663 H         1 UNK         0.0600 
    189 H189        1.3827  -10.2252  -45.9578 H         1 UNK         0.3000 
    190 H190       -1.7597  -21.4194  -47.2809 H         1 UNK         0.3000 
    191 H191       -3.3318  -22.7024  -49.1941 H         1 UNK         0.0600 
    192 H192       -4.1806  -21.0783  -46.7395 H         1 UNK         0.0600 
    193 H193       -5.2156  -21.4425  -48.1129 H         1 UNK         0.0600 
    194 H194       -3.7912  -20.4347  -48.3319 H         1 UNK         0.0600 
    195 H195       -3.1207  -23.3882  -45.6797 H         1 UNK         0.3000 
    196 H196       -5.2036  -25.2997  -45.5408 H         1 UNK         0.0600 
    197 H197       -4.0508  -25.9827  -43.4193 H         1 UNK         0.0600 
    198 H198       -4.2011  -24.2371  -43.5464 H         1 UNK         0.0600 
    199 H199       -2.6513  -25.0132  -43.8678 H         1 UNK         0.0600 
    200 H200       -1.8847  -25.6316  -46.7061 H         1 UNK         0.3000 
    201 H201       -1.9996  -28.5851  -46.7501 H         1 UNK         0.0600 
    202 H202        0.0957  -27.4944  -46.0285 H         1 UNK         0.0600 
    203 H203        0.2033  -26.6110  -47.5471 H         1 UNK         0.0600 
    204 H204        0.3516  -28.3647  -47.5339 H         1 UNK         0.0600 
    205 H205       -1.6204  -25.8466  -49.0658 H         1 UNK         0.3000 
    206 H206       -1.6185  -27.6154  -51.3621 H         1 UNK         0.0600 
    207 H207       -0.1829  -25.6055  -51.2409 H         1 UNK         0.0600 
    208 H208       -1.2929  -25.4631  -52.5956 H         1 UNK         0.0600 
    209 H209       -1.5992  -24.5667  -51.1119 H         1 UNK         0.0600 
    210 H210       -4.0446  -25.5109  -49.8378 H         1 UNK         0.3000 
    211 H211       -6.1121  -24.8792  -50.3138 H         1 UNK         0.0600 
    212 H212       -6.3371  -27.7046  -51.4952 H         1 UNK         0.0600 
    213 H213       -7.6869  -26.6876  -50.9837 H         1 UNK         0.0600 
    214 H214       -6.5282  -27.2661  -49.8041 H         1 UNK         0.0600 
    215 H215       -7.0589  -26.5093  -53.0485 H         1 UNK         0.3000 
    216 H216       -7.3848  -24.2127  -54.6440 H         1 UNK         0.0600 
    217 H217       -8.1472  -25.8638  -56.3629 H         1 UNK         0.0600 
    218 H218       -8.8413  -26.2114  -54.7881 H         1 UNK         0.0600 
    219 H219       -7.4992  -27.1827  -55.3950 H         1 UNK         0.0600 
    220 H220       -4.6009  -26.3792  -54.4315 H         1 UNK         0.3000 
    221 H221       -3.4932  -25.8073  -57.0215 H         1 UNK         0.0600 
    222 H222       -2.0813  -26.7712  -54.4810 H         1 UNK         0.0600 
    223 H223       -2.8775  -27.8161  -55.6567 H         1 UNK         0.0600 
    224 H224       -1.4678  -26.8765  -56.1224 H         1 UNK         0.0600 
    225 H225       -3.5129  -24.0429  -53.9969 H         1 UNK         0.3000 
    226 H226       -1.5957  -21.9964  -55.0595 H         1 UNK         0.0600 
    227 H227       -0.9828  -22.9210  -52.8364 H         1 UNK         0.0600 
    228 H228       -1.4795  -21.2495  -52.6814 H         1 UNK         0.0600 
    229 H229       -2.5864  -22.5313  -52.2050 H         1 UNK         0.0600 
    230 H230       -4.7902  -22.6771  -55.2261 H         1 UNK         0.3000 
    231 H231       -6.7719  -21.6858  -55.2237 H         1 UNK         0.0600 
    232 H232       -6.9418  -19.4336  -56.2232 H         1 UNK         0.0600 
    233 H233       -5.7087  -20.3582  -57.0645 H         1 UNK         0.0600 
    234 H234       -5.2420  -19.1162  -55.9031 H         1 UNK         0.0600 
    235 H235       -5.5992  -22.0098  -52.7088 H         1 UNK         0.3000 
    236 H236       -5.5192  -21.4880  -50.5822 H         1 UNK         0.0600 
    237 H237       -7.5390  -20.5193  -49.5413 H         1 UNK         0.0600 
    238 H238       -8.0058  -21.6099  -50.8347 H         1 UNK         0.0600 
    239 H239       -8.0683  -19.8654  -51.0863 H         1 UNK         0.0600 
    240 H240       -4.1515  -19.5871  -52.4904 H         1 UNK         0.3000 
    241 H241       -2.9847  -17.7627  -52.5788 H         1 UNK         0.0600 
    242 H242       -6.2385  -15.7724  -52.5754 H         1 UNK         0.3800 
    243 H243       -6.0145  -17.4973  -52.7433 H         1 UNK         0.3800 
    244 H244       -2.0688  -16.6615  -50.4869 H         1 UNK         0.0800 
    245 H245       -3.1092  -17.6789  -49.5309 H         1 UNK         0.0800 
    246 H246        0.3781  -18.7717  -52.2186 H         1 UNK         0.0800 
    247 H247       -0.2374  -17.1917  -51.8136 H         1 UNK         0.0800 
@<TRIPOS>BOND
     1    1    2 1    
     2    1  127 1    
     3    1  128 1    
     4    1  129 1    
     5    2    3 2    
     6    2    4 am   BACKBONE|DICT|INTERRES
     7    4    5 1    
     8    4  130 1    
     9    5    6 1    
    10    5   65 1    
    11    5  131 1    
    12    6    7 1    
    13    6  132 1    
    14    6  133 1    
    15    7    8 1    
    16    8    9 1    
    17    8  134 1    
    18    8  135 1    
    19    9   10 ar   
    20    9   14 ar   
    21   10   11 ar   
    22   10  136 1    
    23   11   12 ar   
    24   11  126 1    
    25   12   13 ar   
    26   12  137 1    
    27   13   14 ar   
    28   13   15 1    
    29   14  138 1    
    30   15   16 1    
    31   15  139 1    
    32   15  140 1    
    33   16   17 1    
    34   17   18 1    
    35   17  141 1    
    36   17  142 1    
    37   18   19 1    
    38   18   67 1    
    39   18  143 1    
    40   19   20 am   BACKBONE|DICT|INTERRES
    41   19  144 1    
    42   20   21 2    
    43   20   22 1    
    44   22   23 1    
    45   22   24 1    
    46   22  145 1    
    47   23  146 1    
    48   23  147 1    
    49   23  148 1    
    50   24   25 am   BACKBONE|DICT|INTERRES
    51   24  149 1    
    52   25   26 2    
    53   25   27 1    
    54   27   28 1    
    55   27   29 1    
    56   27  150 1    
    57   28  151 1    
    58   28  152 1    
    59   28  153 1    
    60   29   30 am   BACKBONE|DICT|INTERRES
    61   29  154 1    
    62   30   31 2    
    63   30   32 1    
    64   32   33 1    
    65   32   34 1    
    66   32  155 1    
    67   33  156 1    
    68   33  157 1    
    69   33  158 1    
    70   34   35 am   BACKBONE|DICT|INTERRES
    71   34  159 1    
    72   35   36 2    
    73   35   37 1    
    74   37   38 1    
    75   37   39 1    
    76   37  160 1    
    77   38  161 1    
    78   38  162 1    
    79   38  163 1    
    80   39   40 am   BACKBONE|DICT|INTERRES
    81   39  164 1    
    82   40   41 2    
    83   40   42 1    
    84   42   43 1    
    85   42   44 1    
    86   42  165 1    
    87   43  166 1    
    88   43  167 1    
    89   43  168 1    
    90   44   45 am   BACKBONE|DICT|INTERRES
    91   44  169 1    
    92   45   46 2    
    93   45   47 1    
    94   47   48 1    
    95   47   49 1    
    96   47  170 1    
    97   48  171 1    
    98   48  172 1    
    99   48  173 1    
   100   49   50 am   BACKBONE|DICT|INTERRES
   101   49  174 1    
   102   50   51 2    
   103   50   52 1    
   104   52   53 1    
   105   52   54 1    
   106   52  175 1    
   107   53  176 1    
   108   53  177 1    
   109   53  178 1    
   110   54   55 am   BACKBONE|DICT|INTERRES
   111   54  179 1    
   112   55   56 2    
   113   55   57 1    
   114   57   58 1    
   115   57   59 1    
   116   57  180 1    
   117   58  181 1    
   118   58  182 1    
   119   58  183 1    
   120   59   60 am   BACKBONE|DICT|INTERRES
   121   59  184 1    
   122   60   61 2    
   123   60   62 1    
   124   62   63 1    
   125   62   64 1    
   126   62  185 1    
   127   63  186 1    
   128   63  187 1    
   129   63  188 1    
   130   64   65 am   BACKBONE|DICT|INTERRES
   131   64  189 1    
   132   65   66 2    
   133   67   68 2    
   134   67   69 am   BACKBONE|DICT|INTERRES
   135   69   70 1    
   136   69  190 1    
   137   70   71 1    
   138   70   72 1    
   139   70  191 1    
   140   71  192 1    
   141   71  193 1    
   142   71  194 1    
   143   72   73 2    
   144   72   74 am   BACKBONE|DICT|INTERRES
   145   74   75 1    
   146   74  195 1    
   147   75   76 1    
   148   75   77 1    
   149   75  196 1    
   150   76  197 1    
   151   76  198 1    
   152   76  199 1    
   153   77   78 2    
   154   77   79 am   BACKBONE|DICT|INTERRES
   155   79   80 1    
   156   79  200 1    
   157   80   81 1    
   158   80   82 1    
   159   80  201 1    
   160   81  202 1    
   161   81  203 1    
   162   81  204 1    
   163   82   83 2    
   164   82   84 am   BACKBONE|DICT|INTERRES
   165   84   85 1    
   166   84  205 1    
   167   85   86 1    
   168   85   87 1    
   169   85  206 1    
   170   86  207 1    
   171   86  208 1    
   172   86  209 1    
   173   87   88 2    
   174   87   89 am   BACKBONE|DICT|INTERRES
   175   89   90 1    
   176   89  210 1    
   177   90   91 1    
   178   90   92 1    
   179   90  211 1    
   180   91  212 1    
   181   91  213 1    
   182   91  214 1    
   183   92   93 2    
   184   92   94 am   BACKBONE|DICT|INTERRES
   185   94   95 1    
   186   94  215 1    
   187   95   96 1    
   188   95   97 1    
   189   95  216 1    
   190   96  217 1    
   191   96  218 1    
   192   96  219 1    
   193   97   98 2    
   194   97   99 am   BACKBONE|DICT|INTERRES
   195   99  100 1    
   196   99  220 1    
   197  100  101 1    
   198  100  102 1    
   199  100  221 1    
   200  101  222 1    
   201  101  223 1    
   202  101  224 1    
   203  102  103 2    
   204  102  104 am   BACKBONE|DICT|INTERRES
   205  104  105 1    
   206  104  225 1    
   207  105  106 1    
   208  105  107 1    
   209  105  226 1    
   210  106  227 1    
   211  106  228 1    
   212  106  229 1    
   213  107  108 2    
   214  107  109 am   BACKBONE|DICT|INTERRES
   215  109  110 1    
   216  109  230 1    
   217  110  111 1    
   218  110  112 1    
   219  110  231 1    
   220  111  232 1    
   221  111  233 1    
   222  111  234 1    
   223  112  113 2    
   224  112  114 am   BACKBONE|DICT|INTERRES
   225  114  115 1    
   226  114  235 1    
   227  115  116 1    
   228  115  117 1    
   229  115  236 1    
   230  116  237 1    
   231  116  238 1    
   232  116  239 1    
   233  117  118 2    
   234  117  119 am   BACKBONE|DICT|INTERRES
   235  119  120 1    
   236  119  240 1    
   237  120  121 1    
   238  120  124 1    
   239  120  241 1    
   240  121  122 am   BACKBONE|DICT|INTERRES
   241  121  123 2    
   242  122  242 1    
   243  122  243 1    
   244  124  125 1    
   245  124  244 1    
   246  124  245 1    
   247  125  126 1    
   248  126  246 1    
   249  126  247 1    
@<TRIPOS>SUBSTRUCTURE
     1 UNK         1 GROUP             0       ****    0 ROOT    
