@<TRIPOS>MOLECULE
3R540
247   249    1
SMALL
USER_CHARGES


@<TRIPOS>ATOM
      1 CA          3.8951  -10.5569  -53.0915 C.3       0 UNK        -0.1800 
      2 C           4.2161  -11.3416  -51.8270 C.2       0 UNK         0.5000 
      3 O           5.0973  -10.9418  -51.0651 O.2       0 UNK        -0.5000 
      4 N           3.5121  -12.4587  -51.6061 N.am      1 UNK        -0.5000 
      5 CA          3.6292  -13.3007  -50.4116 C.3       1 UNK         0.1400 
      6 C6          3.0031  -14.6974  -50.6509 C.3       23 UNK        -0.0398 
      7 S7          3.7909  -16.0112  -49.6552 S.3       23 UNK        -0.2404 
      8 C8          2.5357  -16.3644  -48.3838 C.3       23 UNK        -0.0205 
      9 C9          1.2507  -16.9269  -48.9731 C.ar      23 UNK        -0.0193 
     10 C10         0.1041  -16.1318  -49.0360 C.ar      23 UNK        -0.1150 
     11 C11        -1.0866  -16.6443  -49.5527 C.ar      23 UNK        -0.0193 
     12 C12        -1.1239  -17.9638  -50.0093 C.ar      23 UNK        -0.1150 
     13 C13         0.0068  -18.7815  -49.9411 C.ar      23 UNK        -0.0193 
     14 C14         1.1996  -18.2462  -49.4340 C.ar      23 UNK        -0.1150 
     15 C15        -0.1149  -20.2280  -50.4275 C.3       23 UNK        -0.0205 
     16 S16         1.0659  -21.4179  -49.7012 S.3       23 UNK        -0.2404 
     17 C17         0.7987  -21.1727  -47.9135 C.3       23 UNK        -0.0398 
     18 CA          0.2942  -22.4284  -47.1702 C.3       11 UNK         0.1400 
     19 N           0.5526  -22.3258  -45.7312 N.am      11 UNK        -0.5000 
     20 C           0.3562  -23.3031  -44.8360 C.2       10 UNK         0.5000 
     21 O          -0.0281  -24.4323  -45.1334 O.2       10 UNK        -0.5000 
     22 CA          0.5691  -22.9408  -43.3545 C.3       10 UNK         0.1400 
     23 CB          2.0615  -22.9437  -42.9924 C.3       10 UNK        -0.1800 
     24 N          -0.0190  -21.6455  -43.0127 N.am      10 UNK        -0.5000 
     25 C          -1.3306  -21.3718  -43.0645 C.2       9 UNK         0.5000 
     26 O          -2.1924  -22.2104  -43.3292 O.2       9 UNK        -0.5000 
     27 CA         -1.7387  -19.9025  -42.8463 C.3       9 UNK         0.1400 
     28 CB         -1.8069  -19.5586  -41.3509 C.3       9 UNK        -0.1800 
     29 N          -0.8364  -18.9748  -43.5323 N.am      9 UNK        -0.5000 
     30 C          -0.7252  -18.8878  -44.8658 C.2       8 UNK         0.5000 
     31 O          -1.4148  -19.5343  -45.6503 O.2       8 UNK        -0.5000 
     32 CA          0.3713  -17.9693  -45.4219 C.3       8 UNK         0.1400 
     33 CB         -0.1500  -16.5403  -45.5758 C.3       8 UNK        -0.1800 
     34 N           1.5738  -17.9729  -44.5915 N.am      8 UNK        -0.5000 
     35 C           2.4251  -19.0064  -44.5224 C.2       7 UNK         0.5000 
     36 O           2.2883  -20.0428  -45.1699 O.2       7 UNK        -0.5000 
     37 CA          3.5951  -18.8871  -43.5288 C.3       7 UNK         0.1400 
     38 CB          4.7607  -18.1143  -44.1643 C.3       7 UNK        -0.1800 
     39 N           3.2102  -18.2362  -42.2772 N.am      7 UNK        -0.5000 
     40 C           2.2726  -18.6869  -41.4310 C.2       6 UNK         0.5000 
     41 O           1.6903  -19.7620  -41.5717 O.2       6 UNK        -0.5000 
     42 CA          1.8807  -17.7569  -40.2644 C.3       6 UNK         0.1400 
     43 CB          2.6111  -18.1710  -38.9788 C.3       6 UNK        -0.1800 
     44 N           2.1426  -16.3379  -40.5336 N.am      6 UNK        -0.5000 
     45 C           1.5616  -15.6227  -41.5071 C.2       5 UNK         0.5000 
     46 O           0.7131  -16.0829  -42.2744 O.2       5 UNK        -0.5000 
     47 CA          2.0916  -14.1913  -41.6940 C.3       5 UNK         0.1400 
     48 CB          3.4476  -14.2207  -42.4192 C.3       5 UNK        -0.1800 
     49 N           1.1637  -13.3547  -42.4553 N.am      5 UNK        -0.5000 
     50 C           0.1114  -12.7206  -41.9184 C.2       4 UNK         0.5000 
     51 O          -0.1896  -12.8058  -40.7264 O.2       4 UNK        -0.5000 
     52 CA         -0.7297  -11.8020  -42.8300 C.3       4 UNK         0.1400 
     53 CB         -0.4578  -10.3265  -42.4942 C.3       4 UNK        -0.1800 
     54 N          -0.4777  -12.0021  -44.2567 N.am      4 UNK        -0.5000 
     55 C          -1.0758  -12.9296  -45.0144 C.2       3 UNK         0.5000 
     56 O          -1.9487  -13.6896  -44.5956 O.2       3 UNK        -0.5000 
     57 CA         -0.6296  -13.0265  -46.4899 C.3       3 UNK         0.1400 
     58 CB         -1.6317  -12.3045  -47.4028 C.3       3 UNK        -0.1800 
     59 N           0.7179  -12.5165  -46.7767 N.am      3 UNK        -0.5000 
     60 C           1.8600  -12.9212  -46.2068 C.2       2 UNK         0.5000 
     61 O           1.9120  -13.7717  -45.3195 O.2       2 UNK        -0.5000 
     62 CA          3.1557  -12.2653  -46.7234 C.3       2 UNK         0.1400 
     63 CB          4.3127  -12.3969  -45.7171 C.3       2 UNK        -0.1800 
     64 N           3.5798  -12.8372  -48.0009 N.am      2 UNK        -0.5000 
     65 C           3.0058  -12.5965  -49.1858 C.2       1 UNK         0.5000 
     66 O           2.0234  -11.8629  -49.3305 O.2       1 UNK        -0.5000 
     67 C          -1.1922  -22.7142  -47.4745 C.2       11 UNK         0.5000 
     68 O          -1.4868  -23.5818  -48.2989 O.2       11 UNK        -0.5000 
     69 N          -2.0998  -22.0149  -46.7781 N.am      12 UNK        -0.5000 
     70 CA         -3.5491  -22.2002  -46.8503 C.3       12 UNK         0.1400 
     71 CB         -4.2585  -21.1128  -46.0331 C.3       12 UNK        -0.1800 
     72 C          -4.0014  -23.6014  -46.4083 C.2       12 UNK         0.5000 
     73 O          -4.8671  -24.1907  -47.0552 O.2       12 UNK        -0.5000 
     74 N          -3.3872  -24.1207  -45.3373 N.am      13 UNK        -0.5000 
     75 CA         -3.5972  -25.4848  -44.8555 C.3       13 UNK         0.1400 
     76 CB         -2.9798  -25.6330  -43.4564 C.3       13 UNK        -0.1800 
     77 C          -3.0345  -26.5458  -45.8214 C.2       13 UNK         0.5000 
     78 O          -3.6619  -27.5898  -46.0042 O.2       13 UNK        -0.5000 
     79 N          -1.8672  -26.2623  -46.4156 N.am      14 UNK        -0.5000 
     80 CA         -1.1672  -27.1465  -47.3438 C.3       14 UNK         0.1400 
     81 CB          0.2804  -26.6649  -47.5303 C.3       14 UNK        -0.1800 
     82 C          -1.8726  -27.2895  -48.7034 C.2       14 UNK         0.5000 
     83 O          -2.0793  -28.4194  -49.1499 O.2       14 UNK        -0.5000 
     84 N          -2.2086  -26.1623  -49.3478 N.am      15 UNK        -0.5000 
     85 CA         -2.7610  -26.1539  -50.7069 C.3       15 UNK         0.1400 
     86 CB         -1.6332  -26.3830  -51.7330 C.3       15 UNK        -0.1800 
     87 C          -3.5452  -24.8860  -51.0787 C.2       15 UNK         0.5000 
     88 O          -4.3416  -24.9511  -52.0162 O.2       15 UNK        -0.5000 
     89 N          -3.2910  -23.7497  -50.4108 N.am      16 UNK        -0.5000 
     90 CA         -3.8838  -22.4319  -50.6913 C.3       16 UNK         0.1400 
     91 CB         -5.3873  -22.4272  -50.3362 C.3       16 UNK        -0.1800 
     92 C          -3.6083  -21.9485  -52.1308 C.2       16 UNK         0.5000 
     93 O          -4.5107  -21.4403  -52.7982 O.2       16 UNK        -0.5000 
     94 N          -2.3715  -22.1728  -52.6029 N.am      17 UNK        -0.5000 
     95 CA         -1.9008  -21.9134  -53.9712 C.3       17 UNK         0.1400 
     96 CB         -1.8798  -20.3968  -54.2626 C.3       17 UNK        -0.1800 
     97 C          -2.6833  -22.7199  -55.0347 C.2       17 UNK         0.5000 
     98 O          -2.9196  -22.2217  -56.1352 O.2       17 UNK        -0.5000 
     99 N          -3.0778  -23.9486  -54.6651 N.am      18 UNK        -0.5000 
    100 CA        -3.9886  -24.8507  -55.3779 C.3       18 UNK         0.1400 
    101 CB        -3.4361  -25.2500  -56.7630 C.3       18 UNK        -0.1800 
    102 C         -5.4219  -24.2813  -55.4170 C.2       18 UNK         0.5000 
    103 O         -6.0265  -24.1841  -56.4866 O.2       18 UNK        -0.5000 
    104 N         -5.9229  -23.9164  -54.2264 N.am      19 UNK        -0.5000 
    105 CA        -7.2389  -23.3331  -53.9423 C.3       19 UNK         0.1400 
    106 CB        -8.3452  -24.3895  -54.1425 C.3       19 UNK        -0.1800 
    107 C         -7.5009  -22.0237  -54.7166 C.2       19 UNK         0.5000 
    108 O         -8.5478  -21.8799  -55.3525 O.2       19 UNK        -0.5000 
    109 N         -6.5317  -21.1024  -54.6623 N.am      20 UNK        -0.5000 
    110 CA        -6.5324  -19.8491  -55.4147 C.3       20 UNK         0.1400 
    111 CB        -5.5264  -19.9611  -56.5710 C.3       20 UNK        -0.1800 
    112 C         -6.2211  -18.6110  -54.5566 C.2       20 UNK         0.5000 
    113 O         -6.6045  -17.5143  -54.9682 O.2       20 UNK        -0.5000 
    114 N         -5.5399  -18.7614  -53.4102 N.am      21 UNK        -0.5000 
    115 CA        -5.1116  -17.6331  -52.5812 C.3       21 UNK         0.1400 
    116 CB        -3.7618  -17.1027  -53.0998 C.3       21 UNK        -0.1800 
    117 C         -5.0160  -18.0504  -51.1070 C.2       21 UNK         0.5000 
    118 O         -4.4919  -19.1231  -50.8121 O.2       21 UNK        -0.5000 
    119 N         -5.5020  -17.1844  -50.2073 N.am      22 UNK        -0.5000 
    120 CA        -5.5256  -17.3599  -48.7389 C.3       22 UNK         0.1400 
    121 C         -6.4379  -18.5156  -48.2168 C.2       22 UNK         0.5000 
    122 N         -7.2275  -19.1796  -49.0517 N.am      22 UNK        -0.7600 
    123 O         -6.4778  -18.7795  -47.0190 O.2       22 UNK        -0.5000 
    124 C124       -4.1037  -17.3841  -48.0993 C.3       23 UNK        -0.0398 
    125 S125       -3.2959  -15.7440  -48.1088 S.3       23 UNK        -0.2404 
    126 C126       -2.3201  -15.7609  -49.6439 C.3       23 UNK        -0.0205 
    127 H127        4.7820  -10.4788  -53.7203 H         1 UNK         0.0600 
    128 H128        3.5681   -9.5493  -52.8344 H         1 UNK         0.0600 
    129 H129        3.1057  -11.0319  -53.6745 H         1 UNK         0.0600 
    130 H130        2.7783  -12.7119  -52.2519 H         1 UNK         0.3000 
    131 H131        4.6977  -13.4294  -50.2228 H         1 UNK         0.0600 
    132 H132        3.1505  -14.9932  -51.6906 H         1 UNK         0.0800 
    133 H133        1.9222  -14.6820  -50.5103 H         1 UNK         0.0800 
    134 H134        2.3343  -15.4591  -47.8110 H         1 UNK         0.0800 
    135 H135        2.9458  -17.0837  -47.6732 H         1 UNK         0.0800 
    136 H136        0.1387  -15.1100  -48.6873 H         1 UNK         0.1150 
    137 H137       -2.0413  -18.3606  -50.4184 H         1 UNK         0.1150 
    138 H138        2.0928  -18.8519  -49.3856 H         1 UNK         0.1150 
    139 H139       -1.1228  -20.5946  -50.2280 H         1 UNK         0.0800 
    140 H140        0.0104  -20.2386  -51.5103 H         1 UNK         0.0800 
    141 H141        1.7695  -20.8767  -47.5172 H         1 UNK         0.0800 
    142 H142        0.1351  -20.3275  -47.7310 H         1 UNK         0.0800 
    143 H143        0.8703  -23.2849  -47.5256 H         1 UNK         0.0600 
    144 H144        0.9319  -21.4420  -45.4052 H         1 UNK         0.3000 
    145 H145        0.0720  -23.7033  -42.7511 H         1 UNK         0.0600 
    146 H146        2.2088  -22.7446  -41.9307 H         1 UNK         0.0600 
    147 H147        2.6162  -22.1906  -43.5519 H         1 UNK         0.0600 
    148 H148        2.5131  -23.9126  -43.2086 H         1 UNK         0.0600 
    149 H149        0.6216  -20.9116  -42.7241 H         1 UNK         0.3000 
    150 H150       -2.7374  -19.7686  -43.2670 H         1 UNK         0.0600 
    151 H151       -2.5351  -20.1914  -40.8421 H         1 UNK         0.0600 
    152 H152       -2.1118  -18.5233  -41.1970 H         1 UNK         0.0600 
    153 H153       -0.8482  -19.7036  -40.8541 H         1 UNK         0.0600 
    154 H154       -0.2297  -18.4067  -42.9580 H         1 UNK         0.3000 
    155 H155        0.6396  -18.3339  -46.4151 H         1 UNK         0.0600 
    156 H156       -1.0260  -16.5149  -46.2243 H         1 UNK         0.0600 
    157 H157        0.6095  -15.9052  -46.0260 H         1 UNK         0.0600 
    158 H158       -0.4367  -16.1016  -44.6205 H         1 UNK         0.0600 
    159 H159        1.7026  -17.1764  -43.9809 H         1 UNK         0.3000 
    160 H160        3.9368  -19.8967  -43.2918 H         1 UNK         0.0600 
    161 H161        4.4837  -17.0854  -44.3983 H         1 UNK         0.0600 
    162 H162        5.0811  -18.5870  -45.0938 H         1 UNK         0.0600 
    163 H163        5.6249  -18.0870  -43.5003 H         1 UNK         0.0600 
    164 H164        3.6444  -17.3485  -42.0757 H         1 UNK         0.3000 
    165 H165        0.8073  -17.8730  -40.1017 H         1 UNK         0.0600 
    166 H166        2.2807  -17.5755  -38.1276 H         1 UNK         0.0600 
    167 H167        2.4142  -19.2166  -38.7377 H         1 UNK         0.0600 
    168 H168        3.6914  -18.0538  -39.0735 H         1 UNK         0.0600 
    169 H169        2.8371  -15.8943  -39.9495 H         1 UNK         0.3000 
    170 H170        2.2420  -13.7467  -40.7078 H         1 UNK         0.0600 
    171 H171        3.3828  -14.7312  -43.3805 H         1 UNK         0.0600 
    172 H172        3.8205  -13.2125  -42.5987 H         1 UNK         0.0600 
    173 H173        4.2008  -14.7400  -41.8259 H         1 UNK         0.0600 
    174 H174        1.3056  -13.3305  -43.4597 H         1 UNK         0.3000 
    175 H175       -1.7812  -12.0070  -42.6182 H         1 UNK         0.0600 
    176 H176        0.5827  -10.0565  -42.6792 H         1 UNK         0.0600 
    177 H177       -1.0881   -9.6642  -43.0881 H         1 UNK         0.0600 
    178 H178       -0.6694  -10.1175  -41.4447 H         1 UNK         0.0600 
    179 H179        0.2243  -11.4154  -44.6822 H         1 UNK         0.3000 
    180 H180       -0.6448  -14.0817  -46.7574 H         1 UNK         0.0600 
    181 H181       -1.6420  -11.2299  -47.2175 H         1 UNK         0.0600 
    182 H182       -2.6449  -12.6763  -47.2437 H         1 UNK         0.0600 
    183 H183       -1.3922  -12.4637  -48.4545 H         1 UNK         0.0600 
    184 H184        0.7937  -11.8664  -47.5503 H         1 UNK         0.3000 
    185 H185        2.9588  -11.2002  -46.8630 H         1 UNK         0.0600 
    186 H186        4.5851  -13.4391  -45.5447 H         1 UNK         0.0600 
    187 H187        5.2016  -11.8722  -46.0675 H         1 UNK         0.0600 
    188 H188        4.0410  -11.9640  -44.7537 H         1 UNK         0.0600 
    189 H189        4.3614  -13.4755  -47.9610 H         1 UNK         0.3000 
    190 H190       -1.7785  -21.2640  -46.1710 H         1 UNK         0.3000 
    191 H191       -3.8436  -22.0703  -47.8880 H         1 UNK         0.0600 
    192 H192       -4.0048  -20.1183  -46.3991 H         1 UNK         0.0600 
    193 H193       -3.9940  -21.1588  -44.9775 H         1 UNK         0.0600 
    194 H194       -5.3418  -21.2169  -46.1046 H         1 UNK         0.0600 
    195 H195       -2.7254  -23.5472  -44.8248 H         1 UNK         0.3000 
    196 H196       -4.6730  -25.6513  -44.7684 H         1 UNK         0.0600 
    197 H197       -3.4188  -24.9228  -42.7553 H         1 UNK         0.0600 
    198 H198       -1.9028  -25.4652  -43.4695 H         1 UNK         0.0600 
    199 H199       -3.1517  -26.6336  -43.0580 H         1 UNK         0.0600 
    200 H200       -1.3820  -25.4111  -46.1492 H         1 UNK         0.3000 
    201 H201       -1.1268  -28.1385  -46.8888 H         1 UNK         0.0600 
    202 H202        0.8194  -26.6614  -46.5828 H         1 UNK         0.0600 
    203 H203        0.3220  -25.6568  -47.9424 H         1 UNK         0.0600 
    204 H204        0.8256  -27.3199  -48.2110 H         1 UNK         0.0600 
    205 H205       -2.0098  -25.2674  -48.9087 H         1 UNK         0.3000 
    206 H206       -3.4756  -26.9754  -50.7927 H         1 UNK         0.0600 
    207 H207       -1.1499  -27.3490  -51.5874 H         1 UNK         0.0600 
    208 H208       -0.8655  -25.6118  -51.6607 H         1 UNK         0.0600 
    209 H209       -2.0177  -26.3720  -52.7538 H         1 UNK         0.0600 
    210 H210       -2.6004  -23.7589  -49.6634 H         1 UNK         0.3000 
    211 H211       -3.3828  -21.7110  -50.0457 H         1 UNK         0.0600 
    212 H212       -5.9557  -23.1070  -50.9685 H         1 UNK         0.0600 
    213 H213       -5.8178  -21.4330  -50.4558 H         1 UNK         0.0600 
    214 H214       -5.5563  -22.7279  -49.3037 H         1 UNK         0.0600 
    215 H215       -1.7054  -22.6168  -51.9871 H         1 UNK         0.3000 
    216 H216       -0.8713  -22.2712  -54.0158 H         1 UNK         0.0600 
    217 H217       -1.3968  -20.1890  -55.2179 H         1 UNK         0.0600 
    218 H218       -1.3283  -19.8525  -53.4970 H         1 UNK         0.0600 
    219 H219       -2.8847  -19.9775  -54.3094 H         1 UNK         0.0600 
    220 H220       -2.8639  -24.2316  -53.7198 H         1 UNK         0.3000 
    221 H221       -4.0410  -25.7617  -54.7796 H         1 UNK         0.0600 
    222 H222       -3.4204  -24.4107  -57.4583 H         1 UNK         0.0600 
    223 H223       -2.4219  -25.6414  -56.6850 H         1 UNK         0.0600 
    224 H224       -4.0515  -26.0297  -57.2131 H         1 UNK         0.0600 
    225 H225       -5.3368  -24.0738  -53.4109 H         1 UNK         0.3000 
    226 H226       -7.2362  -23.0610  -52.8872 H         1 UNK         0.0600 
    227 H227       -8.1497  -25.2810  -53.5465 H         1 UNK         0.0600 
    228 H228       -9.3170  -24.0016  -53.8350 H         1 UNK         0.0600 
    229 H229       -8.4294  -24.6956  -55.1857 H         1 UNK         0.0600 
    230 H230       -5.7146  -21.2912  -54.0828 H         1 UNK         0.3000 
    231 H231       -7.5192  -19.6748  -55.8480 H         1 UNK         0.0600 
    232 H232       -5.5550  -19.0730  -57.2033 H         1 UNK         0.0600 
    233 H233       -5.7450  -20.8210  -57.2046 H         1 UNK         0.0600 
    234 H234       -4.5062  -20.0680  -56.2027 H         1 UNK         0.0600 
    235 H235       -5.2455  -19.6806  -53.0884 H         1 UNK         0.3000 
    236 H236       -5.8514  -16.8329  -52.6544 H         1 UNK         0.0600 
    237 H237       -2.9492  -17.8016  -52.8973 H         1 UNK         0.0600 
    238 H238       -3.7874  -16.9265  -54.1752 H         1 UNK         0.0600 
    239 H239       -3.5092  -16.1515  -52.6337 H         1 UNK         0.0600 
    240 H240       -5.9211  -16.3274  -50.5387 H         1 UNK         0.3000 
    241 H241       -6.0253  -16.4662  -48.3632 H         1 UNK         0.0600 
    242 H242       -7.8281  -19.9037  -48.6918 H         1 UNK         0.3800 
    243 H243       -7.2200  -18.9739  -50.0366 H         1 UNK         0.3800 
    244 H244       -3.4692  -18.1355  -48.5657 H         1 UNK         0.0800 
    245 H245       -4.1576  -17.6715  -47.0482 H         1 UNK         0.0800 
    246 H246       -2.0172  -14.7382  -49.8730 H         1 UNK         0.0800 
    247 H247       -2.9517  -16.0762  -50.4693 H         1 UNK         0.0800 
@<TRIPOS>BOND
     1    1    2 1    
     2    1  127 1    
     3    1  128 1    
     4    1  129 1    
     5    2    3 2    
     6    2    4 am   BACKBONE|DICT|INTERRES
     7    4    5 1    
     8    4  130 1    
     9    5    6 1    
    10    5   65 1    
    11    5  131 1    
    12    6    7 1    
    13    6  132 1    
    14    6  133 1    
    15    7    8 1    
    16    8    9 1    
    17    8  134 1    
    18    8  135 1    
    19    9   10 ar   
    20    9   14 ar   
    21   10   11 ar   
    22   10  136 1    
    23   11   12 ar   
    24   11  126 1    
    25   12   13 ar   
    26   12  137 1    
    27   13   14 ar   
    28   13   15 1    
    29   14  138 1    
    30   15   16 1    
    31   15  139 1    
    32   15  140 1    
    33   16   17 1    
    34   17   18 1    
    35   17  141 1    
    36   17  142 1    
    37   18   19 1    
    38   18   67 1    
    39   18  143 1    
    40   19   20 am   BACKBONE|DICT|INTERRES
    41   19  144 1    
    42   20   21 2    
    43   20   22 1    
    44   22   23 1    
    45   22   24 1    
    46   22  145 1    
    47   23  146 1    
    48   23  147 1    
    49   23  148 1    
    50   24   25 am   BACKBONE|DICT|INTERRES
    51   24  149 1    
    52   25   26 2    
    53   25   27 1    
    54   27   28 1    
    55   27   29 1    
    56   27  150 1    
    57   28  151 1    
    58   28  152 1    
    59   28  153 1    
    60   29   30 am   BACKBONE|DICT|INTERRES
    61   29  154 1    
    62   30   31 2    
    63   30   32 1    
    64   32   33 1    
    65   32   34 1    
    66   32  155 1    
    67   33  156 1    
    68   33  157 1    
    69   33  158 1    
    70   34   35 am   BACKBONE|DICT|INTERRES
    71   34  159 1    
    72   35   36 2    
    73   35   37 1    
    74   37   38 1    
    75   37   39 1    
    76   37  160 1    
    77   38  161 1    
    78   38  162 1    
    79   38  163 1    
    80   39   40 am   BACKBONE|DICT|INTERRES
    81   39  164 1    
    82   40   41 2    
    83   40   42 1    
    84   42   43 1    
    85   42   44 1    
    86   42  165 1    
    87   43  166 1    
    88   43  167 1    
    89   43  168 1    
    90   44   45 am   BACKBONE|DICT|INTERRES
    91   44  169 1    
    92   45   46 2    
    93   45   47 1    
    94   47   48 1    
    95   47   49 1    
    96   47  170 1    
    97   48  171 1    
    98   48  172 1    
    99   48  173 1    
   100   49   50 am   BACKBONE|DICT|INTERRES
   101   49  174 1    
   102   50   51 2    
   103   50   52 1    
   104   52   53 1    
   105   52   54 1    
   106   52  175 1    
   107   53  176 1    
   108   53  177 1    
   109   53  178 1    
   110   54   55 am   BACKBONE|DICT|INTERRES
   111   54  179 1    
   112   55   56 2    
   113   55   57 1    
   114   57   58 1    
   115   57   59 1    
   116   57  180 1    
   117   58  181 1    
   118   58  182 1    
   119   58  183 1    
   120   59   60 am   BACKBONE|DICT|INTERRES
   121   59  184 1    
   122   60   61 2    
   123   60   62 1    
   124   62   63 1    
   125   62   64 1    
   126   62  185 1    
   127   63  186 1    
   128   63  187 1    
   129   63  188 1    
   130   64   65 am   BACKBONE|DICT|INTERRES
   131   64  189 1    
   132   65   66 2    
   133   67   68 2    
   134   67   69 am   BACKBONE|DICT|INTERRES
   135   69   70 1    
   136   69  190 1    
   137   70   71 1    
   138   70   72 1    
   139   70  191 1    
   140   71  192 1    
   141   71  193 1    
   142   71  194 1    
   143   72   73 2    
   144   72   74 am   BACKBONE|DICT|INTERRES
   145   74   75 1    
   146   74  195 1    
   147   75   76 1    
   148   75   77 1    
   149   75  196 1    
   150   76  197 1    
   151   76  198 1    
   152   76  199 1    
   153   77   78 2    
   154   77   79 am   BACKBONE|DICT|INTERRES
   155   79   80 1    
   156   79  200 1    
   157   80   81 1    
   158   80   82 1    
   159   80  201 1    
   160   81  202 1    
   161   81  203 1    
   162   81  204 1    
   163   82   83 2    
   164   82   84 am   BACKBONE|DICT|INTERRES
   165   84   85 1    
   166   84  205 1    
   167   85   86 1    
   168   85   87 1    
   169   85  206 1    
   170   86  207 1    
   171   86  208 1    
   172   86  209 1    
   173   87   88 2    
   174   87   89 am   BACKBONE|DICT|INTERRES
   175   89   90 1    
   176   89  210 1    
   177   90   91 1    
   178   90   92 1    
   179   90  211 1    
   180   91  212 1    
   181   91  213 1    
   182   91  214 1    
   183   92   93 2    
   184   92   94 am   BACKBONE|DICT|INTERRES
   185   94   95 1    
   186   94  215 1    
   187   95   96 1    
   188   95   97 1    
   189   95  216 1    
   190   96  217 1    
   191   96  218 1    
   192   96  219 1    
   193   97   98 2    
   194   97   99 am   BACKBONE|DICT|INTERRES
   195   99  100 1    
   196   99  220 1    
   197  100  101 1    
   198  100  102 1    
   199  100  221 1    
   200  101  222 1    
   201  101  223 1    
   202  101  224 1    
   203  102  103 2    
   204  102  104 am   BACKBONE|DICT|INTERRES
   205  104  105 1    
   206  104  225 1    
   207  105  106 1    
   208  105  107 1    
   209  105  226 1    
   210  106  227 1    
   211  106  228 1    
   212  106  229 1    
   213  107  108 2    
   214  107  109 am   BACKBONE|DICT|INTERRES
   215  109  110 1    
   216  109  230 1    
   217  110  111 1    
   218  110  112 1    
   219  110  231 1    
   220  111  232 1    
   221  111  233 1    
   222  111  234 1    
   223  112  113 2    
   224  112  114 am   BACKBONE|DICT|INTERRES
   225  114  115 1    
   226  114  235 1    
   227  115  116 1    
   228  115  117 1    
   229  115  236 1    
   230  116  237 1    
   231  116  238 1    
   232  116  239 1    
   233  117  118 2    
   234  117  119 am   BACKBONE|DICT|INTERRES
   235  119  120 1    
   236  119  240 1    
   237  120  121 1    
   238  120  124 1    
   239  120  241 1    
   240  121  122 am   BACKBONE|DICT|INTERRES
   241  121  123 2    
   242  122  242 1    
   243  122  243 1    
   244  124  125 1    
   245  124  244 1    
   246  124  245 1    
   247  125  126 1    
   248  126  246 1    
   249  126  247 1    
@<TRIPOS>SUBSTRUCTURE
     1 UNK         1 GROUP             0       ****    0 ROOT    
