@<TRIPOS>MOLECULE
3R540
247   249    1
SMALL
USER_CHARGES


@<TRIPOS>ATOM
      1 CA         -1.0382  -12.8371  -48.5776 C.3       0 UNK        -0.1800 
      2 C           0.0384  -13.4027  -47.6624 C.2       0 UNK         0.5000 
      3 O          -0.2591  -13.7633  -46.5249 O.2       0 UNK        -0.5000 
      4 N           1.2834  -13.4702  -48.1565 N.am      1 UNK        -0.5000 
      5 CA          2.4605  -14.0491  -47.4893 C.3       1 UNK         0.1400 
      6 C6          2.3748  -15.5886  -47.3259 C.3       23 UNK        -0.0398 
      7 S7          2.3027  -16.4654  -48.9232 S.3       23 UNK        -0.2404 
      8 C8          1.1017  -17.7844  -48.5667 C.3       23 UNK        -0.0205 
      9 C9         -0.3302  -17.3235  -48.7857 C.ar      23 UNK        -0.0193 
     10 C10        -0.9017  -17.4054  -50.0593 C.ar      23 UNK        -0.1150 
     11 C11        -2.2280  -17.0192  -50.2682 C.ar      23 UNK        -0.0193 
     12 C12        -2.9815  -16.5406  -49.1941 C.ar      23 UNK        -0.1150 
     13 C13        -2.4192  -16.4431  -47.9188 C.ar      23 UNK        -0.0193 
     14 C14        -1.0924  -16.8376  -47.7194 C.ar      23 UNK        -0.1150 
     15 C15        -3.2497  -15.9043  -46.7635 C.3       23 UNK        -0.0205 
     16 S16        -3.5316  -17.1427  -45.4607 S.3       23 UNK        -0.2404 
     17 C17        -4.2897  -18.5318  -46.3718 C.3       23 UNK        -0.0398 
     18 CA         -3.2773  -19.6555  -46.7137 C.3       11 UNK         0.1400 
     19 N          -2.4340  -20.0154  -45.5669 N.am      11 UNK        -0.5000 
     20 C          -1.4432  -20.9152  -45.5587 C.2       10 UNK         0.5000 
     21 O          -1.2001  -21.6565  -46.5106 O.2       10 UNK        -0.5000 
     22 CA         -0.5760  -21.0059  -44.2870 C.3       10 UNK         0.1400 
     23 CB          0.8991  -21.2768  -44.6330 C.3       10 UNK        -0.1800 
     24 N          -0.6549  -19.8024  -43.4524 N.am      10 UNK        -0.5000 
     25 C          -1.5090  -19.6240  -42.4336 C.2       9 UNK         0.5000 
     26 O          -2.3939  -20.4332  -42.1539 O.2       9 UNK        -0.5000 
     27 CA         -1.3711  -18.3457  -41.5805 C.3       9 UNK         0.1400 
     28 CB         -0.9710  -18.6998  -40.1389 C.3       9 UNK        -0.1800 
     29 N          -0.3744  -17.4236  -42.1214 N.am      9 UNK        -0.5000 
     30 C          -0.6402  -16.2941  -42.7905 C.2       8 UNK         0.5000 
     31 O          -1.7758  -15.8437  -42.9348 O.2       8 UNK        -0.5000 
     32 CA          0.5537  -15.5230  -43.3952 C.3       8 UNK         0.1400 
     33 CB          0.7583  -14.1892  -42.6605 C.3       8 UNK        -0.1800 
     34 N           1.8167  -16.2643  -43.3834 N.am      8 UNK        -0.5000 
     35 C           2.0731  -17.3757  -44.0846 C.2       7 UNK         0.5000 
     36 O           1.2639  -17.9000  -44.8482 O.2       7 UNK        -0.5000 
     37 CA          3.4217  -18.0647  -43.8128 C.3       7 UNK         0.1400 
     38 CB          4.5556  -17.4315  -44.6316 C.3       7 UNK        -0.1800 
     39 N           3.7664  -18.0297  -42.3910 N.am      7 UNK        -0.5000 
     40 C           3.1460  -18.7501  -41.4458 C.2       6 UNK         0.5000 
     41 O           2.2286  -19.5358  -41.6790 O.2       6 UNK        -0.5000 
     42 CA          3.6054  -18.5284  -39.9940 C.3       6 UNK         0.1400 
     43 CB          4.8601  -19.3603  -39.6884 C.3       6 UNK        -0.1800 
     44 N           3.8754  -17.1195  -39.7079 N.am      6 UNK        -0.5000 
     45 C           2.9310  -16.1723  -39.6197 C.2       5 UNK         0.5000 
     46 O           1.7249  -16.3965  -39.7155 O.2       5 UNK        -0.5000 
     47 CA          3.4208  -14.7258  -39.4179 C.3       5 UNK         0.1400 
     48 CB          3.5446  -14.4031  -37.9212 C.3       5 UNK        -0.1800 
     49 N           4.6963  -14.4373  -40.0825 N.am      5 UNK        -0.5000 
     50 C           4.8866  -14.4748  -41.4074 C.2       4 UNK         0.5000 
     51 O           4.0214  -14.8197  -42.2128 O.2       4 UNK        -0.5000 
     52 CA          6.2835  -14.1088  -41.9164 C.3       4 UNK         0.1400 
     53 CB          7.1227  -15.3718  -42.1736 C.3       4 UNK        -0.1800 
     54 N           6.1478  -13.3406  -43.1497 N.am      4 UNK        -0.5000 
     55 C           6.9955  -12.3830  -43.5465 C.2       3 UNK         0.5000 
     56 O           8.0280  -12.0966  -42.9381 O.2       3 UNK        -0.5000 
     57 CA          6.6477  -11.6002  -44.8302 C.3       3 UNK         0.1400 
     58 CB          7.4227  -12.1700  -46.0285 C.3       3 UNK        -0.1800 
     59 N           5.2223  -11.5791  -45.1621 N.am      3 UNK        -0.5000 
     60 C           4.2496  -11.0211  -44.4286 C.2       2 UNK         0.5000 
     61 O           4.4587  -10.4179  -43.3752 O.2       2 UNK        -0.5000 
     62 CA          2.8000  -11.1430  -44.9520 C.3       2 UNK         0.1400 
     63 CB          2.2256   -9.7564  -45.2853 C.3       2 UNK        -0.1800 
     64 N           2.6181  -12.0101  -46.1230 N.am      2 UNK        -0.5000 
     65 C           2.8200  -13.3351  -46.1639 C.2       1 UNK         0.5000 
     66 O           3.2957  -13.9714  -45.2245 O.2       1 UNK        -0.5000 
     67 C          -4.0091  -20.8611  -47.3357 C.2       11 UNK         0.5000 
     68 O          -4.0367  -20.9931  -48.5578 O.2       11 UNK        -0.5000 
     69 N          -4.5551  -21.7406  -46.4833 N.am      12 UNK        -0.5000 
     70 CA         -5.2558  -22.9580  -46.8976 C.3       12 UNK         0.1400 
     71 CB         -5.9962  -23.5551  -45.6921 C.3       12 UNK        -0.1800 
     72 C          -4.3203  -24.0045  -47.5292 C.2       12 UNK         0.5000 
     73 O          -4.7305  -24.6961  -48.4618 O.2       12 UNK        -0.5000 
     74 N          -3.0806  -24.0843  -47.0250 N.am      13 UNK        -0.5000 
     75 CA         -2.0312  -24.9627  -47.5391 C.3       13 UNK         0.1400 
     76 CB         -0.9274  -25.1305  -46.4834 C.3       13 UNK        -0.1800 
     77 C          -1.4567  -24.4398  -48.8654 C.2       13 UNK         0.5000 
     78 O          -1.2565  -25.2293  -49.7875 O.2       13 UNK        -0.5000 
     79 N          -1.2579  -23.1170  -48.9593 N.am      14 UNK        -0.5000 
     80 CA         -0.8467  -22.4113  -50.1757 C.3       14 UNK         0.1400 
     81 CB         -0.5747  -20.9377  -49.8417 C.3       14 UNK        -0.1800 
     82 C          -1.8853  -22.5344  -51.3062 C.2       14 UNK         0.5000 
     83 O          -1.5121  -22.7376  -52.4620 O.2       14 UNK        -0.5000 
     84 N          -3.1708  -22.4695  -50.9368 N.am      15 UNK        -0.5000 
     85 CA         -4.3059  -22.7043  -51.8252 C.3       15 UNK         0.1400 
     86 CB         -5.5582  -22.0562  -51.2133 C.3       15 UNK        -0.1800 
     87 C          -4.5690  -24.1965  -52.1102 C.2       15 UNK         0.5000 
     88 O          -5.4413  -24.5025  -52.9222 O.2       15 UNK        -0.5000 
     89 N          -3.8695  -25.1038  -51.4107 N.am      16 UNK        -0.5000 
     90 CA         -3.9830  -26.5681  -51.4741 C.3       16 UNK         0.1400 
     91 CB         -3.3988  -27.0782  -52.8072 C.3       16 UNK        -0.1800 
     92 C          -5.4138  -27.0989  -51.2200 C.2       16 UNK         0.5000 
     93 O          -5.7635  -28.1774  -51.7026 O.2       16 UNK        -0.5000 
     94 N          -6.2233  -26.3052  -50.5010 N.am      17 UNK        -0.5000 
     95 CA         -7.6683  -26.4428  -50.2916 C.3       17 UNK         0.1400 
     96 CB         -7.9597  -27.6322  -49.3539 C.3       17 UNK        -0.1800 
     97 C          -8.4987  -26.4949  -51.6001 C.2       17 UNK         0.5000 
     98 O          -9.5965  -27.0555  -51.5966 O.2       17 UNK        -0.5000 
     99 N          -7.9767  -25.9223  -52.6958 N.am      18 UNK        -0.5000 
    100 CA        -8.5496  -26.0173  -54.0414 C.3       18 UNK         0.1400 
    101 CB        -8.0676  -27.3206  -54.7093 C.3       18 UNK        -0.1800 
    102 C         -8.2340  -24.7676  -54.8861 C.2       18 UNK         0.5000 
    103 O         -8.0863  -24.8729  -56.1057 O.2       18 UNK        -0.5000 
    104 N         -8.1248  -23.6074  -54.2225 N.am      19 UNK        -0.5000 
    105 CA        -7.7365  -22.2860  -54.7362 C.3       19 UNK         0.1400 
    106 CB        -8.7058  -21.7728  -55.8188 C.3       19 UNK        -0.1800 
    107 C         -6.2689  -22.2118  -55.2000 C.2       19 UNK         0.5000 
    108 O         -5.5148  -21.4117  -54.6503 O.2       19 UNK        -0.5000 
    109 N         -5.8923  -23.0537  -56.1730 N.am      20 UNK        -0.5000 
    110 CA        -4.5483  -23.2720  -56.7198 C.3       20 UNK         0.1400 
    111 CB        -3.7839  -24.2648  -55.8177 C.3       20 UNK        -0.1800 
    112 C         -3.7771  -21.9614  -56.9994 C.2       20 UNK         0.5000 
    113 O         -4.2499  -21.1374  -57.7856 O.2       20 UNK        -0.5000 
    114 N         -2.6271  -21.7764  -56.3356 N.am      21 UNK        -0.5000 
    115 CA        -1.7560  -20.6032  -56.4343 C.3       21 UNK         0.1400 
    116 CB        -0.4647  -20.8820  -55.6495 C.3       21 UNK        -0.1800 
    117 C         -2.4000  -19.2873  -55.9527 C.2       21 UNK         0.5000 
    118 O         -1.9509  -18.2170  -56.3658 O.2       21 UNK        -0.5000 
    119 N         -3.4346  -19.3811  -55.1090 N.am      22 UNK        -0.5000 
    120 CA        -4.2451  -18.2445  -54.6502 C.3       22 UNK         0.1400 
    121 C         -5.4017  -17.8752  -55.6273 C.2       22 UNK         0.5000 
    122 N         -5.6318  -18.6067  -56.7131 N.am      22 UNK        -0.7600 
    123 O         -6.0988  -16.8889  -55.4051 O.2       22 UNK        -0.5000 
    124 C124       -4.7771  -18.4497  -53.2073 C.3       23 UNK        -0.0398 
    125 S125       -3.4695  -18.7917  -51.9792 S.3       23 UNK        -0.2404 
    126 C126       -2.8520  -17.1131  -51.6506 C.3       23 UNK        -0.0205 
    127 H127       -0.6308  -12.5235  -49.5390 H         1 UNK         0.0600 
    128 H128       -1.5134  -11.9746  -48.1106 H         1 UNK         0.0600 
    129 H129       -1.8033  -13.5908  -48.7633 H         1 UNK         0.0600 
    130 H130        1.4456  -13.1517  -49.1015 H         1 UNK         0.3000 
    131 H131        3.3037  -13.8440  -48.1506 H         1 UNK         0.0600 
    132 H132        3.2553  -15.9673  -46.8093 H         1 UNK         0.0800 
    133 H133        1.5186  -15.8558  -46.7070 H         1 UNK         0.0800 
    134 H134        1.3149  -18.6284  -49.2234 H         1 UNK         0.0800 
    135 H135        1.2369  -18.1553  -47.5496 H         1 UNK         0.0800 
    136 H136       -0.3174  -17.7808  -50.8875 H         1 UNK         0.1150 
    137 H137       -4.0082  -16.2425  -49.3535 H         1 UNK         0.1150 
    138 H138       -0.6600  -16.7718  -46.7306 H         1 UNK         0.1150 
    139 H139       -2.7337  -15.0486  -46.3257 H         1 UNK         0.0800 
    140 H140       -4.2140  -15.5340  -47.1144 H         1 UNK         0.0800 
    141 H141       -4.7657  -18.1558  -47.2792 H         1 UNK         0.0800 
    142 H142       -5.0959  -18.9198  -45.7466 H         1 UNK         0.0800 
    143 H143       -2.6006  -19.2759  -47.4810 H         1 UNK         0.0600 
    144 H144       -2.5495  -19.4387  -44.7464 H         1 UNK         0.3000 
    145 H145       -0.9400  -21.8638  -43.7185 H         1 UNK         0.0600 
    146 H146        1.5177  -21.3054  -43.7360 H         1 UNK         0.0600 
    147 H147        1.0145  -22.2385  -45.1343 H         1 UNK         0.0600 
    148 H148        1.3040  -20.5134  -45.2975 H         1 UNK         0.0600 
    149 H149        0.0035  -19.0661  -43.6814 H         1 UNK         0.3000 
    150 H150       -2.3534  -17.8701  -41.5520 H         1 UNK         0.0600 
    151 H151       -0.8979  -17.8049  -39.5204 H         1 UNK         0.0600 
    152 H152       -1.7088  -19.3557  -39.6753 H         1 UNK         0.0600 
    153 H153       -0.0077  -19.2096  -40.1014 H         1 UNK         0.0600 
    154 H154        0.5922  -17.6975  -42.0087 H         1 UNK         0.3000 
    155 H155        0.3073  -15.3087  -44.4362 H         1 UNK         0.0600 
    156 H156        0.9635  -14.3450  -41.6014 H         1 UNK         0.0600 
    157 H157       -0.1290  -13.5599  -42.7371 H         1 UNK         0.0600 
    158 H158        1.5915  -13.6295  -43.0835 H         1 UNK         0.0600 
    159 H159        2.5688  -15.8552  -42.8340 H         1 UNK         0.3000 
    160 H160        3.3321  -19.1107  -44.1142 H         1 UNK         0.0600 
    161 H161        4.6247  -16.3553  -44.4677 H         1 UNK         0.0600 
    162 H162        4.3988  -17.5978  -45.6971 H         1 UNK         0.0600 
    163 H163        5.5199  -17.8729  -44.3797 H         1 UNK         0.0600 
    164 H164        4.4682  -17.3614  -42.1108 H         1 UNK         0.3000 
    165 H165        2.8030  -18.8662  -39.3343 H         1 UNK         0.0600 
    166 H166        5.1507  -19.2648  -38.6421 H         1 UNK         0.0600 
    167 H167        4.6812  -20.4193  -39.8796 H         1 UNK         0.0600 
    168 H168        5.7083  -19.0545  -40.3021 H         1 UNK         0.0600 
    169 H169        4.8416  -16.8472  -39.6050 H         1 UNK         0.3000 
    170 H170        2.6669  -14.0623  -39.8462 H         1 UNK         0.0600 
    171 H171        2.6024  -14.5870  -37.4031 H         1 UNK         0.0600 
    172 H172        4.3091  -15.0135  -37.4389 H         1 UNK         0.0600 
    173 H173        3.8010  -13.3554  -37.7631 H         1 UNK         0.0600 
    174 H174        5.4604  -14.1581  -39.4839 H         1 UNK         0.3000 
    175 H175        6.7755  -13.4987  -41.1558 H         1 UNK         0.0600 
    176 H176        6.6776  -15.9998  -42.9456 H         1 UNK         0.0600 
    177 H177        8.1321  -15.1145  -42.4951 H         1 UNK         0.0600 
    178 H178        7.2141  -15.9741  -41.2689 H         1 UNK         0.0600 
    179 H179        5.2942  -13.5098  -43.6708 H         1 UNK         0.3000 
    180 H180        6.9664  -10.5672  -44.6763 H         1 UNK         0.0600 
    181 H181        7.1247  -13.1961  -46.2477 H         1 UNK         0.0600 
    182 H182        8.4962  -12.1744  -45.8341 H         1 UNK         0.0600 
    183 H183        7.2595  -11.5725  -46.9256 H         1 UNK         0.0600 
    184 H184        4.9497  -12.0643  -46.0032 H         1 UNK         0.3000 
    185 H185        2.2089  -11.5648  -44.1375 H         1 UNK         0.0600 
    186 H186        2.2887   -9.0863  -44.4268 H         1 UNK         0.0600 
    187 H187        2.7648   -9.2866  -46.1087 H         1 UNK         0.0600 
    188 H188        1.1737   -9.8215  -45.5646 H         1 UNK         0.0600 
    189 H189        2.2351  -11.5691  -46.9465 H         1 UNK         0.3000 
    190 H190       -4.4733  -21.5723  -45.4911 H         1 UNK         0.3000 
    191 H191       -5.9983  -22.6831  -47.6499 H         1 UNK         0.0600 
    192 H192       -6.7211  -22.8497  -45.2856 H         1 UNK         0.0600 
    193 H193       -6.5441  -24.4543  -45.9774 H         1 UNK         0.0600 
    194 H194       -5.3084  -23.8298  -44.8914 H         1 UNK         0.0600 
    195 H195       -2.8088  -23.4302  -46.3055 H         1 UNK         0.3000 
    196 H196       -2.4679  -25.9459  -47.7280 H         1 UNK         0.0600 
    197 H197       -0.1573  -25.8187  -46.8341 H         1 UNK         0.0600 
    198 H198       -1.3286  -25.5380  -45.5554 H         1 UNK         0.0600 
    199 H199       -0.4376  -24.1852  -46.2503 H         1 UNK         0.0600 
    200 H200       -1.3983  -22.5463  -48.1284 H         1 UNK         0.3000 
    201 H201        0.0845  -22.8619  -50.5247 H         1 UNK         0.0600 
    202 H202        0.1816  -20.8436  -49.0626 H         1 UNK         0.0600 
    203 H203       -1.4749  -20.4290  -49.4950 H         1 UNK         0.0600 
    204 H204       -0.2132  -20.4000  -50.7189 H         1 UNK         0.0600 
    205 H205       -3.3929  -22.2066  -49.9812 H         1 UNK         0.3000 
    206 H206       -4.0899  -22.2199  -52.7767 H         1 UNK         0.0600 
    207 H207       -5.4092  -20.9895  -51.0471 H         1 UNK         0.0600 
    208 H208       -6.4191  -22.1616  -51.8733 H         1 UNK         0.0600 
    209 H209       -5.8180  -22.5109  -50.2568 H         1 UNK         0.0600 
    210 H210       -3.1830  -24.7591  -50.7524 H         1 UNK         0.3000 
    211 H211       -3.3651  -26.9583  -50.6645 H         1 UNK         0.0600 
    212 H212       -4.0125  -26.7764  -53.6566 H         1 UNK         0.0600 
    213 H213       -3.3350  -28.1668  -52.8186 H         1 UNK         0.0600 
    214 H214       -2.3915  -26.6938  -52.9680 H         1 UNK         0.0600 
    215 H215       -5.7966  -25.4870  -50.0790 H         1 UNK         0.3000 
    216 H216       -7.9825  -25.5343  -49.7764 H         1 UNK         0.0600 
    217 H217       -9.0113  -27.6589  -49.0664 H         1 UNK         0.0600 
    218 H218       -7.3768  -27.5609  -48.4355 H         1 UNK         0.0600 
    219 H219       -7.7251  -28.5860  -49.8272 H         1 UNK         0.0600 
    220 H220       -7.0614  -25.4788  -52.6422 H         1 UNK         0.3000 
    221 H221       -9.6382  -26.0537  -53.9676 H         1 UNK         0.0600 
    222 H222       -6.9835  -27.3256  -54.8305 H         1 UNK         0.0600 
    223 H223       -8.3405  -28.1940  -54.1170 H         1 UNK         0.0600 
    224 H224       -8.5133  -27.4501  -55.6962 H         1 UNK         0.0600 
    225 H225       -8.2412  -23.6527  -53.2204 H         1 UNK         0.3000 
    226 H226       -7.8255  -21.6075  -53.8864 H         1 UNK         0.0600 
    227 H227       -9.7326  -21.7611  -55.4533 H         1 UNK         0.0600 
    228 H228       -8.4522  -20.7525  -56.1094 H         1 UNK         0.0600 
    229 H229       -8.6790  -22.3814  -56.7226 H         1 UNK         0.0600 
    230 H230       -6.6115  -23.6855  -56.5124 H         1 UNK         0.3000 
    231 H231       -4.6899  -23.7513  -57.6893 H         1 UNK         0.0600 
    232 H232       -3.5731  -23.8437  -54.8350 H         1 UNK         0.0600 
    233 H233       -2.8347  -24.5595  -56.2668 H         1 UNK         0.0600 
    234 H234       -4.3618  -25.1766  -55.6648 H         1 UNK         0.0600 
    235 H235       -2.3342  -22.4907  -55.6846 H         1 UNK         0.3000 
    236 H236       -1.4968  -20.4714  -57.4867 H         1 UNK         0.0600 
    237 H237        0.0473  -21.7661  -56.0296 H         1 UNK         0.0600 
    238 H238        0.2308  -20.0455  -55.7295 H         1 UNK         0.0600 
    239 H239       -0.6671  -21.0396  -54.5891 H         1 UNK         0.0600 
    240 H240       -3.7943  -20.2955  -54.8587 H         1 UNK         0.3000 
    241 H241       -3.6035  -17.3622  -54.6216 H         1 UNK         0.0600 
    242 H242       -5.0720  -19.4251  -56.9226 H         1 UNK         0.3800 
    243 H243       -6.3772  -18.3417  -57.3367 H         1 UNK         0.3800 
    244 H244       -5.3429  -17.5774  -52.8766 H         1 UNK         0.0800 
    245 H245       -5.4810  -19.2818  -53.1791 H         1 UNK         0.0800 
    246 H246       -2.1195  -16.8440  -52.4130 H         1 UNK         0.0800 
    247 H247       -3.6641  -16.3898  -51.7362 H         1 UNK         0.0800 
@<TRIPOS>BOND
     1    1    2 1    
     2    1  127 1    
     3    1  128 1    
     4    1  129 1    
     5    2    3 2    
     6    2    4 am   BACKBONE|DICT|INTERRES
     7    4    5 1    
     8    4  130 1    
     9    5    6 1    
    10    5   65 1    
    11    5  131 1    
    12    6    7 1    
    13    6  132 1    
    14    6  133 1    
    15    7    8 1    
    16    8    9 1    
    17    8  134 1    
    18    8  135 1    
    19    9   10 ar   
    20    9   14 ar   
    21   10   11 ar   
    22   10  136 1    
    23   11   12 ar   
    24   11  126 1    
    25   12   13 ar   
    26   12  137 1    
    27   13   14 ar   
    28   13   15 1    
    29   14  138 1    
    30   15   16 1    
    31   15  139 1    
    32   15  140 1    
    33   16   17 1    
    34   17   18 1    
    35   17  141 1    
    36   17  142 1    
    37   18   19 1    
    38   18   67 1    
    39   18  143 1    
    40   19   20 am   BACKBONE|DICT|INTERRES
    41   19  144 1    
    42   20   21 2    
    43   20   22 1    
    44   22   23 1    
    45   22   24 1    
    46   22  145 1    
    47   23  146 1    
    48   23  147 1    
    49   23  148 1    
    50   24   25 am   BACKBONE|DICT|INTERRES
    51   24  149 1    
    52   25   26 2    
    53   25   27 1    
    54   27   28 1    
    55   27   29 1    
    56   27  150 1    
    57   28  151 1    
    58   28  152 1    
    59   28  153 1    
    60   29   30 am   BACKBONE|DICT|INTERRES
    61   29  154 1    
    62   30   31 2    
    63   30   32 1    
    64   32   33 1    
    65   32   34 1    
    66   32  155 1    
    67   33  156 1    
    68   33  157 1    
    69   33  158 1    
    70   34   35 am   BACKBONE|DICT|INTERRES
    71   34  159 1    
    72   35   36 2    
    73   35   37 1    
    74   37   38 1    
    75   37   39 1    
    76   37  160 1    
    77   38  161 1    
    78   38  162 1    
    79   38  163 1    
    80   39   40 am   BACKBONE|DICT|INTERRES
    81   39  164 1    
    82   40   41 2    
    83   40   42 1    
    84   42   43 1    
    85   42   44 1    
    86   42  165 1    
    87   43  166 1    
    88   43  167 1    
    89   43  168 1    
    90   44   45 am   BACKBONE|DICT|INTERRES
    91   44  169 1    
    92   45   46 2    
    93   45   47 1    
    94   47   48 1    
    95   47   49 1    
    96   47  170 1    
    97   48  171 1    
    98   48  172 1    
    99   48  173 1    
   100   49   50 am   BACKBONE|DICT|INTERRES
   101   49  174 1    
   102   50   51 2    
   103   50   52 1    
   104   52   53 1    
   105   52   54 1    
   106   52  175 1    
   107   53  176 1    
   108   53  177 1    
   109   53  178 1    
   110   54   55 am   BACKBONE|DICT|INTERRES
   111   54  179 1    
   112   55   56 2    
   113   55   57 1    
   114   57   58 1    
   115   57   59 1    
   116   57  180 1    
   117   58  181 1    
   118   58  182 1    
   119   58  183 1    
   120   59   60 am   BACKBONE|DICT|INTERRES
   121   59  184 1    
   122   60   61 2    
   123   60   62 1    
   124   62   63 1    
   125   62   64 1    
   126   62  185 1    
   127   63  186 1    
   128   63  187 1    
   129   63  188 1    
   130   64   65 am   BACKBONE|DICT|INTERRES
   131   64  189 1    
   132   65   66 2    
   133   67   68 2    
   134   67   69 am   BACKBONE|DICT|INTERRES
   135   69   70 1    
   136   69  190 1    
   137   70   71 1    
   138   70   72 1    
   139   70  191 1    
   140   71  192 1    
   141   71  193 1    
   142   71  194 1    
   143   72   73 2    
   144   72   74 am   BACKBONE|DICT|INTERRES
   145   74   75 1    
   146   74  195 1    
   147   75   76 1    
   148   75   77 1    
   149   75  196 1    
   150   76  197 1    
   151   76  198 1    
   152   76  199 1    
   153   77   78 2    
   154   77   79 am   BACKBONE|DICT|INTERRES
   155   79   80 1    
   156   79  200 1    
   157   80   81 1    
   158   80   82 1    
   159   80  201 1    
   160   81  202 1    
   161   81  203 1    
   162   81  204 1    
   163   82   83 2    
   164   82   84 am   BACKBONE|DICT|INTERRES
   165   84   85 1    
   166   84  205 1    
   167   85   86 1    
   168   85   87 1    
   169   85  206 1    
   170   86  207 1    
   171   86  208 1    
   172   86  209 1    
   173   87   88 2    
   174   87   89 am   BACKBONE|DICT|INTERRES
   175   89   90 1    
   176   89  210 1    
   177   90   91 1    
   178   90   92 1    
   179   90  211 1    
   180   91  212 1    
   181   91  213 1    
   182   91  214 1    
   183   92   93 2    
   184   92   94 am   BACKBONE|DICT|INTERRES
   185   94   95 1    
   186   94  215 1    
   187   95   96 1    
   188   95   97 1    
   189   95  216 1    
   190   96  217 1    
   191   96  218 1    
   192   96  219 1    
   193   97   98 2    
   194   97   99 am   BACKBONE|DICT|INTERRES
   195   99  100 1    
   196   99  220 1    
   197  100  101 1    
   198  100  102 1    
   199  100  221 1    
   200  101  222 1    
   201  101  223 1    
   202  101  224 1    
   203  102  103 2    
   204  102  104 am   BACKBONE|DICT|INTERRES
   205  104  105 1    
   206  104  225 1    
   207  105  106 1    
   208  105  107 1    
   209  105  226 1    
   210  106  227 1    
   211  106  228 1    
   212  106  229 1    
   213  107  108 2    
   214  107  109 am   BACKBONE|DICT|INTERRES
   215  109  110 1    
   216  109  230 1    
   217  110  111 1    
   218  110  112 1    
   219  110  231 1    
   220  111  232 1    
   221  111  233 1    
   222  111  234 1    
   223  112  113 2    
   224  112  114 am   BACKBONE|DICT|INTERRES
   225  114  115 1    
   226  114  235 1    
   227  115  116 1    
   228  115  117 1    
   229  115  236 1    
   230  116  237 1    
   231  116  238 1    
   232  116  239 1    
   233  117  118 2    
   234  117  119 am   BACKBONE|DICT|INTERRES
   235  119  120 1    
   236  119  240 1    
   237  120  121 1    
   238  120  124 1    
   239  120  241 1    
   240  121  122 am   BACKBONE|DICT|INTERRES
   241  121  123 2    
   242  122  242 1    
   243  122  243 1    
   244  124  125 1    
   245  124  244 1    
   246  124  245 1    
   247  125  126 1    
   248  126  246 1    
   249  126  247 1    
@<TRIPOS>SUBSTRUCTURE
     1 UNK         1 GROUP             0       ****    0 ROOT    
