@<TRIPOS>MOLECULE
3R540
247   249    1
SMALL
USER_CHARGES


@<TRIPOS>ATOM
      1 CA         -4.1665  -10.9695  -50.2596 C.3       0 UNK        -0.1800 
      2 C          -3.7115  -11.8551  -49.1092 C.2       0 UNK         0.5000 
      3 O          -2.5258  -11.8755  -48.7819 O.2       0 UNK        -0.5000 
      4 N          -4.6507  -12.5704  -48.4763 N.am      1 UNK        -0.5000 
      5 CA         -4.3973  -13.5448  -47.4026 C.3       1 UNK         0.1400 
      6 C6         -5.6207  -14.4606  -47.1412 C.3       23 UNK        -0.0398 
      7 S7         -6.1668  -15.3600  -48.6344 S.3       23 UNK        -0.2404 
      8 C8         -5.2931  -16.9488  -48.4543 C.3       23 UNK        -0.0205 
      9 C9         -3.7830  -16.7701  -48.4889 C.ar      23 UNK        -0.0193 
     10 C10        -3.1397  -16.4832  -49.6966 C.ar      23 UNK        -0.1150 
     11 C11        -1.7542  -16.3028  -49.7396 C.ar      23 UNK        -0.0193 
     12 C12        -1.0158  -16.3882  -48.5572 C.ar      23 UNK        -0.1150 
     13 C13        -1.6468  -16.6732  -47.3435 C.ar      23 UNK        -0.0193 
     14 C14        -3.0300  -16.8723  -47.3145 C.ar      23 UNK        -0.1150 
     15 C15        -0.8239  -16.7597  -46.0707 C.3       23 UNK        -0.0205 
     16 S16        -0.1824  -18.4438  -45.8094 S.3       23 UNK        -0.2404 
     17 C17        -1.4872  -19.2014  -44.7850 C.3       23 UNK        -0.0398 
     18 CA         -2.1363  -20.4649  -45.4037 C.3       11 UNK         0.1400 
     19 N          -1.1662  -21.5141  -45.7494 N.am      11 UNK        -0.5000 
     20 C          -1.4798  -22.6765  -46.3429 C.2       10 UNK         0.5000 
     21 O          -2.6111  -22.9613  -46.7325 O.2       10 UNK        -0.5000 
     22 CA         -0.3659  -23.7225  -46.4863 C.3       10 UNK         0.1400 
     23 CB          0.4501  -23.4803  -47.7654 C.3       10 UNK        -0.1800 
     24 N           0.5060  -23.7410  -45.3124 N.am      10 UNK        -0.5000 
     25 C           0.1394  -24.2249  -44.1158 C.2       9 UNK         0.5000 
     26 O          -0.9569  -24.7384  -43.8959 O.2       9 UNK        -0.5000 
     27 CA          1.1412  -24.0656  -42.9574 C.3       9 UNK         0.1400 
     28 CB          2.1674  -25.2079  -42.9680 C.3       9 UNK        -0.1800 
     29 N           1.8410  -22.7821  -42.9929 N.am      9 UNK        -0.5000 
     30 C           1.2473  -21.5910  -42.8342 C.2       8 UNK         0.5000 
     31 O           0.0534  -21.4552  -42.5654 O.2       8 UNK        -0.5000 
     32 CA          2.1223  -20.3446  -43.0708 C.3       8 UNK         0.1400 
     33 CB          2.7657  -19.8763  -41.7580 C.3       8 UNK        -0.1800 
     34 N           3.1706  -20.5338  -44.0789 N.am      8 UNK        -0.5000 
     35 C           2.9694  -20.8770  -45.3582 C.2       7 UNK         0.5000 
     36 O           1.8582  -21.1511  -45.8113 O.2       7 UNK        -0.5000 
     37 CA          4.2131  -20.9327  -46.2716 C.3       7 UNK         0.1400 
     38 CB          3.8473  -21.1581  -47.7501 C.3       7 UNK        -0.1800 
     39 N           5.0235  -19.7185  -46.1709 N.am      7 UNK        -0.5000 
     40 C           5.8980  -19.4355  -45.1964 C.2       6 UNK         0.5000 
     41 O           6.1365  -20.1949  -44.2565 O.2       6 UNK        -0.5000 
     42 CA          6.5910  -18.0610  -45.2621 C.3       6 UNK         0.1400 
     43 CB          7.9423  -18.1741  -45.9840 C.3       6 UNK        -0.1800 
     44 N           5.7775  -17.0346  -45.9212 N.am      6 UNK        -0.5000 
     45 C           4.6453  -16.5270  -45.4163 C.2       5 UNK         0.5000 
     46 O           4.1579  -16.8767  -44.3382 O.2       5 UNK        -0.5000 
     47 CA          3.9259  -15.4765  -46.2837 C.3       5 UNK         0.1400 
     48 CB          2.9465  -16.1609  -47.2501 C.3       5 UNK        -0.1800 
     49 N           3.1945  -14.5066  -45.4693 N.am      5 UNK        -0.5000 
     50 C           3.7612  -13.6071  -44.6563 C.2       4 UNK         0.5000 
     51 O           4.9793  -13.4334  -44.5762 O.2       4 UNK        -0.5000 
     52 CA          2.7942  -12.7361  -43.8295 C.3       4 UNK         0.1400 
     53 CB          3.5200  -11.8651  -42.7878 C.3       4 UNK        -0.1800 
     54 N           2.0005  -11.8661  -44.6965 N.am      4 UNK        -0.5000 
     55 C           0.8993  -12.2349  -45.3600 C.2       3 UNK         0.5000 
     56 O           0.4243  -13.3726  -45.3188 O.2       3 UNK        -0.5000 
     57 CA          0.2460  -11.1585  -46.2462 C.3       3 UNK         0.1400 
     58 CB          0.5630  -11.4243  -47.7256 C.3       3 UNK        -0.1800 
     59 N          -1.2042  -11.1014  -46.0642 N.am      3 UNK        -0.5000 
     60 C          -1.8194  -10.7466  -44.9245 C.2       2 UNK         0.5000 
     61 O          -1.2163  -10.3663  -43.9196 O.2       2 UNK        -0.5000 
     62 CA         -3.3625  -10.7988  -44.8896 C.3       2 UNK         0.1400 
     63 CB         -3.9508   -9.3797  -44.9384 C.3       2 UNK        -0.1800 
     64 N          -3.9435  -11.5818  -45.9793 N.am      2 UNK        -0.5000 
     65 C          -3.8927  -12.9166  -46.0834 C.2       1 UNK         0.5000 
     66 O          -3.4545  -13.6473  -45.1945 O.2       1 UNK        -0.5000 
     67 C          -3.2234  -20.9963  -44.4459 C.2       11 UNK         0.5000 
     68 O          -4.4020  -20.6984  -44.6360 O.2       11 UNK        -0.5000 
     69 N          -2.8013  -21.7797  -43.4446 N.am      12 UNK        -0.5000 
     70 CA         -3.6724  -22.3937  -42.4495 C.3       12 UNK         0.1400 
     71 CB         -2.8284  -22.8404  -41.2445 C.3       12 UNK        -0.1800 
     72 C          -4.4932  -23.5670  -43.0140 C.2       12 UNK         0.5000 
     73 O          -5.7188  -23.5600  -42.8928 O.2       12 UNK        -0.5000 
     74 N          -3.8088  -24.5704  -43.5799 N.am      13 UNK        -0.5000 
     75 CA         -4.4115  -25.8591  -43.9239 C.3       13 UNK         0.1400 
     76 CB         -3.3326  -26.9523  -43.8743 C.3       13 UNK        -0.1800 
     77 C          -5.1135  -25.8756  -45.2905 C.2       13 UNK         0.5000 
     78 O          -6.1516  -26.5260  -45.4203 O.2       13 UNK        -0.5000 
     79 N          -4.5258  -25.2038  -46.2880 N.am      14 UNK        -0.5000 
     80 CA         -4.9385  -25.2941  -47.6921 C.3       14 UNK         0.1400 
     81 CB         -3.7091  -25.6926  -48.5275 C.3       14 UNK        -0.1800 
     82 C          -5.5483  -23.9878  -48.2287 C.2       14 UNK         0.5000 
     83 O          -6.0462  -23.9855  -49.3541 O.2       14 UNK        -0.5000 
     84 N          -5.4672  -22.9026  -47.4435 N.am      15 UNK        -0.5000 
     85 CA         -5.7745  -21.5167  -47.8170 C.3       15 UNK         0.1400 
     86 CB         -7.2875  -21.3157  -48.0398 C.3       15 UNK        -0.1800 
     87 C          -4.8918  -21.0015  -48.9768 C.2       15 UNK         0.5000 
     88 O          -5.3602  -20.2161  -49.8014 O.2       15 UNK        -0.5000 
     89 N          -3.6320  -21.4686  -48.9889 N.am      16 UNK        -0.5000 
     90 CA         -2.4991  -21.1673  -49.8706 C.3       16 UNK         0.1400 
     91 CB         -1.6505  -20.0393  -49.2666 C.3       16 UNK        -0.1800 
     92 C          -2.8445  -20.9289  -51.3534 C.2       16 UNK         0.5000 
     93 O          -2.7400  -21.8597  -52.1529 O.2       16 UNK        -0.5000 
     94 N          -3.2562  -19.7016  -51.7020 N.am      17 UNK        -0.5000 
     95 CA         -3.6912  -19.2953  -53.0419 C.3       17 UNK         0.1400 
     96 CB         -4.0588  -17.8061  -53.0375 C.3       17 UNK        -0.1800 
     97 C          -4.8644  -20.1203  -53.6020 C.2       17 UNK         0.5000 
     98 O          -4.9364  -20.3068  -54.8163 O.2       17 UNK        -0.5000 
     99 N          -5.7233  -20.6532  -52.7213 N.am      18 UNK        -0.5000 
    100 CA        -6.8040  -21.5786  -53.0761 C.3       18 UNK         0.1400 
    101 CB        -7.7043  -21.7891  -51.8531 C.3       18 UNK        -0.1800 
    102 C         -6.2977  -22.9355  -53.6128 C.2       18 UNK         0.5000 
    103 O         -7.0153  -23.5919  -54.3680 O.2       18 UNK        -0.5000 
    104 N         -5.0666  -23.3111  -53.2420 N.am      19 UNK        -0.5000 
    105 CA        -4.3360  -24.4768  -53.7397 C.3       19 UNK         0.1400 
    106 CB        -3.7425  -25.2238  -52.5337 C.3       19 UNK        -0.1800 
    107 C         -3.2378  -24.0715  -54.7476 C.2       19 UNK         0.5000 
    108 O         -2.4125  -24.9105  -55.1105 O.2       19 UNK        -0.5000 
    109 N         -3.2386  -22.7972  -55.1722 N.am      20 UNK        -0.5000 
    110 CA        -2.3020  -22.1437  -56.0923 C.3       20 UNK         0.1400 
    111 CB        -2.3740  -22.7800  -57.4960 C.3       20 UNK        -0.1800 
    112 C         -0.8551  -22.0344  -55.5634 C.2       20 UNK         0.5000 
    113 O          0.0615  -21.8123  -56.3573 O.2       20 UNK        -0.5000 
    114 N         -0.6596  -22.1459  -54.2395 N.am      21 UNK        -0.5000 
    115 CA         0.6575  -22.1052  -53.5907 C.3       21 UNK         0.1400 
    116 CB         0.5188  -22.5175  -52.1166 C.3       21 UNK        -0.1800 
    117 C          1.3561  -20.7353  -53.7022 C.2       21 UNK         0.5000 
    118 O          2.5862  -20.6776  -53.6891 O.2       21 UNK        -0.5000 
    119 N          0.5583  -19.6684  -53.8289 N.am      22 UNK        -0.5000 
    120 CA         1.0145  -18.2824  -54.0288 C.3       22 UNK         0.1400 
    121 C          1.3483  -17.9375  -55.5113 C.2       22 UNK         0.5000 
    122 N          1.1848  -18.8448  -56.4687 N.am      22 UNK        -0.7600 
    123 O          1.7753  -16.8232  -55.8008 O.2       22 UNK        -0.5000 
    124 C124        0.0232  -17.2546  -53.4177 C.3       23 UNK        -0.0398 
    125 S125       -0.3257  -17.6127  -51.6653 S.3       23 UNK        -0.2404 
    126 C126       -1.0462  -16.0574  -51.0626 C.3       23 UNK        -0.0205 
    127 H127       -5.2415  -11.0416  -50.4263 H         1 UNK         0.0600 
    128 H128       -3.9227   -9.9279  -50.0504 H         1 UNK         0.0600 
    129 H129       -3.6592  -11.2616  -51.1791 H         1 UNK         0.0600 
    130 H130       -5.6092  -12.5151  -48.7909 H         1 UNK         0.3000 
    131 H131       -3.5742  -14.1698  -47.7490 H         1 UNK         0.0600 
    132 H132       -5.4030  -15.1877  -46.3567 H         1 UNK         0.0800 
    133 H133       -6.4627  -13.8697  -46.7770 H         1 UNK         0.0800 
    134 H134       -5.5958  -17.6074  -49.2692 H         1 UNK         0.0800 
    135 H135       -5.6079  -17.4394  -47.5321 H         1 UNK         0.0800 
    136 H136       -3.7234  -16.3980  -50.6004 H         1 UNK         0.1150 
    137 H137        0.0563  -16.2544  -48.5860 H         1 UNK         0.1150 
    138 H138       -3.5202  -17.0896  -46.3763 H         1 UNK         0.1150 
    139 H139       -1.4052  -16.4236  -45.2110 H         1 UNK         0.0800 
    140 H140        0.0177  -16.0697  -46.1378 H         1 UNK         0.0800 
    141 H141       -2.2581  -18.4564  -44.5824 H         1 UNK         0.0800 
    142 H142       -1.0432  -19.4319  -43.8165 H         1 UNK         0.0800 
    143 H143       -2.6360  -20.1670  -46.3277 H         1 UNK         0.0600 
    144 H144       -0.1937  -21.3297  -45.5258 H         1 UNK         0.3000 
    145 H145       -0.8377  -24.7038  -46.5728 H         1 UNK         0.0600 
    146 H146        1.2779  -24.1845  -47.8479 H         1 UNK         0.0600 
    147 H147       -0.1746  -23.6086  -48.6501 H         1 UNK         0.0600 
    148 H148        0.8596  -22.4712  -47.8056 H         1 UNK         0.0600 
    149 H149        1.3771  -23.2338  -45.3929 H         1 UNK         0.3000 
    150 H150        0.5792  -24.1189  -42.0225 H         1 UNK         0.0600 
    151 H151        2.7798  -25.1927  -43.8704 H         1 UNK         0.0600 
    152 H152        1.6706  -26.1781  -42.9243 H         1 UNK         0.0600 
    153 H153        2.8343  -25.1466  -42.1078 H         1 UNK         0.0600 
    154 H154        2.8260  -22.8013  -43.2117 H         1 UNK         0.3000 
    155 H155        1.4668  -19.5494  -43.4296 H         1 UNK         0.0600 
    156 H156        3.4668  -20.6149  -41.3674 H         1 UNK         0.0600 
    157 H157        2.0089  -19.7020  -40.9919 H         1 UNK         0.0600 
    158 H158        3.3068  -18.9400  -41.8984 H         1 UNK         0.0600 
    159 H159        4.1228  -20.3373  -43.7926 H         1 UNK         0.3000 
    160 H160        4.8128  -21.7847  -45.9449 H         1 UNK         0.0600 
    161 H161        3.2046  -20.3634  -48.1317 H         1 UNK         0.0600 
    162 H162        3.3180  -22.1022  -47.8828 H         1 UNK         0.0600 
    163 H163        4.7386  -21.1997  -48.3763 H         1 UNK         0.0600 
    164 H164        4.8634  -19.0167  -46.8779 H         1 UNK         0.3000 
    165 H165        6.7786  -17.7382  -44.2357 H         1 UNK         0.0600 
    166 H166        8.4785  -17.2250  -45.9691 H         1 UNK         0.0600 
    167 H167        7.8197  -18.4756  -47.0250 H         1 UNK         0.0600 
    168 H168        8.5820  -18.9143  -45.5012 H         1 UNK         0.0600 
    169 H169        6.1150  -16.6966  -46.8112 H         1 UNK         0.3000 
    170 H170        4.6696  -14.9311  -46.8685 H         1 UNK         0.0600 
    171 H171        3.4752  -16.8105  -47.9485 H         1 UNK         0.0600 
    172 H172        2.2245  -16.7790  -46.7166 H         1 UNK         0.0600 
    173 H173        2.3943  -15.4301  -47.8414 H         1 UNK         0.0600 
    174 H174        2.1828  -14.5600  -45.4838 H         1 UNK         0.3000 
    175 H175        2.1275  -13.4107  -43.2878 H         1 UNK         0.0600 
    176 H176        4.1952  -11.1488  -43.2578 H         1 UNK         0.0600 
    177 H177        2.8092  -11.3056  -42.1793 H         1 UNK         0.0600 
    178 H178        4.1125  -12.4801  -42.1093 H         1 UNK         0.0600 
    179 H179        2.3467  -10.9245  -44.8122 H         1 UNK         0.3000 
    180 H180        0.6532  -10.1812  -45.9788 H         1 UNK         0.0600 
    181 H181        0.1642  -12.3852  -48.0546 H         1 UNK         0.0600 
    182 H182        1.6397  -11.4390  -47.8993 H         1 UNK         0.0600 
    183 H183        0.1397  -10.6502  -48.3661 H         1 UNK         0.0600 
    184 H184       -1.7645  -11.4159  -46.8482 H         1 UNK         0.3000 
    185 H185       -3.6529  -11.2576  -43.9422 H         1 UNK         0.0600 
    186 H186       -5.0371   -9.3991  -44.8490 H         1 UNK         0.0600 
    187 H187       -3.5701   -8.7696  -44.1182 H         1 UNK         0.0600 
    188 H188       -3.6982   -8.8716  -45.8700 H         1 UNK         0.0600 
    189 H189       -4.3190  -11.0630  -46.7597 H         1 UNK         0.3000 
    190 H190       -1.8045  -21.9314  -43.3318 H         1 UNK         0.3000 
    191 H191       -4.3758  -21.6356  -42.0983 H         1 UNK         0.0600 
    192 H192       -3.4522  -23.3050  -40.4799 H         1 UNK         0.0600 
    193 H193       -2.3251  -21.9910  -40.7821 H         1 UNK         0.0600 
    194 H194       -2.0631  -23.5630  -41.5296 H         1 UNK         0.0600 
    195 H195       -2.7955  -24.5110  -43.6545 H         1 UNK         0.3000 
    196 H196       -5.1595  -26.1072  -43.1673 H         1 UNK         0.0600 
    197 H197       -2.5615  -26.7930  -44.6290 H         1 UNK         0.0600 
    198 H198       -2.8455  -26.9832  -42.8994 H         1 UNK         0.0600 
    199 H199       -3.7661  -27.9371  -44.0530 H         1 UNK         0.0600 
    200 H200       -3.6960  -24.6536  -46.1002 H         1 UNK         0.3000 
    201 H201       -5.6940  -26.0712  -47.8239 H         1 UNK         0.0600 
    202 H202       -2.9395  -24.9205  -48.5156 H         1 UNK         0.0600 
    203 H203       -3.9838  -25.8630  -49.5678 H         1 UNK         0.0600 
    204 H204       -3.2632  -26.6161  -48.1579 H         1 UNK         0.0600 
    205 H205       -5.0088  -23.0175  -46.5501 H         1 UNK         0.3000 
    206 H206       -5.5004  -20.9025  -46.9606 H         1 UNK         0.0600 
    207 H207       -7.8498  -21.5823  -47.1451 H         1 UNK         0.0600 
    208 H208       -7.5179  -20.2739  -48.2658 H         1 UNK         0.0600 
    209 H209       -7.6680  -21.9211  -48.8601 H         1 UNK         0.0600 
    210 H210       -3.4037  -22.1199  -48.2427 H         1 UNK         0.3000 
    211 H211       -1.8803  -22.0655  -49.8559 H         1 UNK         0.0600 
    212 H212       -0.8007  -19.8027  -49.9051 H         1 UNK         0.0600 
    213 H213       -1.2394  -20.3258  -48.3006 H         1 UNK         0.0600 
    214 H214       -2.2303  -19.1305  -49.1212 H         1 UNK         0.0600 
    215 H215       -3.3487  -19.0122  -50.9701 H         1 UNK         0.3000 
    216 H216       -2.8443  -19.4361  -53.7160 H         1 UNK         0.0600 
    217 H217       -4.8617  -17.5934  -52.3306 H         1 UNK         0.0600 
    218 H218       -4.3955  -17.4822  -54.0233 H         1 UNK         0.0600 
    219 H219       -3.2008  -17.1906  -52.7774 H         1 UNK         0.0600 
    220 H220       -5.5911  -20.4580  -51.7316 H         1 UNK         0.3000 
    221 H221       -7.4001  -21.1127  -53.8635 H         1 UNK         0.0600 
    222 H222       -8.0799  -20.8421  -51.4650 H         1 UNK         0.0600 
    223 H223       -7.1605  -22.2898  -51.0536 H         1 UNK         0.0600 
    224 H224       -8.5667  -22.4084  -52.1020 H         1 UNK         0.0600 
    225 H225       -4.5304  -22.6964  -52.6391 H         1 UNK         0.3000 
    226 H226       -5.0133  -25.1562  -54.2606 H         1 UNK         0.0600 
    227 H227       -3.0333  -24.6045  -51.9831 H         1 UNK         0.0600 
    228 H228       -4.5295  -25.5275  -51.8437 H         1 UNK         0.0600 
    229 H229       -3.2192  -26.1284  -52.8453 H         1 UNK         0.0600 
    230 H230       -3.9726  -22.1928  -54.8238 H         1 UNK         0.3000 
    231 H231       -2.6534  -21.1157  -56.1879 H         1 UNK         0.0600 
    232 H232       -1.9612  -23.7890  -57.5062 H         1 UNK         0.0600 
    233 H233       -1.8124  -22.1919  -58.2227 H         1 UNK         0.0600 
    234 H234       -3.4027  -22.8337  -57.8522 H         1 UNK         0.0600 
    235 H235       -1.4622  -22.2809  -53.6324 H         1 UNK         0.3000 
    236 H236        1.2919  -22.8409  -54.0894 H         1 UNK         0.0600 
    237 H237       -0.0053  -21.7594  -51.5360 H         1 UNK         0.0600 
    238 H238       -0.0219  -23.4585  -52.0130 H         1 UNK         0.0600 
    239 H239        1.4994  -22.6522  -51.6586 H         1 UNK         0.0600 
    240 H240       -0.4386  -19.8145  -53.8198 H         1 UNK         0.3000 
    241 H241        1.9569  -18.1654  -53.4904 H         1 UNK         0.0600 
    242 H242        0.8608  -19.7801  -56.2587 H         1 UNK         0.3800 
    243 H243        1.4125  -18.6016  -57.4199 H         1 UNK         0.3800 
    244 H244       -0.9190  -17.2537  -53.9678 H         1 UNK         0.0800 
    245 H245        0.4281  -16.2436  -53.4889 H         1 UNK         0.0800 
    246 H246       -0.2576  -15.3145  -50.9350 H         1 UNK         0.0800 
    247 H247       -1.7403  -15.6514  -51.7991 H         1 UNK         0.0800 
@<TRIPOS>BOND
     1    1    2 1    
     2    1  127 1    
     3    1  128 1    
     4    1  129 1    
     5    2    3 2    
     6    2    4 am   BACKBONE|DICT|INTERRES
     7    4    5 1    
     8    4  130 1    
     9    5    6 1    
    10    5   65 1    
    11    5  131 1    
    12    6    7 1    
    13    6  132 1    
    14    6  133 1    
    15    7    8 1    
    16    8    9 1    
    17    8  134 1    
    18    8  135 1    
    19    9   10 ar   
    20    9   14 ar   
    21   10   11 ar   
    22   10  136 1    
    23   11   12 ar   
    24   11  126 1    
    25   12   13 ar   
    26   12  137 1    
    27   13   14 ar   
    28   13   15 1    
    29   14  138 1    
    30   15   16 1    
    31   15  139 1    
    32   15  140 1    
    33   16   17 1    
    34   17   18 1    
    35   17  141 1    
    36   17  142 1    
    37   18   19 1    
    38   18   67 1    
    39   18  143 1    
    40   19   20 am   BACKBONE|DICT|INTERRES
    41   19  144 1    
    42   20   21 2    
    43   20   22 1    
    44   22   23 1    
    45   22   24 1    
    46   22  145 1    
    47   23  146 1    
    48   23  147 1    
    49   23  148 1    
    50   24   25 am   BACKBONE|DICT|INTERRES
    51   24  149 1    
    52   25   26 2    
    53   25   27 1    
    54   27   28 1    
    55   27   29 1    
    56   27  150 1    
    57   28  151 1    
    58   28  152 1    
    59   28  153 1    
    60   29   30 am   BACKBONE|DICT|INTERRES
    61   29  154 1    
    62   30   31 2    
    63   30   32 1    
    64   32   33 1    
    65   32   34 1    
    66   32  155 1    
    67   33  156 1    
    68   33  157 1    
    69   33  158 1    
    70   34   35 am   BACKBONE|DICT|INTERRES
    71   34  159 1    
    72   35   36 2    
    73   35   37 1    
    74   37   38 1    
    75   37   39 1    
    76   37  160 1    
    77   38  161 1    
    78   38  162 1    
    79   38  163 1    
    80   39   40 am   BACKBONE|DICT|INTERRES
    81   39  164 1    
    82   40   41 2    
    83   40   42 1    
    84   42   43 1    
    85   42   44 1    
    86   42  165 1    
    87   43  166 1    
    88   43  167 1    
    89   43  168 1    
    90   44   45 am   BACKBONE|DICT|INTERRES
    91   44  169 1    
    92   45   46 2    
    93   45   47 1    
    94   47   48 1    
    95   47   49 1    
    96   47  170 1    
    97   48  171 1    
    98   48  172 1    
    99   48  173 1    
   100   49   50 am   BACKBONE|DICT|INTERRES
   101   49  174 1    
   102   50   51 2    
   103   50   52 1    
   104   52   53 1    
   105   52   54 1    
   106   52  175 1    
   107   53  176 1    
   108   53  177 1    
   109   53  178 1    
   110   54   55 am   BACKBONE|DICT|INTERRES
   111   54  179 1    
   112   55   56 2    
   113   55   57 1    
   114   57   58 1    
   115   57   59 1    
   116   57  180 1    
   117   58  181 1    
   118   58  182 1    
   119   58  183 1    
   120   59   60 am   BACKBONE|DICT|INTERRES
   121   59  184 1    
   122   60   61 2    
   123   60   62 1    
   124   62   63 1    
   125   62   64 1    
   126   62  185 1    
   127   63  186 1    
   128   63  187 1    
   129   63  188 1    
   130   64   65 am   BACKBONE|DICT|INTERRES
   131   64  189 1    
   132   65   66 2    
   133   67   68 2    
   134   67   69 am   BACKBONE|DICT|INTERRES
   135   69   70 1    
   136   69  190 1    
   137   70   71 1    
   138   70   72 1    
   139   70  191 1    
   140   71  192 1    
   141   71  193 1    
   142   71  194 1    
   143   72   73 2    
   144   72   74 am   BACKBONE|DICT|INTERRES
   145   74   75 1    
   146   74  195 1    
   147   75   76 1    
   148   75   77 1    
   149   75  196 1    
   150   76  197 1    
   151   76  198 1    
   152   76  199 1    
   153   77   78 2    
   154   77   79 am   BACKBONE|DICT|INTERRES
   155   79   80 1    
   156   79  200 1    
   157   80   81 1    
   158   80   82 1    
   159   80  201 1    
   160   81  202 1    
   161   81  203 1    
   162   81  204 1    
   163   82   83 2    
   164   82   84 am   BACKBONE|DICT|INTERRES
   165   84   85 1    
   166   84  205 1    
   167   85   86 1    
   168   85   87 1    
   169   85  206 1    
   170   86  207 1    
   171   86  208 1    
   172   86  209 1    
   173   87   88 2    
   174   87   89 am   BACKBONE|DICT|INTERRES
   175   89   90 1    
   176   89  210 1    
   177   90   91 1    
   178   90   92 1    
   179   90  211 1    
   180   91  212 1    
   181   91  213 1    
   182   91  214 1    
   183   92   93 2    
   184   92   94 am   BACKBONE|DICT|INTERRES
   185   94   95 1    
   186   94  215 1    
   187   95   96 1    
   188   95   97 1    
   189   95  216 1    
   190   96  217 1    
   191   96  218 1    
   192   96  219 1    
   193   97   98 2    
   194   97   99 am   BACKBONE|DICT|INTERRES
   195   99  100 1    
   196   99  220 1    
   197  100  101 1    
   198  100  102 1    
   199  100  221 1    
   200  101  222 1    
   201  101  223 1    
   202  101  224 1    
   203  102  103 2    
   204  102  104 am   BACKBONE|DICT|INTERRES
   205  104  105 1    
   206  104  225 1    
   207  105  106 1    
   208  105  107 1    
   209  105  226 1    
   210  106  227 1    
   211  106  228 1    
   212  106  229 1    
   213  107  108 2    
   214  107  109 am   BACKBONE|DICT|INTERRES
   215  109  110 1    
   216  109  230 1    
   217  110  111 1    
   218  110  112 1    
   219  110  231 1    
   220  111  232 1    
   221  111  233 1    
   222  111  234 1    
   223  112  113 2    
   224  112  114 am   BACKBONE|DICT|INTERRES
   225  114  115 1    
   226  114  235 1    
   227  115  116 1    
   228  115  117 1    
   229  115  236 1    
   230  116  237 1    
   231  116  238 1    
   232  116  239 1    
   233  117  118 2    
   234  117  119 am   BACKBONE|DICT|INTERRES
   235  119  120 1    
   236  119  240 1    
   237  120  121 1    
   238  120  124 1    
   239  120  241 1    
   240  121  122 am   BACKBONE|DICT|INTERRES
   241  121  123 2    
   242  122  242 1    
   243  122  243 1    
   244  124  125 1    
   245  124  244 1    
   246  124  245 1    
   247  125  126 1    
   248  126  246 1    
   249  126  247 1    
@<TRIPOS>SUBSTRUCTURE
     1 UNK         1 GROUP             0       ****    0 ROOT    
