@<TRIPOS>MOLECULE
3R540
247   249    1
SMALL
USER_CHARGES


@<TRIPOS>ATOM
      1 CA         -1.1745  -13.1179  -44.8787 C.3       0 UNK        -0.1800 
      2 C          -0.5447  -12.5934  -46.1591 C.2       0 UNK         0.5000 
      3 O          -0.0963  -11.4479  -46.2009 O.2       0 UNK        -0.5000 
      4 N          -0.5044  -13.4338  -47.2020 N.am      1 UNK        -0.5000 
      5 CA         -0.0599  -13.1011  -48.5663 C.3       1 UNK         0.1400 
      6 C6         -0.2411  -14.2823  -49.5543 C.3       23 UNK        -0.0398 
      7 S7         -1.8747  -15.0991  -49.4706 S.3       23 UNK        -0.2404 
      8 C8         -1.4954  -16.6284  -48.5517 C.3       23 UNK        -0.0205 
      9 C9         -0.6770  -17.6159  -49.3712 C.ar      23 UNK        -0.0193 
     10 C10        -1.3104  -18.4957  -50.2506 C.ar      23 UNK        -0.1150 
     11 C11        -0.5702  -19.4401  -50.9694 C.ar      23 UNK        -0.0193 
     12 C12         0.8203  -19.4742  -50.8353 C.ar      23 UNK        -0.1150 
     13 C13         1.4662  -18.5916  -49.9652 C.ar      23 UNK        -0.0193 
     14 C14         0.7109  -17.6755  -49.2287 C.ar      23 UNK        -0.1150 
     15 C15         2.9792  -18.6252  -49.8085 C.3       23 UNK        -0.0205 
     16 S16         3.5631  -20.0941  -48.9041 S.3       23 UNK        -0.2404 
     17 C17         2.6533  -19.9810  -47.3239 C.3       23 UNK        -0.0398 
     18 CA          1.9329  -21.3017  -46.9658 C.3       11 UNK         0.1400 
     19 N           1.5846  -21.3626  -45.5435 N.am      11 UNK        -0.5000 
     20 C           1.5603  -22.4965  -44.8319 C.2       10 UNK         0.5000 
     21 O           1.8291  -23.6037  -45.2974 O.2       10 UNK        -0.5000 
     22 CA          1.1737  -22.3760  -43.3505 C.3       10 UNK         0.1400 
     23 CB          2.3606  -21.8578  -42.5230 C.3       10 UNK        -0.1800 
     24 N           0.0131  -21.5168  -43.1210 N.am      10 UNK        -0.5000 
     25 C          -1.2489  -21.8516  -43.4237 C.2       9 UNK         0.5000 
     26 O          -1.5545  -22.8565  -44.0658 O.2       9 UNK        -0.5000 
     27 CA         -2.3536  -20.9136  -42.9141 C.3       9 UNK         0.1400 
     28 CB         -2.4164  -20.9118  -41.3775 C.3       9 UNK        -0.1800 
     29 N          -2.1243  -19.5537  -43.3905 N.am      9 UNK        -0.5000 
     30 C          -2.9740  -18.8548  -44.1545 C.2       8 UNK         0.5000 
     31 O          -4.1018  -19.2489  -44.4521 O.2       8 UNK        -0.5000 
     32 CA         -2.4988  -17.4894  -44.6972 C.3       8 UNK         0.1400 
     33 CB         -3.3745  -16.3482  -44.1568 C.3       8 UNK        -0.1800 
     34 N          -1.0939  -17.1854  -44.4173 N.am      8 UNK        -0.5000 
     35 C          -0.0425  -17.8026  -44.9739 C.2       7 UNK         0.5000 
     36 O          -0.1376  -18.7075  -45.8020 O.2       7 UNK        -0.5000 
     37 CA          1.3489  -17.3909  -44.4635 C.3       7 UNK         0.1400 
     38 CB          1.9273  -16.2627  -45.3282 C.3       7 UNK        -0.1800 
     39 N           1.3475  -16.9830  -43.0559 N.am      7 UNK        -0.5000 
     40 C           1.0411  -17.7955  -42.0312 C.2       6 UNK         0.5000 
     41 O           0.6911  -18.9671  -42.1784 O.2       6 UNK        -0.5000 
     42 CA          1.0977  -17.2052  -40.6101 C.3       6 UNK         0.1400 
     43 CB          2.4704  -17.4749  -39.9770 C.3       6 UNK        -0.1800 
     44 N           0.8196  -15.7699  -40.5611 N.am      6 UNK        -0.5000 
     45 C          -0.3454  -15.2027  -40.9027 C.2       5 UNK         0.5000 
     46 O          -1.3330  -15.8391  -41.2698 O.2       5 UNK        -0.5000 
     47 CA         -0.4089  -13.6643  -40.8625 C.3       5 UNK         0.1400 
     48 CB         -1.0088  -13.1888  -39.5307 C.3       5 UNK        -0.1800 
     49 N           0.8775  -12.9895  -41.0765 N.am      5 UNK        -0.5000 
     50 C           1.6352  -13.1016  -42.1749 C.2       4 UNK         0.5000 
     51 O           1.3996  -13.8831  -43.0995 O.2       4 UNK        -0.5000 
     52 CA          2.8561  -12.1833  -42.2721 C.3       4 UNK         0.1400 
     53 CB          4.1641  -12.9841  -42.1700 C.3       4 UNK        -0.1800 
     54 N           2.7770  -11.5298  -43.5695 N.am      4 UNK        -0.5000 
     55 C           3.0960  -10.2597  -43.8406 C.2       3 UNK         0.5000 
     56 O           3.5893   -9.4889  -43.0153 O.2       3 UNK        -0.5000 
     57 CA          2.7807   -9.7730  -45.2718 C.3       3 UNK         0.1400 
     58 CB          3.6294   -8.5603  -45.7098 C.3       3 UNK        -0.1800 
     59 N           2.8237  -10.8590  -46.2591 N.am      3 UNK        -0.5000 
     60 C           3.9016  -11.5429  -46.6764 C.2       2 UNK         0.5000 
     61 O           5.0542  -11.2693  -46.3402 O.2       2 UNK        -0.5000 
     62 CA          3.6616  -12.7639  -47.5918 C.3       2 UNK         0.1400 
     63 CB          4.4097  -13.9999  -47.0628 C.3       2 UNK        -0.1800 
     64 N           2.2454  -13.1108  -47.7266 N.am      2 UNK        -0.5000 
     65 C           1.4016  -12.6031  -48.6351 C.2       1 UNK         0.5000 
     66 O           1.7280  -11.7777  -49.4882 O.2       1 UNK        -0.5000 
     67 C           0.6942  -21.5897  -47.8393 C.2       11 UNK         0.5000 
     68 O           0.8114  -22.2861  -48.8482 O.2       11 UNK        -0.5000 
     69 N          -0.4891  -21.1414  -47.3889 N.am      12 UNK        -0.5000 
     70 CA         -1.7937  -21.4019  -48.0083 C.3       12 UNK         0.1400 
     71 CB         -2.8851  -20.6482  -47.2435 C.3       12 UNK        -0.1800 
     72 C          -2.1633  -22.8911  -48.1438 C.2       12 UNK         0.5000 
     73 O          -3.0183  -23.2252  -48.9657 O.2       12 UNK        -0.5000 
     74 N          -1.4807  -23.7706  -47.3979 N.am      13 UNK        -0.5000 
     75 CA         -1.5079  -25.2257  -47.5552 C.3       13 UNK         0.1400 
     76 CB         -0.5938  -25.8607  -46.4988 C.3       13 UNK        -0.1800 
     77 C          -1.1136  -25.7045  -48.9702 C.2       13 UNK         0.5000 
     78 O          -1.5990  -26.7500  -49.4016 O.2       13 UNK        -0.5000 
     79 N          -0.3195  -24.9062  -49.7036 N.am      14 UNK        -0.5000 
     80 CA          0.0001  -25.1113  -51.1217 C.3       14 UNK         0.1400 
     81 CB          1.1338  -24.1571  -51.5285 C.3       14 UNK        -0.1800 
     82 C          -1.2103  -24.9412  -52.0669 C.2       14 UNK         0.5000 
     83 O          -1.1317  -25.3579  -53.2226 O.2       14 UNK        -0.5000 
     84 N          -2.2989  -24.3419  -51.5695 N.am      15 UNK        -0.5000 
     85 CA         -3.6021  -24.2405  -52.2243 C.3       15 UNK         0.1400 
     86 CB         -3.9874  -22.7554  -52.3097 C.3       15 UNK        -0.1800 
     87 C          -4.6751  -25.0361  -51.4523 C.2       15 UNK         0.5000 
     88 O          -5.8640  -24.7828  -51.6420 O.2       15 UNK        -0.5000 
     89 N          -4.2596  -25.9404  -50.5501 N.am      16 UNK        -0.5000 
     90 CA         -5.1088  -26.7208  -49.6394 C.3       16 UNK         0.1400 
     91 CB         -5.9236  -27.7705  -50.4235 C.3       16 UNK        -0.1800 
     92 C          -5.9862  -25.8375  -48.7215 C.2       16 UNK         0.5000 
     93 O          -7.1268  -26.1948  -48.4240 O.2       16 UNK        -0.5000 
     94 N          -5.4302  -24.6870  -48.3119 N.am      17 UNK        -0.5000 
     95 CA         -6.0267  -23.6317  -47.4870 C.3       17 UNK         0.1400 
     96 CB         -6.5193  -24.1717  -46.1283 C.3       17 UNK        -0.1800 
     97 C          -7.0853  -22.7722  -48.2113 C.2       17 UNK         0.5000 
     98 O          -7.7237  -21.9445  -47.5598 O.2       17 UNK        -0.5000 
     99 N          -7.2325  -22.9233  -49.5382 N.am      18 UNK        -0.5000 
    100 CA        -8.0880  -22.0608  -50.3645 C.3       18 UNK         0.1400 
    101 CB        -8.4048  -22.7663  -51.6918 C.3       18 UNK        -0.1800 
    102 C         -7.4550  -20.6799  -50.6333 C.2       18 UNK         0.5000 
    103 O         -8.1791  -19.7319  -50.9377 O.2       18 UNK        -0.5000 
    104 N         -6.1199  -20.6028  -50.5156 N.am      19 UNK        -0.5000 
    105 CA        -5.2676  -19.4191  -50.6782 C.3       19 UNK         0.1400 
    106 CB        -5.5321  -18.3959  -49.5543 C.3       19 UNK        -0.1800 
    107 C         -5.3044  -18.7902  -52.0909 C.2       19 UNK         0.5000 
    108 O         -5.0554  -17.5926  -52.2359 O.2       19 UNK        -0.5000 
    109 N         -5.5902  -19.6077  -53.1101 N.am      20 UNK        -0.5000 
    110 CA        -5.6057  -19.2417  -54.5224 C.3       20 UNK         0.1400 
    111 CB        -6.9668  -18.6277  -54.8921 C.3       20 UNK        -0.1800 
    112 C         -5.3252  -20.5050  -55.3460 C.2       20 UNK         0.5000 
    113 O         -5.6920  -21.5980  -54.9100 O.2       20 UNK        -0.5000 
    114 N         -4.6842  -20.3335  -56.5118 N.am      21 UNK        -0.5000 
    115 CA        -4.1865  -21.3973  -57.3990 C.3       21 UNK         0.1400 
    116 CB        -5.3500  -22.2058  -58.0120 C.3       21 UNK        -0.1800 
    117 C         -3.1241  -22.2794  -56.7039 C.2       21 UNK         0.5000 
    118 O         -3.1767  -23.5081  -56.7789 O.2       21 UNK        -0.5000 
    119 N         -2.2010  -21.6059  -56.0072 N.am      22 UNK        -0.5000 
    120 CA        -1.1210  -22.1699  -55.1861 C.3       22 UNK         0.1400 
    121 C         -0.1478  -23.0699  -55.9965 C.2       22 UNK         0.5000 
    122 N          0.1111  -24.2902  -55.5481 N.am      22 UNK        -0.7600 
    123 O          0.4044  -22.6506  -57.0114 O.2       22 UNK        -0.5000 
    124 C124       -0.3386  -21.0432  -54.4569 C.3       23 UNK        -0.0398 
    125 S125       -1.4280  -19.8761  -53.5617 S.3       23 UNK        -0.2404 
    126 C126       -1.2833  -20.4531  -51.8469 C.3       23 UNK        -0.0205 
    127 H127       -0.9051  -14.1595  -44.7048 H         1 UNK         0.0600 
    128 H128       -2.2600  -13.0407  -44.9341 H         1 UNK         0.0600 
    129 H129       -0.8369  -12.5339  -44.0230 H         1 UNK         0.0600 
    130 H130       -0.9250  -14.3453  -47.1053 H         1 UNK         0.3000 
    131 H131       -0.6939  -12.2800  -48.9072 H         1 UNK         0.0600 
    132 H132        0.5422  -15.0228  -49.4079 H         1 UNK         0.0800 
    133 H133       -0.1116  -13.9260  -50.5778 H         1 UNK         0.0800 
    134 H134       -2.4351  -17.0984  -48.2582 H         1 UNK         0.0800 
    135 H135       -0.9778  -16.3867  -47.6231 H         1 UNK         0.0800 
    136 H136       -2.3834  -18.4535  -50.3586 H         1 UNK         0.1150 
    137 H137        1.3976  -20.2026  -51.3871 H         1 UNK         0.1150 
    138 H138        1.2073  -17.0100  -48.5386 H         1 UNK         0.1150 
    139 H139        3.4410  -18.6135  -50.7966 H         1 UNK         0.0800 
    140 H140        3.3351  -17.7298  -49.2964 H         1 UNK         0.0800 
    141 H141        1.9592  -19.1430  -47.3239 H         1 UNK         0.0800 
    142 H142        3.3923  -19.7481  -46.5562 H         1 UNK         0.0800 
    143 H143        2.6440  -22.1068  -47.1666 H         1 UNK         0.0600 
    144 H144        1.2936  -20.5017  -45.1039 H         1 UNK         0.3000 
    145 H145        0.9272  -23.3775  -42.9909 H         1 UNK         0.0600 
    146 H146        2.1182  -21.8316  -41.4604 H         1 UNK         0.0600 
    147 H147        3.2316  -22.5035  -42.6421 H         1 UNK         0.0600 
    148 H148        2.6546  -20.8511  -42.8227 H         1 UNK         0.0600 
    149 H149        0.1961  -20.6476  -42.6239 H         1 UNK         0.3000 
    150 H150       -3.3028  -21.3022  -43.2890 H         1 UNK         0.0600 
    151 H151       -2.5476  -21.9228  -40.9899 H         1 UNK         0.0600 
    152 H152       -3.2575  -20.3159  -41.0228 H         1 UNK         0.0600 
    153 H153       -1.5089  -20.5021  -40.9321 H         1 UNK         0.0600 
    154 H154       -1.2163  -19.1548  -43.1896 H         1 UNK         0.3000 
    155 H155       -2.6242  -17.5223  -45.7806 H         1 UNK         0.0600 
    156 H156       -4.4268  -16.5170  -44.3887 H         1 UNK         0.0600 
    157 H157       -3.0988  -15.3931  -44.6017 H         1 UNK         0.0600 
    158 H158       -3.2899  -16.2545  -43.0740 H         1 UNK         0.0600 
    159 H159       -0.9202  -16.5064  -43.6887 H         1 UNK         0.3000 
    160 H160        2.0053  -18.2585  -44.5545 H         1 UNK         0.0600 
    161 H161        1.2878  -15.3799  -45.3225 H         1 UNK         0.0600 
    162 H162        2.0416  -16.5822  -46.3640 H         1 UNK         0.0600 
    163 H163        2.9125  -15.9658  -44.9697 H         1 UNK         0.0600 
    164 H164        1.5658  -16.0112  -42.8668 H         1 UNK         0.3000 
    165 H165        0.3381  -17.7153  -40.0140 H         1 UNK         0.0600 
    166 H166        2.4993  -17.1407  -38.9397 H         1 UNK         0.0600 
    167 H167        2.6990  -18.5417  -39.9798 H         1 UNK         0.0600 
    168 H168        3.2699  -16.9662  -40.5172 H         1 UNK         0.0600 
    169 H169        1.5776  -15.1673  -40.2769 H         1 UNK         0.3000 
    170 H170       -1.0791  -13.3525  -41.6659 H         1 UNK         0.0600 
    171 H171       -1.9799  -13.6523  -39.3510 H         1 UNK         0.0600 
    172 H172       -0.3642  -13.4393  -38.6872 H         1 UNK         0.0600 
    173 H173       -1.1617  -12.1094  -39.5290 H         1 UNK         0.0600 
    174 H174        1.1540  -12.3309  -40.3624 H         1 UNK         0.3000 
    175 H175        2.8178  -11.4425  -41.4706 H         1 UNK         0.0600 
    176 H176        4.2348  -13.4965  -41.2099 H         1 UNK         0.0600 
    177 H177        4.2370  -13.7392  -42.9541 H         1 UNK         0.0600 
    178 H178        5.0319  -12.3300  -42.2561 H         1 UNK         0.0600 
    179 H179        2.3363  -12.0857  -44.2897 H         1 UNK         0.3000 
    180 H180        1.7414   -9.4427  -45.2462 H         1 UNK         0.0600 
    181 H181        4.6982   -8.7678  -45.6573 H         1 UNK         0.0600 
    182 H182        3.4363   -7.6997  -45.0684 H         1 UNK         0.0600 
    183 H183        3.3934   -8.2615  -46.7310 H         1 UNK         0.0600 
    184 H184        1.9115  -11.1692  -46.5769 H         1 UNK         0.3000 
    185 H185        4.0672  -12.5178  -48.5753 H         1 UNK         0.0600 
    186 H186        5.4884  -13.8394  -47.0742 H         1 UNK         0.0600 
    187 H187        4.1262  -14.2289  -46.0354 H         1 UNK         0.0600 
    188 H188        4.2089  -14.8799  -47.6742 H         1 UNK         0.0600 
    189 H189        1.8773  -13.7632  -47.0507 H         1 UNK         0.3000 
    190 H190       -0.4856  -20.5074  -46.5972 H         1 UNK         0.3000 
    191 H191       -1.7561  -21.0034  -49.0202 H         1 UNK         0.0600 
    192 H192       -2.9777  -21.0197  -46.2227 H         1 UNK         0.0600 
    193 H193       -3.8567  -20.7642  -47.7253 H         1 UNK         0.0600 
    194 H194       -2.6701  -19.5807  -47.2024 H         1 UNK         0.0600 
    195 H195       -0.8184  -23.4060  -46.7279 H         1 UNK         0.3000 
    196 H196       -2.5313  -25.5565  -47.3681 H         1 UNK         0.0600 
    197 H197       -0.6429  -26.9494  -46.5425 H         1 UNK         0.0600 
    198 H198       -0.8854  -25.5612  -45.4916 H         1 UNK         0.0600 
    199 H199        0.4478  -25.5726  -46.6456 H         1 UNK         0.0600 
    200 H200        0.0402  -24.0510  -49.2877 H         1 UNK         0.3000 
    201 H201        0.3592  -26.1356  -51.2396 H         1 UNK         0.0600 
    202 H202        2.0168  -24.3067  -50.9069 H         1 UNK         0.0600 
    203 H203        0.8359  -23.1130  -51.4359 H         1 UNK         0.0600 
    204 H204        1.4344  -24.3214  -52.5641 H         1 UNK         0.0600 
    205 H205       -2.2781  -24.0108  -50.6105 H         1 UNK         0.3000 
    206 H206       -3.5682  -24.6501  -53.2357 H         1 UNK         0.0600 
    207 H207       -3.3288  -22.2144  -52.9857 H         1 UNK         0.0600 
    208 H208       -5.0000  -22.6300  -52.6892 H         1 UNK         0.0600 
    209 H209       -3.9443  -22.2777  -51.3324 H         1 UNK         0.0600 
    210 H210       -3.2639  -26.1022  -50.4505 H         1 UNK         0.3000 
    211 H211       -4.4300  -27.2602  -48.9774 H         1 UNK         0.0600 
    212 H212       -6.6704  -27.3059  -51.0680 H         1 UNK         0.0600 
    213 H213       -6.4501  -28.4436  -49.7460 H         1 UNK         0.0600 
    214 H214       -5.2757  -28.3844  -51.0492 H         1 UNK         0.0600 
    215 H215       -4.5037  -24.4592  -48.6596 H         1 UNK         0.3000 
    216 H216       -5.2077  -22.9457  -47.2690 H         1 UNK         0.0600 
    217 H217       -6.7716  -23.3537  -45.4525 H         1 UNK         0.0600 
    218 H218       -5.7499  -24.7682  -45.6381 H         1 UNK         0.0600 
    219 H219       -7.4111  -24.7895  -46.2329 H         1 UNK         0.0600 
    220 H220       -6.7118  -23.6458  -50.0226 H         1 UNK         0.3000 
    221 H221       -9.0309  -21.8988  -49.8378 H         1 UNK         0.0600 
    222 H222       -7.5200  -22.8616  -52.3217 H         1 UNK         0.0600 
    223 H223       -8.8090  -23.7650  -51.5250 H         1 UNK         0.0600 
    224 H224       -9.1466  -22.2050  -52.2611 H         1 UNK         0.0600 
    225 H225       -5.6418  -21.4532  -50.2584 H         1 UNK         0.3000 
    226 H226       -4.2498  -19.7813  -50.5438 H         1 UNK         0.0600 
    227 H227       -5.4657  -18.8626  -48.5715 H         1 UNK         0.0600 
    228 H228       -4.7997  -17.5878  -49.5770 H         1 UNK         0.0600 
    229 H229       -6.5202  -17.9443  -49.6452 H         1 UNK         0.0600 
    230 H230       -5.7632  -20.5891  -52.9365 H         1 UNK         0.3000 
    231 H231       -4.8112  -18.5178  -54.7160 H         1 UNK         0.0600 
    232 H232       -7.1568  -17.7165  -54.3246 H         1 UNK         0.0600 
    233 H233       -7.7851  -19.3213  -54.6940 H         1 UNK         0.0600 
    234 H234       -7.0044  -18.3657  -55.9501 H         1 UNK         0.0600 
    235 H235       -4.4460  -19.3920  -56.7918 H         1 UNK         0.3000 
    236 H236       -3.6725  -20.8965  -58.2208 H         1 UNK         0.0600 
    237 H237       -4.9835  -22.9003  -58.7688 H         1 UNK         0.0600 
    238 H238       -5.8799  -22.7937  -57.2622 H         1 UNK         0.0600 
    239 H239       -6.0731  -21.5501  -58.4967 H         1 UNK         0.0600 
    240 H240       -2.2547  -20.5986  -56.0023 H         1 UNK         0.3000 
    241 H241       -1.5978  -22.7915  -54.4272 H         1 UNK         0.0600 
    242 H242       -0.3604  -24.6716  -54.7297 H         1 UNK         0.3800 
    243 H243        0.7493  -24.8753  -56.0634 H         1 UNK         0.3800 
    244 H244        0.3951  -21.4675  -53.7696 H         1 UNK         0.0800 
    245 H245        0.2358  -20.4579  -55.1774 H         1 UNK         0.0800 
    246 H246       -2.2849  -20.6213  -51.4579 H         1 UNK         0.0800 
    247 H247       -0.7832  -21.4200  -51.7944 H         1 UNK         0.0800 
@<TRIPOS>BOND
     1    1    2 1    
     2    1  127 1    
     3    1  128 1    
     4    1  129 1    
     5    2    3 2    
     6    2    4 am   BACKBONE|DICT|INTERRES
     7    4    5 1    
     8    4  130 1    
     9    5    6 1    
    10    5   65 1    
    11    5  131 1    
    12    6    7 1    
    13    6  132 1    
    14    6  133 1    
    15    7    8 1    
    16    8    9 1    
    17    8  134 1    
    18    8  135 1    
    19    9   10 ar   
    20    9   14 ar   
    21   10   11 ar   
    22   10  136 1    
    23   11   12 ar   
    24   11  126 1    
    25   12   13 ar   
    26   12  137 1    
    27   13   14 ar   
    28   13   15 1    
    29   14  138 1    
    30   15   16 1    
    31   15  139 1    
    32   15  140 1    
    33   16   17 1    
    34   17   18 1    
    35   17  141 1    
    36   17  142 1    
    37   18   19 1    
    38   18   67 1    
    39   18  143 1    
    40   19   20 am   BACKBONE|DICT|INTERRES
    41   19  144 1    
    42   20   21 2    
    43   20   22 1    
    44   22   23 1    
    45   22   24 1    
    46   22  145 1    
    47   23  146 1    
    48   23  147 1    
    49   23  148 1    
    50   24   25 am   BACKBONE|DICT|INTERRES
    51   24  149 1    
    52   25   26 2    
    53   25   27 1    
    54   27   28 1    
    55   27   29 1    
    56   27  150 1    
    57   28  151 1    
    58   28  152 1    
    59   28  153 1    
    60   29   30 am   BACKBONE|DICT|INTERRES
    61   29  154 1    
    62   30   31 2    
    63   30   32 1    
    64   32   33 1    
    65   32   34 1    
    66   32  155 1    
    67   33  156 1    
    68   33  157 1    
    69   33  158 1    
    70   34   35 am   BACKBONE|DICT|INTERRES
    71   34  159 1    
    72   35   36 2    
    73   35   37 1    
    74   37   38 1    
    75   37   39 1    
    76   37  160 1    
    77   38  161 1    
    78   38  162 1    
    79   38  163 1    
    80   39   40 am   BACKBONE|DICT|INTERRES
    81   39  164 1    
    82   40   41 2    
    83   40   42 1    
    84   42   43 1    
    85   42   44 1    
    86   42  165 1    
    87   43  166 1    
    88   43  167 1    
    89   43  168 1    
    90   44   45 am   BACKBONE|DICT|INTERRES
    91   44  169 1    
    92   45   46 2    
    93   45   47 1    
    94   47   48 1    
    95   47   49 1    
    96   47  170 1    
    97   48  171 1    
    98   48  172 1    
    99   48  173 1    
   100   49   50 am   BACKBONE|DICT|INTERRES
   101   49  174 1    
   102   50   51 2    
   103   50   52 1    
   104   52   53 1    
   105   52   54 1    
   106   52  175 1    
   107   53  176 1    
   108   53  177 1    
   109   53  178 1    
   110   54   55 am   BACKBONE|DICT|INTERRES
   111   54  179 1    
   112   55   56 2    
   113   55   57 1    
   114   57   58 1    
   115   57   59 1    
   116   57  180 1    
   117   58  181 1    
   118   58  182 1    
   119   58  183 1    
   120   59   60 am   BACKBONE|DICT|INTERRES
   121   59  184 1    
   122   60   61 2    
   123   60   62 1    
   124   62   63 1    
   125   62   64 1    
   126   62  185 1    
   127   63  186 1    
   128   63  187 1    
   129   63  188 1    
   130   64   65 am   BACKBONE|DICT|INTERRES
   131   64  189 1    
   132   65   66 2    
   133   67   68 2    
   134   67   69 am   BACKBONE|DICT|INTERRES
   135   69   70 1    
   136   69  190 1    
   137   70   71 1    
   138   70   72 1    
   139   70  191 1    
   140   71  192 1    
   141   71  193 1    
   142   71  194 1    
   143   72   73 2    
   144   72   74 am   BACKBONE|DICT|INTERRES
   145   74   75 1    
   146   74  195 1    
   147   75   76 1    
   148   75   77 1    
   149   75  196 1    
   150   76  197 1    
   151   76  198 1    
   152   76  199 1    
   153   77   78 2    
   154   77   79 am   BACKBONE|DICT|INTERRES
   155   79   80 1    
   156   79  200 1    
   157   80   81 1    
   158   80   82 1    
   159   80  201 1    
   160   81  202 1    
   161   81  203 1    
   162   81  204 1    
   163   82   83 2    
   164   82   84 am   BACKBONE|DICT|INTERRES
   165   84   85 1    
   166   84  205 1    
   167   85   86 1    
   168   85   87 1    
   169   85  206 1    
   170   86  207 1    
   171   86  208 1    
   172   86  209 1    
   173   87   88 2    
   174   87   89 am   BACKBONE|DICT|INTERRES
   175   89   90 1    
   176   89  210 1    
   177   90   91 1    
   178   90   92 1    
   179   90  211 1    
   180   91  212 1    
   181   91  213 1    
   182   91  214 1    
   183   92   93 2    
   184   92   94 am   BACKBONE|DICT|INTERRES
   185   94   95 1    
   186   94  215 1    
   187   95   96 1    
   188   95   97 1    
   189   95  216 1    
   190   96  217 1    
   191   96  218 1    
   192   96  219 1    
   193   97   98 2    
   194   97   99 am   BACKBONE|DICT|INTERRES
   195   99  100 1    
   196   99  220 1    
   197  100  101 1    
   198  100  102 1    
   199  100  221 1    
   200  101  222 1    
   201  101  223 1    
   202  101  224 1    
   203  102  103 2    
   204  102  104 am   BACKBONE|DICT|INTERRES
   205  104  105 1    
   206  104  225 1    
   207  105  106 1    
   208  105  107 1    
   209  105  226 1    
   210  106  227 1    
   211  106  228 1    
   212  106  229 1    
   213  107  108 2    
   214  107  109 am   BACKBONE|DICT|INTERRES
   215  109  110 1    
   216  109  230 1    
   217  110  111 1    
   218  110  112 1    
   219  110  231 1    
   220  111  232 1    
   221  111  233 1    
   222  111  234 1    
   223  112  113 2    
   224  112  114 am   BACKBONE|DICT|INTERRES
   225  114  115 1    
   226  114  235 1    
   227  115  116 1    
   228  115  117 1    
   229  115  236 1    
   230  116  237 1    
   231  116  238 1    
   232  116  239 1    
   233  117  118 2    
   234  117  119 am   BACKBONE|DICT|INTERRES
   235  119  120 1    
   236  119  240 1    
   237  120  121 1    
   238  120  124 1    
   239  120  241 1    
   240  121  122 am   BACKBONE|DICT|INTERRES
   241  121  123 2    
   242  122  242 1    
   243  122  243 1    
   244  124  125 1    
   245  124  244 1    
   246  124  245 1    
   247  125  126 1    
   248  126  246 1    
   249  126  247 1    
@<TRIPOS>SUBSTRUCTURE
     1 UNK         1 GROUP             0       ****    0 ROOT    
