@<TRIPOS>MOLECULE
3R540
247   249    1
SMALL
USER_CHARGES


@<TRIPOS>ATOM
      1 CA          0.1924  -11.1119  -49.3150 C.3       0 UNK        -0.1800 
      2 C          -0.6125  -11.3714  -48.0495 C.2       0 UNK         0.5000 
      3 O          -1.2144  -10.4441  -47.5083 O.2       0 UNK        -0.5000 
      4 N          -0.6151  -12.6270  -47.5799 N.am      1 UNK        -0.5000 
      5 CA         -1.3372  -13.1157  -46.3932 C.3       1 UNK         0.1400 
      6 C6         -2.8863  -13.0225  -46.5074 C.3       23 UNK        -0.0398 
      7 S7         -3.5480  -13.8057  -48.0162 S.3       23 UNK        -0.2404 
      8 C8         -3.6249  -15.5495  -47.5057 C.3       23 UNK        -0.0205 
      9 C9         -3.0426  -16.4491  -48.5814 C.ar      23 UNK        -0.0193 
     10 C10        -3.8779  -17.1757  -49.4339 C.ar      23 UNK        -0.1150 
     11 C11        -3.3338  -18.0239  -50.4035 C.ar      23 UNK        -0.0193 
     12 C12        -1.9450  -18.1288  -50.5259 C.ar      23 UNK        -0.1150 
     13 C13        -1.1016  -17.3987  -49.6850 C.ar      23 UNK        -0.0193 
     14 C14        -1.6573  -16.5616  -48.7161 C.ar      23 UNK        -0.1150 
     15 C15         0.4087  -17.4975  -49.8209 C.3       23 UNK        -0.0205 
     16 S16         1.1510  -18.4689  -48.4733 S.3       23 UNK        -0.2404 
     17 C17         0.8380  -20.1868  -49.0101 C.3       23 UNK        -0.0398 
     18 CA         -0.0084  -21.0397  -48.0298 C.3       11 UNK         0.1400 
     19 N           0.4361  -20.9175  -46.6374 N.am      11 UNK        -0.5000 
     20 C           0.5780  -21.9493  -45.7985 C.2       10 UNK         0.5000 
     21 O           0.3818  -23.1243  -46.1099 O.2       10 UNK        -0.5000 
     22 CA          1.0002  -21.6082  -44.3600 C.3       10 UNK         0.1400 
     23 CB          2.4615  -21.1313  -44.3176 C.3       10 UNK        -0.1800 
     24 N           0.1466  -20.6247  -43.6863 N.am      10 UNK        -0.5000 
     25 C          -1.1744  -20.7442  -43.4850 C.2       9 UNK         0.5000 
     26 O          -1.8793  -21.5844  -44.0417 O.2       9 UNK        -0.5000 
     27 CA         -1.8233  -19.7766  -42.4834 C.3       9 UNK         0.1400 
     28 CB         -1.4114  -20.1272  -41.0445 C.3       9 UNK        -0.1800 
     29 N          -1.4607  -18.3907  -42.7624 N.am      9 UNK        -0.5000 
     30 C          -2.3354  -17.3960  -42.9720 C.2       8 UNK         0.5000 
     31 O          -3.5574  -17.5352  -42.9159 O.2       8 UNK        -0.5000 
     32 CA         -1.7620  -15.9967  -43.2878 C.3       8 UNK         0.1400 
     33 CB         -1.7996  -15.1265  -42.0218 C.3       8 UNK        -0.1800 
     34 N          -0.3926  -16.0087  -43.8055 N.am      8 UNK        -0.5000 
     35 C           0.0234  -16.6503  -44.9060 C.2       7 UNK         0.5000 
     36 O          -0.7272  -17.2375  -45.6818 O.2       7 UNK        -0.5000 
     37 CA          1.5426  -16.6950  -45.1378 C.3       7 UNK         0.1400 
     38 CB          1.9723  -15.5922  -46.1169 C.3       7 UNK        -0.1800 
     39 N           2.3239  -16.5713  -43.9048 N.am      7 UNK        -0.5000 
     40 C           2.3132  -17.4195  -42.8660 C.2       6 UNK         0.5000 
     41 O           1.5642  -18.3952  -42.8039 O.2       6 UNK        -0.5000 
     42 CA          3.2405  -17.1070  -41.6728 C.3       6 UNK         0.1400 
     43 CB          4.0469  -18.3453  -41.2333 C.3       6 UNK        -0.1800 
     44 N           4.1065  -15.9385  -41.8772 N.am      6 UNK        -0.5000 
     45 C           5.1304  -15.7919  -42.7339 C.2       5 UNK         0.5000 
     46 O           5.5724  -16.7001  -43.4370 O.2       5 UNK        -0.5000 
     47 CA          5.7226  -14.3752  -42.8820 C.3       5 UNK         0.1400 
     48 CB          5.4711  -13.8449  -44.3035 C.3       5 UNK        -0.1800 
     49 N           5.1439  -13.4250  -41.9302 N.am      5 UNK        -0.5000 
     50 C           5.6188  -13.1823  -40.7013 C.2       4 UNK         0.5000 
     51 O           6.6478  -13.6870  -40.2516 O.2       4 UNK        -0.5000 
     52 CA          4.7854  -12.2338  -39.8164 C.3       4 UNK         0.1400 
     53 CB          5.2912  -10.7897  -39.9527 C.3       4 UNK        -0.1800 
     54 N           3.3509  -12.2680  -40.1192 N.am      4 UNK        -0.5000 
     55 C           2.5488  -13.3246  -39.9215 C.2       3 UNK         0.5000 
     56 O           2.9332  -14.3953  -39.4532 O.2       3 UNK        -0.5000 
     57 CA          1.0858  -13.1819  -40.3774 C.3       3 UNK         0.1400 
     58 CB          0.2089  -12.6399  -39.2398 C.3       3 UNK        -0.1800 
     59 N           0.9398  -12.3246  -41.5559 N.am      3 UNK        -0.5000 
     60 C           1.3624  -12.6536  -42.7822 C.2       2 UNK         0.5000 
     61 O           1.9120  -13.7244  -43.0522 O.2       2 UNK        -0.5000 
     62 CA          1.1710  -11.5984  -43.8831 C.3       2 UNK         0.1400 
     63 CB          2.5270  -11.0267  -44.3236 C.3       2 UNK        -0.1800 
     64 N           0.4892  -12.1639  -45.0438 N.am      2 UNK        -0.5000 
     65 C          -0.8099  -12.4924  -45.0787 C.2       1 UNK         0.5000 
     66 O          -1.5751  -12.3141  -44.1302 O.2       1 UNK        -0.5000 
     67 C          -1.5229  -20.7967  -48.1749 C.2       11 UNK         0.5000 
     68 O          -2.0786  -21.1166  -49.2245 O.2       11 UNK        -0.5000 
     69 N          -2.1775  -20.2787  -47.1262 N.am      12 UNK        -0.5000 
     70 CA         -3.6274  -20.1085  -47.0754 C.3       12 UNK         0.1400 
     71 CB         -3.9913  -19.1565  -45.9281 C.3       12 UNK        -0.1800 
     72 C          -4.3627  -21.4536  -46.9329 C.2       12 UNK         0.5000 
     73 O          -5.3836  -21.6545  -47.5932 O.2       12 UNK        -0.5000 
     74 N          -3.8213  -22.3522  -46.0945 N.am      13 UNK        -0.5000 
     75 CA         -4.3292  -23.6976  -45.8167 C.3       13 UNK         0.1400 
     76 CB         -3.3957  -24.3939  -44.8139 C.3       13 UNK        -0.1800 
     77 C          -4.4858  -24.5388  -47.0959 C.2       13 UNK         0.5000 
     78 O          -3.4838  -24.9089  -47.7126 O.2       13 UNK        -0.5000 
     79 N          -5.7464  -24.7633  -47.4976 N.am      14 UNK        -0.5000 
     80 CA         -6.1841  -25.4532  -48.7192 C.3       14 UNK         0.1400 
     81 CB         -5.8804  -26.9629  -48.6151 C.3       14 UNK        -0.1800 
     82 C          -5.6228  -24.8331  -50.0189 C.2       14 UNK         0.5000 
     83 O          -5.4697  -25.5417  -51.0144 O.2       14 UNK        -0.5000 
     84 N          -5.2712  -23.5383  -49.9729 N.am      15 UNK        -0.5000 
     85 CA         -4.5317  -22.7928  -50.9957 C.3       15 UNK         0.1400 
     86 CB         -5.4279  -22.5102  -52.2185 C.3       15 UNK        -0.1800 
     87 C          -3.1889  -23.4609  -51.3688 C.2       15 UNK         0.5000 
     88 O          -2.8521  -23.5491  -52.5510 O.2       15 UNK        -0.5000 
     89 N          -2.4751  -23.9619  -50.3483 N.am      16 UNK        -0.5000 
     90 CA         -1.2234  -24.7203  -50.4266 C.3       16 UNK         0.1400 
     91 CB         -0.0947  -23.8629  -51.0404 C.3       16 UNK        -0.1800 
     92 C          -1.4203  -26.0687  -51.1486 C.2       16 UNK         0.5000 
     93 O          -0.5923  -26.4553  -51.9725 O.2       16 UNK        -0.5000 
     94 N          -2.5476  -26.7358  -50.8560 N.am      17 UNK        -0.5000 
     95 CA         -3.0738  -27.9206  -51.5470 C.3       17 UNK         0.1400 
     96 CB         -2.1747  -29.1512  -51.3073 C.3       17 UNK        -0.1800 
     97 C          -3.3341  -27.6286  -53.0412 C.2       17 UNK         0.5000 
     98 O          -2.8925  -28.3746  -53.9163 O.2       17 UNK        -0.5000 
     99 N          -4.0160  -26.5007  -53.2831 N.am      18 UNK        -0.5000 
    100 CA        -4.3642  -25.8835  -54.5667 C.3       18 UNK         0.1400 
    101 CB        -5.2483  -26.8242  -55.4099 C.3       18 UNK        -0.1800 
    102 C         -3.1766  -25.3273  -55.3834 C.2       18 UNK         0.5000 
    103 O         -3.4110  -24.7770  -56.4604 O.2       18 UNK        -0.5000 
    104 N         -1.9379  -25.4359  -54.8804 N.am      19 UNK        -0.5000 
    105 CA        -0.7231  -24.9963  -55.5720 C.3       19 UNK         0.1400 
    106 CB         0.5121  -25.5842  -54.8754 C.3       19 UNK        -0.1800 
    107 C         -0.5908  -23.4667  -55.6959 C.2       19 UNK         0.5000 
    108 O          0.0470  -22.9997  -56.6407 O.2       19 UNK        -0.5000 
    109 N         -1.1927  -22.7104  -54.7656 N.am      20 UNK        -0.5000 
    110 CA        -1.2213  -21.2453  -54.8057 C.3       20 UNK         0.1400 
    111 CB        -1.4944  -20.6983  -53.3983 C.3       20 UNK        -0.1800 
    112 C         -2.2614  -20.6979  -55.8028 C.2       20 UNK         0.5000 
    113 O         -2.1501  -19.5421  -56.2121 O.2       20 UNK        -0.5000 
    114 N         -3.2443  -21.5355  -56.1706 N.am      21 UNK        -0.5000 
    115 CA        -4.3234  -21.2817  -57.1314 C.3       21 UNK         0.1400 
    116 CB        -3.7528  -21.1371  -58.5578 C.3       21 UNK        -0.1800 
    117 C         -5.2625  -20.1191  -56.7373 C.2       21 UNK         0.5000 
    118 O         -5.8216  -19.4578  -57.6149 O.2       21 UNK        -0.5000 
    119 N         -5.4311  -19.8960  -55.4268 N.am      22 UNK        -0.5000 
    120 CA        -6.3763  -18.9239  -54.8550 C.3       22 UNK         0.1400 
    121 C         -7.8584  -19.2899  -55.1538 C.2       22 UNK         0.5000 
    122 N         -8.7088  -18.3047  -55.4079 N.am      22 UNK        -0.7600 
    123 O         -8.2520  -20.4537  -55.1130 O.2       22 UNK        -0.5000 
    124 C124       -6.1750  -18.7515  -53.3287 C.3       23 UNK        -0.0398 
    125 S125       -4.5529  -18.0402  -52.8902 S.3       23 UNK        -0.2404 
    126 C126       -4.2483  -18.8512  -51.2912 C.3       23 UNK        -0.0205 
    127 H127       -0.4584  -10.7273  -50.1003 H         1 UNK         0.0600 
    128 H128        0.6717  -12.0185  -49.6852 H         1 UNK         0.0600 
    129 H129        0.9687  -10.3717  -49.1209 H         1 UNK         0.0600 
    130 H130       -0.1061  -13.3322  -48.0930 H         1 UNK         0.3000 
    131 H131       -1.0875  -14.1743  -46.3193 H         1 UNK         0.0600 
    132 H132       -3.2050  -11.9791  -46.5053 H         1 UNK         0.0800 
    133 H133       -3.3689  -13.4821  -45.6430 H         1 UNK         0.0800 
    134 H134       -3.0725  -15.7076  -46.5784 H         1 UNK         0.0800 
    135 H135       -4.6609  -15.8176  -47.2937 H         1 UNK         0.0800 
    136 H136       -4.9509  -17.0923  -49.3338 H         1 UNK         0.1150 
    137 H137       -1.5212  -18.7903  -51.2653 H         1 UNK         0.1150 
    138 H138       -1.0082  -16.0029  -48.0580 H         1 UNK         0.1150 
    139 H139        0.6905  -17.9213  -50.7860 H         1 UNK         0.0800 
    140 H140        0.8321  -16.4925  -49.7977 H         1 UNK         0.0800 
    141 H141        1.8145  -20.6586  -49.1245 H         1 UNK         0.0800 
    142 H142        0.4004  -20.1968  -50.0100 H         1 UNK         0.0800 
    143 H143        0.1306  -22.0749  -48.3469 H         1 UNK         0.0600 
    144 H144        0.6228  -19.9801  -46.3109 H         1 UNK         0.3000 
    145 H145        0.9364  -22.5311  -43.7800 H         1 UNK         0.0600 
    146 H146        2.8059  -21.0095  -43.2904 H         1 UNK         0.0600 
    147 H147        3.1239  -21.8521  -44.7984 H         1 UNK         0.0600 
    148 H148        2.5904  -20.1752  -44.8262 H         1 UNK         0.0600 
    149 H149        0.6451  -19.8649  -43.2277 H         1 UNK         0.3000 
    150 H150       -2.9034  -19.9147  -42.5638 H         1 UNK         0.0600 
    151 H151       -1.6470  -21.1664  -40.8117 H         1 UNK         0.0600 
    152 H152       -1.9411  -19.5044  -40.3235 H         1 UNK         0.0600 
    153 H153       -0.3416  -19.9867  -40.8836 H         1 UNK         0.0600 
    154 H154       -0.4698  -18.1921  -42.8402 H         1 UNK         0.3000 
    155 H155       -2.3997  -15.5392  -44.0464 H         1 UNK         0.0600 
    156 H156       -2.8200  -15.0214  -41.6511 H         1 UNK         0.0600 
    157 H157       -1.4222  -14.1229  -42.2123 H         1 UNK         0.0600 
    158 H158       -1.2037  -15.5624  -41.2192 H         1 UNK         0.0600 
    159 H159        0.3093  -15.5389  -43.2495 H         1 UNK         0.3000 
    160 H160        1.7769  -17.6642  -45.5814 H         1 UNK         0.0600 
    161 H161        1.8206  -14.5990  -45.6954 H         1 UNK         0.0600 
    162 H162        1.4040  -15.6481  -47.0462 H         1 UNK         0.0600 
    163 H163        3.0267  -15.6876  -46.3763 H         1 UNK         0.0600 
    164 H164        2.8920  -15.7403  -43.8202 H         1 UNK         0.3000 
    165 H165        2.5785  -16.8408  -40.8478 H         1 UNK         0.0600 
    166 H166        4.6670  -18.7367  -42.0399 H         1 UNK         0.0600 
    167 H167        4.6965  -18.1141  -40.3893 H         1 UNK         0.0600 
    168 H168        3.3821  -19.1508  -40.9192 H         1 UNK         0.0600 
    169 H169        3.8441  -15.1286  -41.3304 H         1 UNK         0.3000 
    170 H170        6.8011  -14.4457  -42.7264 H         1 UNK         0.0600 
    171 H171        5.9589  -14.4749  -45.0484 H         1 UNK         0.0600 
    172 H172        4.4072  -13.8232  -44.5419 H         1 UNK         0.0600 
    173 H173        5.8650  -12.8358  -44.4260 H         1 UNK         0.0600 
    174 H174        4.2826  -12.9788  -42.2106 H         1 UNK         0.3000 
    175 H175        4.9193  -12.5481  -38.7791 H         1 UNK         0.0600 
    176 H176        5.1618  -10.4114  -40.9676 H         1 UNK         0.0600 
    177 H177        4.7623  -10.1204  -39.2740 H         1 UNK         0.0600 
    178 H178        6.3528  -10.7232  -39.7104 H         1 UNK         0.0600 
    179 H179        2.9494  -11.4276  -40.5082 H         1 UNK         0.3000 
    180 H180        0.7283  -14.1805  -40.6354 H         1 UNK         0.0600 
    181 H181        0.5027  -11.6306  -38.9488 H         1 UNK         0.0600 
    182 H182        0.2834  -13.2723  -38.3541 H         1 UNK         0.0600 
    183 H183       -0.8414  -12.6141  -39.5313 H         1 UNK         0.0600 
    184 H184        0.4848  -11.4342  -41.4131 H         1 UNK         0.3000 
    185 H185        0.5656  -10.7777  -43.4924 H         1 UNK         0.0600 
    186 H186        3.0724  -10.6096  -43.4760 H         1 UNK         0.0600 
    187 H187        3.1590  -11.7891  -44.7791 H         1 UNK         0.0600 
    188 H188        2.3968  -10.2249  -45.0508 H         1 UNK         0.0600 
    189 H189        1.0540  -12.3374  -45.8613 H         1 UNK         0.3000 
    190 H190       -1.6563  -20.0388  -46.2966 H         1 UNK         0.3000 
    191 H191       -3.9512  -19.6498  -48.0110 H         1 UNK         0.0600 
    192 H192       -3.7397  -19.5805  -44.9563 H         1 UNK         0.0600 
    193 H193       -3.4666  -18.2058  -46.0228 H         1 UNK         0.0600 
    194 H194       -5.0601  -18.9406  -45.9250 H         1 UNK         0.0600 
    195 H195       -2.9924  -22.0839  -45.5720 H         1 UNK         0.3000 
    196 H196       -5.3075  -23.5895  -45.3445 H         1 UNK         0.0600 
    197 H197       -3.3852  -23.8712  -43.8574 H         1 UNK         0.0600 
    198 H198       -2.3697  -24.4361  -45.1827 H         1 UNK         0.0600 
    199 H199       -3.7196  -25.4172  -44.6201 H         1 UNK         0.0600 
    200 H200       -6.4930  -24.3691  -46.9417 H         1 UNK         0.3000 
    201 H201       -7.2670  -25.3338  -48.7717 H         1 UNK         0.0600 
    202 H202       -6.3098  -27.5106  -49.4549 H         1 UNK         0.0600 
    203 H203       -6.3045  -27.3872  -47.7051 H         1 UNK         0.0600 
    204 H204       -4.8084  -27.1617  -48.6080 H         1 UNK         0.0600 
    205 H205       -5.4285  -23.0358  -49.1043 H         1 UNK         0.3000 
    206 H206       -4.2791  -21.8376  -50.5383 H         1 UNK         0.0600 
    207 H207       -6.3381  -21.9887  -51.9236 H         1 UNK         0.0600 
    208 H208       -5.7226  -23.4282  -52.7254 H         1 UNK         0.0600 
    209 H209       -4.9133  -21.8833  -52.9469 H         1 UNK         0.0600 
    210 H210       -2.8662  -23.8874  -49.4155 H         1 UNK         0.3000 
    211 H211       -0.9428  -24.9544  -49.3987 H         1 UNK         0.0600 
    212 H212       -0.0217  -22.8927  -50.5519 H         1 UNK         0.0600 
    213 H213        0.8712  -24.3575  -50.9338 H         1 UNK         0.0600 
    214 H214       -0.2513  -23.6833  -52.1038 H         1 UNK         0.0600 
    215 H215       -3.1725  -26.3117  -50.1846 H         1 UNK         0.3000 
    216 H216       -4.0468  -28.1323  -51.1012 H         1 UNK         0.0600 
    217 H217       -2.6290  -30.0504  -51.7247 H         1 UNK         0.0600 
    218 H218       -1.1939  -29.0381  -51.7697 H         1 UNK         0.0600 
    219 H219       -2.0250  -29.3274  -50.2422 H         1 UNK         0.0600 
    220 H220       -4.3581  -25.9937  -52.4698 H         1 UNK         0.3000 
    221 H221       -4.9707  -25.0146  -54.3115 H         1 UNK         0.0600 
    222 H222       -4.6945  -27.6937  -55.7643 H         1 UNK         0.0600 
    223 H223       -6.1040  -27.1804  -54.8363 H         1 UNK         0.0600 
    224 H224       -5.6404  -26.3101  -56.2882 H         1 UNK         0.0600 
    225 H225       -1.8159  -25.8650  -53.9728 H         1 UNK         0.3000 
    226 H226       -0.7580  -25.4030  -56.5849 H         1 UNK         0.0600 
    227 H227        0.4293  -26.6655  -54.7632 H         1 UNK         0.0600 
    228 H228        1.4153  -25.3843  -55.4530 H         1 UNK         0.0600 
    229 H229        0.6589  -25.1523  -53.8856 H         1 UNK         0.0600 
    230 H230       -1.7120  -23.1583  -54.0128 H         1 UNK         0.3000 
    231 H231       -0.2398  -20.8836  -55.1195 H         1 UNK         0.0600 
    232 H232       -1.4327  -19.6098  -53.3957 H         1 UNK         0.0600 
    233 H233       -0.7707  -21.0721  -52.6737 H         1 UNK         0.0600 
    234 H234       -2.4906  -20.9679  -53.0513 H         1 UNK         0.0600 
    235 H235       -3.2140  -22.4747  -55.7972 H         1 UNK         0.3000 
    236 H236       -4.9448  -22.1784  -57.1215 H         1 UNK         0.0600 
    237 H237       -3.1124  -21.9820  -58.8121 H         1 UNK         0.0600 
    238 H238       -4.5518  -21.1038  -59.2993 H         1 UNK         0.0600 
    239 H239       -3.1654  -20.2252  -58.6683 H         1 UNK         0.0600 
    240 H240       -4.9294  -20.4751  -54.7726 H         1 UNK         0.3000 
    241 H241       -6.1711  -17.9626  -55.3308 H         1 UNK         0.0600 
    242 H242       -9.6757  -18.5272  -55.5884 H         1 UNK         0.3800 
    243 H243       -8.4105  -17.3416  -55.4407 H         1 UNK         0.3800 
    244 H244       -6.9346  -18.0849  -52.9159 H         1 UNK         0.0800 
    245 H245       -6.3078  -19.7088  -52.8238 H         1 UNK         0.0800 
    246 H246       -3.7998  -19.8270  -51.4685 H         1 UNK         0.0800 
    247 H247       -5.1927  -19.0328  -50.7756 H         1 UNK         0.0800 
@<TRIPOS>BOND
     1    1    2 1    
     2    1  127 1    
     3    1  128 1    
     4    1  129 1    
     5    2    3 2    
     6    2    4 am   BACKBONE|DICT|INTERRES
     7    4    5 1    
     8    4  130 1    
     9    5    6 1    
    10    5   65 1    
    11    5  131 1    
    12    6    7 1    
    13    6  132 1    
    14    6  133 1    
    15    7    8 1    
    16    8    9 1    
    17    8  134 1    
    18    8  135 1    
    19    9   10 ar   
    20    9   14 ar   
    21   10   11 ar   
    22   10  136 1    
    23   11   12 ar   
    24   11  126 1    
    25   12   13 ar   
    26   12  137 1    
    27   13   14 ar   
    28   13   15 1    
    29   14  138 1    
    30   15   16 1    
    31   15  139 1    
    32   15  140 1    
    33   16   17 1    
    34   17   18 1    
    35   17  141 1    
    36   17  142 1    
    37   18   19 1    
    38   18   67 1    
    39   18  143 1    
    40   19   20 am   BACKBONE|DICT|INTERRES
    41   19  144 1    
    42   20   21 2    
    43   20   22 1    
    44   22   23 1    
    45   22   24 1    
    46   22  145 1    
    47   23  146 1    
    48   23  147 1    
    49   23  148 1    
    50   24   25 am   BACKBONE|DICT|INTERRES
    51   24  149 1    
    52   25   26 2    
    53   25   27 1    
    54   27   28 1    
    55   27   29 1    
    56   27  150 1    
    57   28  151 1    
    58   28  152 1    
    59   28  153 1    
    60   29   30 am   BACKBONE|DICT|INTERRES
    61   29  154 1    
    62   30   31 2    
    63   30   32 1    
    64   32   33 1    
    65   32   34 1    
    66   32  155 1    
    67   33  156 1    
    68   33  157 1    
    69   33  158 1    
    70   34   35 am   BACKBONE|DICT|INTERRES
    71   34  159 1    
    72   35   36 2    
    73   35   37 1    
    74   37   38 1    
    75   37   39 1    
    76   37  160 1    
    77   38  161 1    
    78   38  162 1    
    79   38  163 1    
    80   39   40 am   BACKBONE|DICT|INTERRES
    81   39  164 1    
    82   40   41 2    
    83   40   42 1    
    84   42   43 1    
    85   42   44 1    
    86   42  165 1    
    87   43  166 1    
    88   43  167 1    
    89   43  168 1    
    90   44   45 am   BACKBONE|DICT|INTERRES
    91   44  169 1    
    92   45   46 2    
    93   45   47 1    
    94   47   48 1    
    95   47   49 1    
    96   47  170 1    
    97   48  171 1    
    98   48  172 1    
    99   48  173 1    
   100   49   50 am   BACKBONE|DICT|INTERRES
   101   49  174 1    
   102   50   51 2    
   103   50   52 1    
   104   52   53 1    
   105   52   54 1    
   106   52  175 1    
   107   53  176 1    
   108   53  177 1    
   109   53  178 1    
   110   54   55 am   BACKBONE|DICT|INTERRES
   111   54  179 1    
   112   55   56 2    
   113   55   57 1    
   114   57   58 1    
   115   57   59 1    
   116   57  180 1    
   117   58  181 1    
   118   58  182 1    
   119   58  183 1    
   120   59   60 am   BACKBONE|DICT|INTERRES
   121   59  184 1    
   122   60   61 2    
   123   60   62 1    
   124   62   63 1    
   125   62   64 1    
   126   62  185 1    
   127   63  186 1    
   128   63  187 1    
   129   63  188 1    
   130   64   65 am   BACKBONE|DICT|INTERRES
   131   64  189 1    
   132   65   66 2    
   133   67   68 2    
   134   67   69 am   BACKBONE|DICT|INTERRES
   135   69   70 1    
   136   69  190 1    
   137   70   71 1    
   138   70   72 1    
   139   70  191 1    
   140   71  192 1    
   141   71  193 1    
   142   71  194 1    
   143   72   73 2    
   144   72   74 am   BACKBONE|DICT|INTERRES
   145   74   75 1    
   146   74  195 1    
   147   75   76 1    
   148   75   77 1    
   149   75  196 1    
   150   76  197 1    
   151   76  198 1    
   152   76  199 1    
   153   77   78 2    
   154   77   79 am   BACKBONE|DICT|INTERRES
   155   79   80 1    
   156   79  200 1    
   157   80   81 1    
   158   80   82 1    
   159   80  201 1    
   160   81  202 1    
   161   81  203 1    
   162   81  204 1    
   163   82   83 2    
   164   82   84 am   BACKBONE|DICT|INTERRES
   165   84   85 1    
   166   84  205 1    
   167   85   86 1    
   168   85   87 1    
   169   85  206 1    
   170   86  207 1    
   171   86  208 1    
   172   86  209 1    
   173   87   88 2    
   174   87   89 am   BACKBONE|DICT|INTERRES
   175   89   90 1    
   176   89  210 1    
   177   90   91 1    
   178   90   92 1    
   179   90  211 1    
   180   91  212 1    
   181   91  213 1    
   182   91  214 1    
   183   92   93 2    
   184   92   94 am   BACKBONE|DICT|INTERRES
   185   94   95 1    
   186   94  215 1    
   187   95   96 1    
   188   95   97 1    
   189   95  216 1    
   190   96  217 1    
   191   96  218 1    
   192   96  219 1    
   193   97   98 2    
   194   97   99 am   BACKBONE|DICT|INTERRES
   195   99  100 1    
   196   99  220 1    
   197  100  101 1    
   198  100  102 1    
   199  100  221 1    
   200  101  222 1    
   201  101  223 1    
   202  101  224 1    
   203  102  103 2    
   204  102  104 am   BACKBONE|DICT|INTERRES
   205  104  105 1    
   206  104  225 1    
   207  105  106 1    
   208  105  107 1    
   209  105  226 1    
   210  106  227 1    
   211  106  228 1    
   212  106  229 1    
   213  107  108 2    
   214  107  109 am   BACKBONE|DICT|INTERRES
   215  109  110 1    
   216  109  230 1    
   217  110  111 1    
   218  110  112 1    
   219  110  231 1    
   220  111  232 1    
   221  111  233 1    
   222  111  234 1    
   223  112  113 2    
   224  112  114 am   BACKBONE|DICT|INTERRES
   225  114  115 1    
   226  114  235 1    
   227  115  116 1    
   228  115  117 1    
   229  115  236 1    
   230  116  237 1    
   231  116  238 1    
   232  116  239 1    
   233  117  118 2    
   234  117  119 am   BACKBONE|DICT|INTERRES
   235  119  120 1    
   236  119  240 1    
   237  120  121 1    
   238  120  124 1    
   239  120  241 1    
   240  121  122 am   BACKBONE|DICT|INTERRES
   241  121  123 2    
   242  122  242 1    
   243  122  243 1    
   244  124  125 1    
   245  124  244 1    
   246  124  245 1    
   247  125  126 1    
   248  126  246 1    
   249  126  247 1    
@<TRIPOS>SUBSTRUCTURE
     1 UNK         1 GROUP             0       ****    0 ROOT    
