@<TRIPOS>MOLECULE
3R540
247   249    1
SMALL
USER_CHARGES


@<TRIPOS>ATOM
      1 CA         -0.8382   -7.7805  -45.8790 C.3       0 UNK        -0.1800 
      2 C          -0.5084   -9.2546  -46.0719 C.2       0 UNK         0.5000 
      3 O          -0.0769   -9.9066  -45.1214 O.2       0 UNK        -0.5000 
      4 N          -0.7265   -9.7663  -47.2919 N.am      1 UNK        -0.5000 
      5 CA         -0.4391  -11.1257  -47.7679 C.3       1 UNK         0.1400 
      6 C6         -1.0291  -12.2436  -46.8655 C.3       23 UNK        -0.0398 
      7 S7         -1.0572  -13.8811  -47.6652 S.3       23 UNK        -0.2404 
      8 C8         -2.6532  -13.8518  -48.5354 C.3       23 UNK        -0.0205 
      9 C9         -2.8830  -15.1748  -49.2469 C.ar      23 UNK        -0.0193 
     10 C10        -2.2301  -15.4476  -50.4514 C.ar      23 UNK        -0.1150 
     11 C11        -2.3830  -16.6889  -51.0736 C.ar      23 UNK        -0.0193 
     12 C12        -3.2074  -17.6545  -50.4865 C.ar      23 UNK        -0.1150 
     13 C13        -3.8657  -17.3990  -49.2770 C.ar      23 UNK        -0.0193 
     14 C14        -3.7106  -16.1457  -48.6781 C.ar      23 UNK        -0.1150 
     15 C15        -4.7334  -18.4557  -48.5921 C.3       23 UNK        -0.0205 
     16 S16        -4.0330  -20.1342  -48.6970 S.3       23 UNK        -0.2404 
     17 C17        -4.9988  -21.0584  -47.4578 C.3       23 UNK        -0.0398 
     18 CA         -4.1269  -21.3710  -46.2111 C.3       11 UNK         0.1400 
     19 N          -3.9464  -20.2153  -45.3241 N.am      11 UNK        -0.5000 
     20 C          -4.8692  -19.6543  -44.5277 C.2       10 UNK         0.5000 
     21 O          -6.0602  -19.9668  -44.5337 O.2       10 UNK        -0.5000 
     22 CA         -4.3765  -18.5988  -43.5174 C.3       10 UNK         0.1400 
     23 CB         -4.2981  -19.2160  -42.1118 C.3       10 UNK        -0.1800 
     24 N          -3.0643  -18.0528  -43.8613 N.am      10 UNK        -0.5000 
     25 C          -2.8517  -17.1362  -44.8128 C.2       9 UNK         0.5000 
     26 O          -3.7599  -16.5594  -45.4076 O.2       9 UNK        -0.5000 
     27 CA         -1.3840  -16.8304  -45.1697 C.3       9 UNK         0.1400 
     28 CB         -0.8504  -15.6844  -44.2955 C.3       9 UNK        -0.1800 
     29 N          -0.5054  -17.9981  -45.0377 N.am      9 UNK        -0.5000 
     30 C          -0.5900  -19.1074  -45.7879 C.2       8 UNK         0.5000 
     31 O          -1.3992  -19.2483  -46.6989 O.2       8 UNK        -0.5000 
     32 CA          0.3270  -20.2849  -45.4145 C.3       8 UNK         0.1400 
     33 CB          1.7284  -20.1328  -46.0249 C.3       8 UNK        -0.1800 
     34 N           0.4322  -20.4327  -43.9639 N.am      8 UNK        -0.5000 
     35 C          -0.5225  -20.9692  -43.1919 C.2       7 UNK         0.5000 
     36 O          -1.5500  -21.4827  -43.6356 O.2       7 UNK        -0.5000 
     37 CA         -0.3085  -20.9030  -41.6684 C.3       7 UNK         0.1400 
     38 CB          0.3879  -22.1738  -41.1629 C.3       7 UNK        -0.1800 
     39 N           0.4610  -19.7271  -41.2555 N.am      7 UNK        -0.5000 
     40 C          -0.0077  -18.4721  -41.3038 C.2       6 UNK         0.5000 
     41 O          -1.1448  -18.1865  -41.6741 O.2       6 UNK        -0.5000 
     42 CA          0.9722  -17.3462  -40.9255 C.3       6 UNK         0.1400 
     43 CB          0.9643  -17.1116  -39.4078 C.3       6 UNK        -0.1800 
     44 N           2.3454  -17.5964  -41.3733 N.am      6 UNK        -0.5000 
     45 C           2.7192  -17.7146  -42.6536 C.2       5 UNK         0.5000 
     46 O           1.9375  -17.6563  -43.6054 O.2       5 UNK        -0.5000 
     47 CA          4.2020  -18.0017  -42.9072 C.3       5 UNK         0.1400 
     48 CB          4.5039  -19.4983  -42.7128 C.3       5 UNK        -0.1800 
     49 N           4.5467  -17.6114  -44.2711 N.am      5 UNK        -0.5000 
     50 C           5.7511  -17.1820  -44.6626 C.2       4 UNK         0.5000 
     51 O           6.7046  -17.0508  -43.8931 O.2       4 UNK        -0.5000 
     52 CA          5.9552  -16.8662  -46.1580 C.3       4 UNK         0.1400 
     53 CB          6.8600  -17.9276  -46.8056 C.3       4 UNK        -0.1800 
     54 N           4.7223  -16.7721  -46.9445 N.am      4 UNK        -0.5000 
     55 C           3.9037  -15.7134  -46.9601 C.2       3 UNK         0.5000 
     56 O           4.0126  -14.7490  -46.1993 O.2       3 UNK        -0.5000 
     57 CA          2.7753  -15.7538  -48.0113 C.3       3 UNK         0.1400 
     58 CB          1.5188  -16.4185  -47.4369 C.3       3 UNK        -0.1800 
     59 N           2.4219  -14.4277  -48.5216 N.am      3 UNK        -0.5000 
     60 C           3.2384  -13.6331  -49.2294 C.2       2 UNK         0.5000 
     61 O           4.3893  -13.9475  -49.5379 O.2       2 UNK        -0.5000 
     62 CA          2.6824  -12.2770  -49.7118 C.3       2 UNK         0.1400 
     63 CB          2.6369  -12.2315  -51.2486 C.3       2 UNK        -0.1800 
     64 N           1.3383  -11.9879  -49.2066 N.am      2 UNK        -0.5000 
     65 C           1.0637  -11.3225  -48.0775 C.2       1 UNK         0.5000 
     66 O           1.9309  -10.8806  -47.3210 O.2       1 UNK        -0.5000 
     67 C          -4.5557  -22.6333  -45.4239 C.2       11 UNK         0.5000 
     68 O          -5.3525  -23.4403  -45.9045 O.2       11 UNK        -0.5000 
     69 N          -3.9976  -22.7760  -44.2148 N.am      12 UNK        -0.5000 
     70 CA         -4.1126  -23.9553  -43.3617 C.3       12 UNK         0.1400 
     71 CB         -4.0499  -23.5096  -41.8922 C.3       12 UNK        -0.1800 
     72 C          -2.9893  -24.9612  -43.6695 C.2       12 UNK         0.5000 
     73 O          -3.2005  -26.1683  -43.5455 O.2       12 UNK        -0.5000 
     74 N          -1.8197  -24.4446  -44.0704 N.am      13 UNK        -0.5000 
     75 CA         -0.6711  -25.2182  -44.5328 C.3       13 UNK         0.1400 
     76 CB          0.5741  -24.3153  -44.4866 C.3       13 UNK        -0.1800 
     77 C          -0.8764  -25.7599  -45.9601 C.2       13 UNK         0.5000 
     78 O          -1.7541  -25.2928  -46.6904 O.2       13 UNK        -0.5000 
     79 N          -0.0092  -26.7044  -46.3496 N.am      14 UNK        -0.5000 
     80 CA          0.1183  -27.1913  -47.7270 C.3       14 UNK         0.1400 
     81 CB          0.9519  -28.4817  -47.7300 C.3       14 UNK        -0.1800 
     82 C           0.7412  -26.1398  -48.6692 C.2       14 UNK         0.5000 
     83 O           0.4978  -26.1839  -49.8752 O.2       14 UNK        -0.5000 
     84 N           1.5167  -25.2048  -48.1001 N.am      15 UNK        -0.5000 
     85 CA          1.9933  -23.9927  -48.7612 C.3       15 UNK         0.1400 
     86 CB          3.0304  -23.3060  -47.8605 C.3       15 UNK        -0.1800 
     87 C           0.8128  -23.0495  -49.0522 C.2       15 UNK         0.5000 
     88 O          -0.0296  -22.8471  -48.1752 O.2       15 UNK        -0.5000 
     89 N           0.7597  -22.5247  -50.2829 N.am      16 UNK        -0.5000 
     90 CA         -0.3150  -21.7246  -50.8886 C.3       16 UNK         0.1400 
     91 CB         -0.5951  -20.4333  -50.0990 C.3       16 UNK        -0.1800 
     92 C          -1.6072  -22.5236  -51.1640 C.2       16 UNK         0.5000 
     93 O          -2.1430  -22.4302  -52.2689 O.2       16 UNK        -0.5000 
     94 N          -2.0520  -23.3212  -50.1843 N.am      17 UNK        -0.5000 
     95 CA         -3.1523  -24.2941  -50.1892 C.3       17 UNK         0.1400 
     96 CB         -2.9433  -25.3701  -51.2717 C.3       17 UNK        -0.1800 
     97 C          -4.5691  -23.6944  -50.2771 C.2       17 UNK         0.5000 
     98 O          -5.4618  -24.1718  -49.5761 O.2       17 UNK        -0.5000 
     99 N          -4.7617  -22.6689  -51.1095 N.am      18 UNK        -0.5000 
    100 CA        -6.0009  -21.9174  -51.2730 C.3       18 UNK         0.1400 
    101 CB        -7.0082  -22.7220  -52.1155 C.3       18 UNK        -0.1800 
    102 C         -5.6753  -20.5880  -51.9602 C.2       18 UNK         0.5000 
    103 O         -4.7259  -20.5300  -52.7429 O.2       18 UNK        -0.5000 
    104 N         -6.4995  -19.5605  -51.7179 N.am      19 UNK        -0.5000 
    105 CA        -6.3774  -18.2363  -52.3432 C.3       19 UNK         0.1400 
    106 CB        -7.3185  -17.2525  -51.6316 C.3       19 UNK        -0.1800 
    107 C         -6.6472  -18.2432  -53.8619 C.2       19 UNK         0.5000 
    108 O         -6.1725  -17.3571  -54.5720 O.2       19 UNK        -0.5000 
    109 N         -7.3940  -19.2500  -54.3331 N.am      20 UNK        -0.5000 
    110 CA        -7.6387  -19.5143  -55.7500 C.3       20 UNK         0.1400 
    111 CB        -8.9417  -20.3196  -55.8771 C.3       20 UNK        -0.1800 
    112 C         -6.4756  -20.2666  -56.4296 C.2       20 UNK         0.5000 
    113 O         -6.4282  -20.2994  -57.6601 O.2       20 UNK        -0.5000 
    114 N         -5.5824  -20.8743  -55.6361 N.am      21 UNK        -0.5000 
    115 CA        -4.4554  -21.6732  -56.1080 C.3       21 UNK         0.1400 
    116 CB        -4.3793  -22.9799  -55.2966 C.3       21 UNK        -0.1800 
    117 C         -3.1494  -20.8739  -56.0047 C.2       21 UNK         0.5000 
    118 O         -2.5094  -20.6256  -57.0276 O.2       21 UNK        -0.5000 
    119 N         -2.7838  -20.4925  -54.7737 N.am      22 UNK        -0.5000 
    120 CA        -1.5208  -19.8368  -54.3993 C.3       22 UNK         0.1400 
    121 C         -0.2511  -20.6354  -54.8233 C.2       22 UNK         0.5000 
    122 N         -0.2514  -21.9509  -54.6449 N.am      22 UNK        -0.7600 
    123 O          0.7356  -20.0778  -55.2966 O.2       22 UNK        -0.5000 
    124 C124       -1.4875  -18.3312  -54.7799 C.3       23 UNK        -0.0398 
    125 S125       -2.6617  -17.3742  -53.7624 S.3       23 UNK        -0.2404 
    126 C126       -1.5935  -17.0168  -52.3317 C.3       23 UNK        -0.0205 
    127 H127       -1.5902   -7.6632  -45.0986 H         1 UNK         0.0600 
    128 H128       -1.2231   -7.3262  -46.7923 H         1 UNK         0.0600 
    129 H129        0.0550   -7.2332  -45.5779 H         1 UNK         0.0600 
    130 H130       -1.0716   -9.1422  -48.0081 H         1 UNK         0.3000 
    131 H131       -0.9668  -11.1782  -48.7217 H         1 UNK         0.0600 
    132 H132       -2.0457  -11.9872  -46.5647 H         1 UNK         0.0800 
    133 H133       -0.4576  -12.3369  -45.9409 H         1 UNK         0.0800 
    134 H134       -2.6682  -13.0347  -49.2578 H         1 UNK         0.0800 
    135 H135       -3.4553  -13.6569  -47.8217 H         1 UNK         0.0800 
    136 H136       -1.5753  -14.7037  -50.8829 H         1 UNK         0.1150 
    137 H137       -3.3187  -18.6160  -50.9675 H         1 UNK         0.1150 
    138 H138       -4.2180  -15.9301  -47.7504 H         1 UNK         0.1150 
    139 H139       -4.8563  -18.2045  -47.5372 H         1 UNK         0.0800 
    140 H140       -5.7278  -18.4518  -49.0368 H         1 UNK         0.0800 
    141 H141       -5.3290  -21.9724  -47.9501 H         1 UNK         0.0800 
    142 H142       -5.9067  -20.5171  -47.1906 H         1 UNK         0.0800 
    143 H143       -3.1250  -21.6210  -46.5662 H         1 UNK         0.0600 
    144 H144       -3.0053  -19.8462  -45.2951 H         1 UNK         0.3000 
    145 H145       -5.1068  -17.7872  -43.4970 H         1 UNK         0.0600 
    146 H146       -3.9957  -18.4749  -41.3718 H         1 UNK         0.0600 
    147 H147       -3.5828  -20.0384  -42.0737 H         1 UNK         0.0600 
    148 H148       -5.2668  -19.6094  -41.8010 H         1 UNK         0.0600 
    149 H149       -2.2717  -18.3890  -43.3247 H         1 UNK         0.3000 
    150 H150       -1.3576  -16.5134  -46.2140 H         1 UNK         0.0600 
    151 H151       -1.4203  -14.7705  -44.4674 H         1 UNK         0.0600 
    152 H152        0.1936  -15.4619  -44.5132 H         1 UNK         0.0600 
    153 H153       -0.9247  -15.9214  -43.2345 H         1 UNK         0.0600 
    154 H154        0.2368  -17.9328  -44.3466 H         1 UNK         0.3000 
    155 H155       -0.1175  -21.1929  -45.8285 H         1 UNK         0.0600 
    156 H156        1.6726  -20.0779  -47.1130 H         1 UNK         0.0600 
    157 H157        2.3588  -20.9847  -45.7730 H         1 UNK         0.0600 
    158 H158        2.2340  -19.2354  -45.6723 H         1 UNK         0.0600 
    159 H159        1.2229  -19.9908  -43.5197 H         1 UNK         0.3000 
    160 H160       -1.2937  -20.8490  -41.2001 H         1 UNK         0.0600 
    161 H161        1.3792  -22.2938  -41.6020 H         1 UNK         0.0600 
    162 H162       -0.1954  -23.0616  -41.4111 H         1 UNK         0.0600 
    163 H163        0.5006  -22.1564  -40.0788 H         1 UNK         0.0600 
    164 H164        1.4052  -19.8820  -40.9343 H         1 UNK         0.3000 
    165 H165        0.6266  -16.4319  -41.4116 H         1 UNK         0.0600 
    166 H166        1.5854  -16.2574  -39.1375 H         1 UNK         0.0600 
    167 H167       -0.0451  -16.9031  -39.0506 H         1 UNK         0.0600 
    168 H168        1.3326  -17.9814  -38.8625 H         1 UNK         0.0600 
    169 H169        3.0462  -17.6686  -40.6495 H         1 UNK         0.3000 
    170 H170        4.7847  -17.4138  -42.1948 H         1 UNK         0.0600 
    171 H171        3.9377  -20.1163  -43.4110 H         1 UNK         0.0600 
    172 H172        5.5626  -19.7093  -42.8651 H         1 UNK         0.0600 
    173 H173        4.2526  -19.8253  -41.7032 H         1 UNK         0.0600 
    174 H174        3.7793  -17.6234  -44.9290 H         1 UNK         0.3000 
    175 H175        6.4712  -15.9051  -46.2139 H         1 UNK         0.0600 
    176 H176        6.3966  -18.9149  -46.7891 H         1 UNK         0.0600 
    177 H177        7.0832  -17.6772  -47.8429 H         1 UNK         0.0600 
    178 H178        7.8136  -18.0045  -46.2813 H         1 UNK         0.0600 
    179 H179        4.5508  -17.5315  -47.5876 H         1 UNK         0.3000 
    180 H180        3.1174  -16.3485  -48.8609 H         1 UNK         0.0600 
    181 H181        0.7259  -16.4900  -48.1822 H         1 UNK         0.0600 
    182 H182        1.1319  -15.8602  -46.5859 H         1 UNK         0.0600 
    183 H183        1.7329  -17.4300  -47.0967 H         1 UNK         0.0600 
    184 H184        1.5011  -14.0857  -48.2890 H         1 UNK         0.3000 
    185 H185        3.3754  -11.5042  -49.3724 H         1 UNK         0.0600 
    186 H186        3.6271  -12.3933  -51.6767 H         1 UNK         0.0600 
    187 H187        1.9747  -12.9971  -51.6549 H         1 UNK         0.0600 
    188 H188        2.2878  -11.2618  -51.6042 H         1 UNK         0.0600 
    189 H189        0.5733  -12.3315  -49.7696 H         1 UNK         0.3000 
    190 H190       -3.3106  -22.0846  -43.9270 H         1 UNK         0.3000 
    191 H191       -5.0722  -24.4471  -43.5341 H         1 UNK         0.0600 
    192 H192       -3.1052  -23.0165  -41.6593 H         1 UNK         0.0600 
    193 H193       -4.1500  -24.3635  -41.2211 H         1 UNK         0.0600 
    194 H194       -4.8561  -22.8142  -41.6578 H         1 UNK         0.0600 
    195 H195       -1.7443  -23.4376  -44.1495 H         1 UNK         0.3000 
    196 H196       -0.5216  -26.0629  -43.8570 H         1 UNK         0.0600 
    197 H197        0.7428  -23.9257  -43.4842 H         1 UNK         0.0600 
    198 H198        0.4800  -23.4670  -45.1658 H         1 UNK         0.0600 
    199 H199        1.4740  -24.8624  -44.7687 H         1 UNK         0.0600 
    200 H200        0.6677  -27.0543  -45.6866 H         1 UNK         0.3000 
    201 H201       -0.8790  -27.4255  -48.1057 H         1 UNK         0.0600 
    202 H202        0.4877  -29.2529  -47.1151 H         1 UNK         0.0600 
    203 H203        1.9608  -28.3113  -47.3522 H         1 UNK         0.0600 
    204 H204        1.0433  -28.8843  -48.7397 H         1 UNK         0.0600 
    205 H205        1.6378  -25.2416  -47.1006 H         1 UNK         0.3000 
    206 H206        2.4746  -24.2745  -49.7000 H         1 UNK         0.0600 
    207 H207        3.3825  -22.3746  -48.3058 H         1 UNK         0.0600 
    208 H208        2.6139  -23.0671  -46.8817 H         1 UNK         0.0600 
    209 H209        3.9014  -23.9432  -47.7063 H         1 UNK         0.0600 
    210 H210        1.4959  -22.7806  -50.9261 H         1 UNK         0.3000 
    211 H211        0.0727  -21.4204  -51.8608 H         1 UNK         0.0600 
    212 H212       -1.0093  -20.6336  -49.1110 H         1 UNK         0.0600 
    213 H213       -1.3173  -19.8129  -50.6269 H         1 UNK         0.0600 
    214 H214        0.3105  -19.8412  -49.9685 H         1 UNK         0.0600 
    215 H215       -1.5327  -23.2725  -49.3114 H         1 UNK         0.3000 
    216 H216       -3.0893  -24.7938  -49.2209 H         1 UNK         0.0600 
    217 H217       -3.6972  -26.1538  -51.1898 H         1 UNK         0.0600 
    218 H218       -1.9678  -25.8457  -51.1719 H         1 UNK         0.0600 
    219 H219       -3.0144  -24.9560  -52.2780 H         1 UNK         0.0600 
    220 H220       -3.9722  -22.3268  -51.6536 H         1 UNK         0.3000 
    221 H221       -6.4241  -21.7084  -50.2886 H         1 UNK         0.0600 
    222 H222       -6.6075  -22.9598  -53.1016 H         1 UNK         0.0600 
    223 H223       -7.2744  -23.6606  -51.6298 H         1 UNK         0.0600 
    224 H224       -7.9335  -22.1638  -52.2620 H         1 UNK         0.0600 
    225 H225       -7.2698  -19.6847  -51.0769 H         1 UNK         0.3000 
    226 H226       -5.3535  -17.8875  -52.2053 H         1 UNK         0.0600 
    227 H227       -7.0703  -17.1602  -50.5746 H         1 UNK         0.0600 
    228 H228       -7.2411  -16.2553  -52.0669 H         1 UNK         0.0600 
    229 H229       -8.3606  -17.5647  -51.7084 H         1 UNK         0.0600 
    230 H230       -7.7679  -19.9175  -53.6756 H         1 UNK         0.3000 
    231 H231       -7.7713  -18.5655  -56.2743 H         1 UNK         0.0600 
    232 H232       -9.1824  -20.5122  -56.9235 H         1 UNK         0.0600 
    233 H233       -9.7841  -19.7778  -55.4465 H         1 UNK         0.0600 
    234 H234       -8.8695  -21.2848  -55.3740 H         1 UNK         0.0600 
    235 H235       -5.6299  -20.7213  -54.6369 H         1 UNK         0.3000 
    236 H236       -4.5949  -21.9482  -57.1556 H         1 UNK         0.0600 
    237 H237       -4.2658  -22.7980  -54.2275 H         1 UNK         0.0600 
    238 H238       -5.2786  -23.5796  -55.4363 H         1 UNK         0.0600 
    239 H239       -3.5312  -23.5870  -55.6154 H         1 UNK         0.0600 
    240 H240       -3.4063  -20.6948  -53.9943 H         1 UNK         0.3000 
    241 H241       -1.4932  -19.8864  -53.3108 H         1 UNK         0.0600 
    242 H242        0.5512  -22.4947  -54.9188 H         1 UNK         0.3800 
    243 H243       -1.0439  -22.3969  -54.2014 H         1 UNK         0.3800 
    244 H244       -0.4931  -17.9043  -54.6406 H         1 UNK         0.0800 
    245 H245       -1.7300  -18.1937  -55.8343 H         1 UNK         0.0800 
    246 H246       -0.9202  -16.1992  -52.5938 H         1 UNK         0.0800 
    247 H247       -0.9581  -17.8761  -52.1166 H         1 UNK         0.0800 
@<TRIPOS>BOND
     1    1    2 1    
     2    1  127 1    
     3    1  128 1    
     4    1  129 1    
     5    2    3 2    
     6    2    4 am   BACKBONE|DICT|INTERRES
     7    4    5 1    
     8    4  130 1    
     9    5    6 1    
    10    5   65 1    
    11    5  131 1    
    12    6    7 1    
    13    6  132 1    
    14    6  133 1    
    15    7    8 1    
    16    8    9 1    
    17    8  134 1    
    18    8  135 1    
    19    9   10 ar   
    20    9   14 ar   
    21   10   11 ar   
    22   10  136 1    
    23   11   12 ar   
    24   11  126 1    
    25   12   13 ar   
    26   12  137 1    
    27   13   14 ar   
    28   13   15 1    
    29   14  138 1    
    30   15   16 1    
    31   15  139 1    
    32   15  140 1    
    33   16   17 1    
    34   17   18 1    
    35   17  141 1    
    36   17  142 1    
    37   18   19 1    
    38   18   67 1    
    39   18  143 1    
    40   19   20 am   BACKBONE|DICT|INTERRES
    41   19  144 1    
    42   20   21 2    
    43   20   22 1    
    44   22   23 1    
    45   22   24 1    
    46   22  145 1    
    47   23  146 1    
    48   23  147 1    
    49   23  148 1    
    50   24   25 am   BACKBONE|DICT|INTERRES
    51   24  149 1    
    52   25   26 2    
    53   25   27 1    
    54   27   28 1    
    55   27   29 1    
    56   27  150 1    
    57   28  151 1    
    58   28  152 1    
    59   28  153 1    
    60   29   30 am   BACKBONE|DICT|INTERRES
    61   29  154 1    
    62   30   31 2    
    63   30   32 1    
    64   32   33 1    
    65   32   34 1    
    66   32  155 1    
    67   33  156 1    
    68   33  157 1    
    69   33  158 1    
    70   34   35 am   BACKBONE|DICT|INTERRES
    71   34  159 1    
    72   35   36 2    
    73   35   37 1    
    74   37   38 1    
    75   37   39 1    
    76   37  160 1    
    77   38  161 1    
    78   38  162 1    
    79   38  163 1    
    80   39   40 am   BACKBONE|DICT|INTERRES
    81   39  164 1    
    82   40   41 2    
    83   40   42 1    
    84   42   43 1    
    85   42   44 1    
    86   42  165 1    
    87   43  166 1    
    88   43  167 1    
    89   43  168 1    
    90   44   45 am   BACKBONE|DICT|INTERRES
    91   44  169 1    
    92   45   46 2    
    93   45   47 1    
    94   47   48 1    
    95   47   49 1    
    96   47  170 1    
    97   48  171 1    
    98   48  172 1    
    99   48  173 1    
   100   49   50 am   BACKBONE|DICT|INTERRES
   101   49  174 1    
   102   50   51 2    
   103   50   52 1    
   104   52   53 1    
   105   52   54 1    
   106   52  175 1    
   107   53  176 1    
   108   53  177 1    
   109   53  178 1    
   110   54   55 am   BACKBONE|DICT|INTERRES
   111   54  179 1    
   112   55   56 2    
   113   55   57 1    
   114   57   58 1    
   115   57   59 1    
   116   57  180 1    
   117   58  181 1    
   118   58  182 1    
   119   58  183 1    
   120   59   60 am   BACKBONE|DICT|INTERRES
   121   59  184 1    
   122   60   61 2    
   123   60   62 1    
   124   62   63 1    
   125   62   64 1    
   126   62  185 1    
   127   63  186 1    
   128   63  187 1    
   129   63  188 1    
   130   64   65 am   BACKBONE|DICT|INTERRES
   131   64  189 1    
   132   65   66 2    
   133   67   68 2    
   134   67   69 am   BACKBONE|DICT|INTERRES
   135   69   70 1    
   136   69  190 1    
   137   70   71 1    
   138   70   72 1    
   139   70  191 1    
   140   71  192 1    
   141   71  193 1    
   142   71  194 1    
   143   72   73 2    
   144   72   74 am   BACKBONE|DICT|INTERRES
   145   74   75 1    
   146   74  195 1    
   147   75   76 1    
   148   75   77 1    
   149   75  196 1    
   150   76  197 1    
   151   76  198 1    
   152   76  199 1    
   153   77   78 2    
   154   77   79 am   BACKBONE|DICT|INTERRES
   155   79   80 1    
   156   79  200 1    
   157   80   81 1    
   158   80   82 1    
   159   80  201 1    
   160   81  202 1    
   161   81  203 1    
   162   81  204 1    
   163   82   83 2    
   164   82   84 am   BACKBONE|DICT|INTERRES
   165   84   85 1    
   166   84  205 1    
   167   85   86 1    
   168   85   87 1    
   169   85  206 1    
   170   86  207 1    
   171   86  208 1    
   172   86  209 1    
   173   87   88 2    
   174   87   89 am   BACKBONE|DICT|INTERRES
   175   89   90 1    
   176   89  210 1    
   177   90   91 1    
   178   90   92 1    
   179   90  211 1    
   180   91  212 1    
   181   91  213 1    
   182   91  214 1    
   183   92   93 2    
   184   92   94 am   BACKBONE|DICT|INTERRES
   185   94   95 1    
   186   94  215 1    
   187   95   96 1    
   188   95   97 1    
   189   95  216 1    
   190   96  217 1    
   191   96  218 1    
   192   96  219 1    
   193   97   98 2    
   194   97   99 am   BACKBONE|DICT|INTERRES
   195   99  100 1    
   196   99  220 1    
   197  100  101 1    
   198  100  102 1    
   199  100  221 1    
   200  101  222 1    
   201  101  223 1    
   202  101  224 1    
   203  102  103 2    
   204  102  104 am   BACKBONE|DICT|INTERRES
   205  104  105 1    
   206  104  225 1    
   207  105  106 1    
   208  105  107 1    
   209  105  226 1    
   210  106  227 1    
   211  106  228 1    
   212  106  229 1    
   213  107  108 2    
   214  107  109 am   BACKBONE|DICT|INTERRES
   215  109  110 1    
   216  109  230 1    
   217  110  111 1    
   218  110  112 1    
   219  110  231 1    
   220  111  232 1    
   221  111  233 1    
   222  111  234 1    
   223  112  113 2    
   224  112  114 am   BACKBONE|DICT|INTERRES
   225  114  115 1    
   226  114  235 1    
   227  115  116 1    
   228  115  117 1    
   229  115  236 1    
   230  116  237 1    
   231  116  238 1    
   232  116  239 1    
   233  117  118 2    
   234  117  119 am   BACKBONE|DICT|INTERRES
   235  119  120 1    
   236  119  240 1    
   237  120  121 1    
   238  120  124 1    
   239  120  241 1    
   240  121  122 am   BACKBONE|DICT|INTERRES
   241  121  123 2    
   242  122  242 1    
   243  122  243 1    
   244  124  125 1    
   245  124  244 1    
   246  124  245 1    
   247  125  126 1    
   248  126  246 1    
   249  126  247 1    
@<TRIPOS>SUBSTRUCTURE
     1 UNK         1 GROUP             0       ****    0 ROOT    
