@<TRIPOS>MOLECULE
3R540
247   249    1
SMALL
USER_CHARGES


@<TRIPOS>ATOM
      1 CA         -1.2205   -9.6891  -50.4012 C.3       0 UNK        -0.1800 
      2 C          -0.4001  -10.3340  -49.2936 C.2       0 UNK         0.5000 
      3 O           0.8275  -10.2360  -49.3003 O.2       0 UNK        -0.5000 
      4 N          -1.0686  -10.9774  -48.3289 N.am      1 UNK        -0.5000 
      5 CA         -0.4769  -11.7023  -47.1941 C.3       1 UNK         0.1400 
      6 C6         -1.4324  -12.8031  -46.6624 C.3       23 UNK        -0.0398 
      7 S7         -1.7930  -14.0607  -47.9351 S.3       23 UNK        -0.2404 
      8 C8         -2.1852  -15.5097  -46.9090 C.3       23 UNK        -0.0205 
      9 C9         -2.0808  -16.7897  -47.7207 C.ar      23 UNK        -0.0193 
     10 C10        -3.1864  -17.2856  -48.4159 C.ar      23 UNK        -0.1150 
     11 C11        -3.0856  -18.4668  -49.1574 C.ar      23 UNK        -0.0193 
     12 C12        -1.8693  -19.1574  -49.1911 C.ar      23 UNK        -0.1150 
     13 C13        -0.7595  -18.6788  -48.4884 C.ar      23 UNK        -0.0193 
     14 C14        -0.8716  -17.4861  -47.7703 C.ar      23 UNK        -0.1150 
     15 C15         0.5590  -19.4424  -48.5066 C.3       23 UNK        -0.0205 
     16 S16         1.1297  -19.8552  -46.8214 S.3       23 UNK        -0.2404 
     17 C17         1.6295  -21.6004  -46.9901 C.3       23 UNK        -0.0398 
     18 CA          0.5924  -22.6369  -46.4898 C.3       11 UNK         0.1400 
     19 N           0.2583  -22.5160  -45.0665 N.am      11 UNK        -0.5000 
     20 C          -0.2506  -23.5295  -44.3479 C.2       10 UNK         0.5000 
     21 O          -0.4666  -24.6506  -44.8109 O.2       10 UNK        -0.5000 
     22 CA         -0.6188  -23.2358  -42.8825 C.3       10 UNK         0.1400 
     23 CB          0.6423  -23.1242  -42.0121 C.3       10 UNK        -0.1800 
     24 N          -1.4245  -22.0253  -42.7286 N.am      10 UNK        -0.5000 
     25 C          -2.6446  -21.8396  -43.2535 C.2       9 UNK         0.5000 
     26 O          -3.2386  -22.6924  -43.9108 O.2       9 UNK        -0.5000 
     27 CA         -3.3068  -20.4639  -43.0291 C.3       9 UNK         0.1400 
     28 CB         -4.2882  -20.5286  -41.8496 C.3       9 UNK        -0.1800 
     29 N          -2.3499  -19.3776  -42.7989 N.am      9 UNK        -0.5000 
     30 C          -1.4307  -18.9748  -43.6855 C.2       8 UNK         0.5000 
     31 O          -1.3168  -19.4618  -44.8116 O.2       8 UNK        -0.5000 
     32 CA         -0.4511  -17.8968  -43.2009 C.3       8 UNK         0.1400 
     33 CB          0.4083  -18.4260  -42.0322 C.3       8 UNK        -0.1800 
     34 N           0.4187  -17.4792  -44.2973 N.am      8 UNK        -0.5000 
     35 C           1.1578  -16.3659  -44.2933 C.2       7 UNK         0.5000 
     36 O           1.1186  -15.5273  -43.3883 O.2       7 UNK        -0.5000 
     37 CA          2.1310  -16.1605  -45.4657 C.3       7 UNK         0.1400 
     38 CB          1.7708  -14.9067  -46.2809 C.3       7 UNK        -0.1800 
     39 N           3.4586  -15.9824  -44.8949 N.am      7 UNK        -0.5000 
     40 C           4.3369  -16.9648  -44.6633 C.2       6 UNK         0.5000 
     41 O           4.2337  -18.1054  -45.1150 O.2       6 UNK        -0.5000 
     42 CA          5.4845  -16.6250  -43.6955 C.3       6 UNK         0.1400 
     43 CB          6.4947  -15.6509  -44.3230 C.3       6 UNK        -0.1800 
     44 N           4.9463  -16.0632  -42.4551 N.am      6 UNK        -0.5000 
     45 C           4.3122  -16.7827  -41.5179 C.2       5 UNK         0.5000 
     46 O           4.2718  -18.0134  -41.5233 O.2       5 UNK        -0.5000 
     47 CA          3.5545  -16.0241  -40.4105 C.3       5 UNK         0.1400 
     48 CB          4.4294  -15.8124  -39.1593 C.3       5 UNK        -0.1800 
     49 N           2.9184  -14.7835  -40.8734 N.am      5 UNK        -0.5000 
     50 C           3.4862  -13.6087  -41.1696 C.2       4 UNK         0.5000 
     51 O           4.6861  -13.3624  -41.0277 O.2       4 UNK        -0.5000 
     52 CA          2.5411  -12.5356  -41.7446 C.3       4 UNK         0.1400 
     53 CB          1.9811  -11.6518  -40.6201 C.3       4 UNK        -0.1800 
     54 N           3.1824  -11.6796  -42.7434 N.am      4 UNK        -0.5000 
     55 C           3.7854  -12.1019  -43.8612 C.2       3 UNK         0.5000 
     56 O           3.8675  -13.2868  -44.1859 O.2       3 UNK        -0.5000 
     57 CA          4.3420  -11.0053  -44.7890 C.3       3 UNK         0.1400 
     58 CB          5.2209  -11.5783  -45.9157 C.3       3 UNK        -0.1800 
     59 N           3.2468  -10.2462  -45.3890 N.am      3 UNK        -0.5000 
     60 C           2.5494   -9.2725  -44.7880 C.2       2 UNK         0.5000 
     61 O           2.8091   -8.8425  -43.6630 O.2       2 UNK        -0.5000 
     62 CA          1.3442   -8.7077  -45.5627 C.3       2 UNK         0.1400 
     63 CB          1.7555   -7.4730  -46.3785 C.3       2 UNK        -0.1800 
     64 N           0.7444   -9.6959  -46.4615 N.am      2 UNK        -0.5000 
     65 C           0.0014  -10.7421  -46.0768 C.2       1 UNK         0.5000 
     66 O          -0.3047  -10.9521  -44.9021 O.2       1 UNK        -0.5000 
     67 C          -0.6721  -22.6973  -47.3685 C.2       11 UNK         0.5000 
     68 O          -0.6609  -23.4025  -48.3759 O.2       11 UNK        -0.5000 
     69 N          -1.7515  -22.0174  -46.9501 N.am      12 UNK        -0.5000 
     70 CA         -3.0661  -22.0828  -47.5914 C.3       12 UNK         0.1400 
     71 CB         -4.0188  -21.0676  -46.9420 C.3       12 UNK        -0.1800 
     72 C          -3.6650  -23.4985  -47.5473 C.2       12 UNK         0.5000 
     73 O          -4.1422  -23.9851  -48.5726 O.2       12 UNK        -0.5000 
     74 N          -3.5869  -24.1436  -46.3749 N.am      13 UNK        -0.5000 
     75 CA         -4.0063  -25.5252  -46.1505 C.3       13 UNK         0.1400 
     76 CB         -3.9825  -25.8352  -44.6464 C.3       13 UNK        -0.1800 
     77 C          -3.1498  -26.5357  -46.9317 C.2       13 UNK         0.5000 
     78 O          -3.7074  -27.4471  -47.5426 O.2       13 UNK        -0.5000 
     79 N          -1.8227  -26.3377  -46.9371 N.am      14 UNK        -0.5000 
     80 CA         -0.8652  -27.1611  -47.6834 C.3       14 UNK         0.1400 
     81 CB          0.5671  -26.7601  -47.3017 C.3       14 UNK        -0.1800 
     82 C          -1.0631  -27.0805  -49.2098 C.2       14 UNK         0.5000 
     83 O          -0.9621  -28.0993  -49.8938 O.2       14 UNK        -0.5000 
     84 N          -1.3775  -25.8776  -49.7071 N.am      15 UNK        -0.5000 
     85 CA         -1.7188  -25.6027  -51.1031 C.3       15 UNK         0.1400 
     86 CB         -1.5568  -24.0944  -51.3476 C.3       15 UNK        -0.1800 
     87 C          -3.1457  -26.0403  -51.4909 C.2       15 UNK         0.5000 
     88 O          -3.4787  -26.0107  -52.6779 O.2       15 UNK        -0.5000 
     89 N          -3.9745  -26.3730  -50.4878 N.am      16 UNK        -0.5000 
     90 CA         -5.4119  -26.6568  -50.5673 C.3       16 UNK         0.1400 
     91 CB         -5.6541  -28.0083  -51.2694 C.3       16 UNK        -0.1800 
     92 C          -6.2014  -25.4950  -51.2087 C.2       16 UNK         0.5000 
     93 O          -7.1393  -25.7309  -51.9729 O.2       16 UNK        -0.5000 
     94 N          -5.7500  -24.2601  -50.9366 N.am      17 UNK        -0.5000 
     95 CA         -6.1063  -22.9733  -51.5478 C.3       17 UNK         0.1400 
     96 CB         -7.5816  -22.6180  -51.2852 C.3       17 UNK        -0.1800 
     97 C          -5.7673  -22.8583  -53.0502 C.2       17 UNK         0.5000 
     98 O          -5.2349  -21.8311  -53.4729 O.2       17 UNK        -0.5000 
     99 N          -6.0812  -23.9020  -53.8252 N.am      18 UNK        -0.5000 
    100 CA        -5.9807  -23.9845  -55.2796 C.3       18 UNK         0.1400 
    101 CB        -6.5044  -25.3528  -55.7411 C.3       18 UNK        -0.1800 
    102 C         -4.5715  -23.7286  -55.8364 C.2       18 UNK         0.5000 
    103 O         -4.4347  -22.9422  -56.7740 O.2       18 UNK        -0.5000 
    104 N         -3.5445  -24.3575  -55.2447 N.am      19 UNK        -0.5000 
    105 CA        -2.1550  -24.2293  -55.7040 C.3       19 UNK         0.1400 
    106 CB        -1.3081  -25.3767  -55.1337 C.3       19 UNK        -0.1800 
    107 C         -1.5262  -22.8581  -55.3822 C.2       19 UNK         0.5000 
    108 O         -0.5376  -22.4832  -56.0133 O.2       19 UNK        -0.5000 
    109 N         -2.1223  -22.1278  -54.4310 N.am      20 UNK        -0.5000 
    110 CA        -1.7647  -20.7553  -54.0728 C.3       20 UNK         0.1400 
    111 CB        -1.9657  -20.5807  -52.5591 C.3       20 UNK        -0.1800 
    112 C         -2.5869  -19.7138  -54.8602 C.2       20 UNK         0.5000 
    113 O         -2.3286  -18.5182  -54.7192 O.2       20 UNK        -0.5000 
    114 N         -3.5603  -20.1793  -55.6605 N.am      21 UNK        -0.5000 
    115 CA        -4.5474  -19.4041  -56.4185 C.3       21 UNK         0.1400 
    116 CB        -3.8681  -18.5432  -57.5042 C.3       21 UNK        -0.1800 
    117 C         -5.5101  -18.6003  -55.5168 C.2       21 UNK         0.5000 
    118 O         -6.0130  -17.5542  -55.9317 O.2       21 UNK        -0.5000 
    119 N         -5.7646  -19.1123  -54.3058 N.am      22 UNK        -0.5000 
    120 CA        -6.6863  -18.5267  -53.3194 C.3       22 UNK         0.1400 
    121 C         -8.1733  -18.9380  -53.5307 C.2       22 UNK         0.5000 
    122 N         -8.4909  -19.8677  -54.4241 N.am      22 UNK        -0.7600 
    123 O         -9.0594  -18.3958  -52.8760 O.2       22 UNK        -0.5000 
    124 C124       -6.2392  -18.8290  -51.8670 C.3       23 UNK        -0.0398 
    125 S125       -4.5945  -18.1577  -51.4599 S.3       23 UNK        -0.2404 
    126 C126       -4.3057  -19.0122  -49.8821 C.3       23 UNK        -0.0205 
    127 H127       -0.9353  -10.1035  -51.3682 H         1 UNK         0.0600 
    128 H128       -2.2892   -9.8539  -50.2624 H         1 UNK         0.0600 
    129 H129       -1.0415   -8.6141  -50.4232 H         1 UNK         0.0600 
    130 H130       -2.0774  -11.0050  -48.3730 H         1 UNK         0.3000 
    131 H131        0.4234  -12.2075  -47.5514 H         1 UNK         0.0600 
    132 H132       -2.3719  -12.3700  -46.3154 H         1 UNK         0.0800 
    133 H133       -0.9864  -13.3044  -45.8015 H         1 UNK         0.0800 
    134 H134       -3.1902  -15.4015  -46.4985 H         1 UNK         0.0800 
    135 H135       -1.5092  -15.5650  -46.0547 H         1 UNK         0.0800 
    136 H136       -4.1256  -16.7516  -48.3823 H         1 UNK         0.1150 
    137 H137       -1.7900  -20.0762  -49.7528 H         1 UNK         0.1150 
    138 H138       -0.0147  -17.1098  -47.2363 H         1 UNK         0.1150 
    139 H139        0.4557  -20.3501  -49.1025 H         1 UNK         0.0800 
    140 H140        1.3183  -18.8349  -49.0002 H         1 UNK         0.0800 
    141 H141        1.9062  -21.8073  -48.0252 H         1 UNK         0.0800 
    142 H142        2.5518  -21.7243  -46.4211 H         1 UNK         0.0800 
    143 H143        1.0796  -23.6064  -46.6108 H         1 UNK         0.0600 
    144 H144        0.3598  -21.6014  -44.6501 H         1 UNK         0.3000 
    145 H145       -1.2108  -24.0774  -42.5165 H         1 UNK         0.0600 
    146 H146        0.3850  -23.0160  -40.9583 H         1 UNK         0.0600 
    147 H147        1.2601  -24.0186  -42.1041 H         1 UNK         0.0600 
    148 H148        1.2572  -22.2694  -42.2965 H         1 UNK         0.0600 
    149 H149       -1.0160  -21.2719  -42.1972 H         1 UNK         0.3000 
    150 H150       -3.8727  -20.2201  -43.9297 H         1 UNK         0.0600 
    151 H151       -5.0328  -21.3109  -42.0039 H         1 UNK         0.0600 
    152 H152       -4.8274  -19.5884  -41.7321 H         1 UNK         0.0600 
    153 H153       -3.7762  -20.7434  -40.9108 H         1 UNK         0.0600 
    154 H154       -2.3865  -18.9337  -41.8927 H         1 UNK         0.3000 
    155 H155       -1.0400  -17.0401  -42.8668 H         1 UNK         0.0600 
    156 H156        1.0855  -17.6600  -41.6567 H         1 UNK         0.0600 
    157 H157        1.0144  -19.2802  -42.3371 H         1 UNK         0.0600 
    158 H158       -0.2065  -18.7410  -41.1887 H         1 UNK         0.0600 
    159 H159        0.4498  -18.1298  -45.0751 H         1 UNK         0.3000 
    160 H160        2.1174  -17.0291  -46.1265 H         1 UNK         0.0600 
    161 H161        1.6973  -14.0189  -45.6516 H         1 UNK         0.0600 
    162 H162        0.8148  -15.0264  -46.7862 H         1 UNK         0.0600 
    163 H163        2.5188  -14.7083  -47.0485 H         1 UNK         0.0600 
    164 H164        3.6275  -15.0661  -44.4829 H         1 UNK         0.3000 
    165 H165        6.0150  -17.5504  -43.4606 H         1 UNK         0.0600 
    166 H166        6.0413  -14.6924  -44.5736 H         1 UNK         0.0600 
    167 H167        7.3265  -15.4584  -43.6454 H         1 UNK         0.0600 
    168 H168        6.9124  -16.0646  -45.2416 H         1 UNK         0.0600 
    169 H169        4.9374  -15.0541  -42.3691 H         1 UNK         0.3000 
    170 H170        2.7272  -16.6687  -40.1104 H         1 UNK         0.0600 
    171 H171        4.7390  -16.7708  -38.7409 H         1 UNK         0.0600 
    172 H172        5.3378  -15.2525  -39.3814 H         1 UNK         0.0600 
    173 H173        3.8846  -15.2785  -38.3808 H         1 UNK         0.0600 
    174 H174        1.9396  -14.8873  -41.1090 H         1 UNK         0.3000 
    175 H175        1.7073  -13.0368  -42.2406 H         1 UNK         0.0600 
    176 H176        2.7731  -11.0995  -40.1126 H         1 UNK         0.0600 
    177 H177        1.2619  -10.9294  -41.0069 H         1 UNK         0.0600 
    178 H178        1.4658  -12.2523  -39.8693 H         1 UNK         0.0600 
    179 H179        3.1320  -10.6806  -42.5862 H         1 UNK         0.3000 
    180 H180        4.9607  -10.3373  -44.1861 H         1 UNK         0.0600 
    181 H181        4.6579  -12.2461  -46.5693 H         1 UNK         0.0600 
    182 H182        6.0569  -12.1471  -45.5066 H         1 UNK         0.0600 
    183 H183        5.6407  -10.7825  -46.5312 H         1 UNK         0.0600 
    184 H184        2.9423  -10.5491  -46.3021 H         1 UNK         0.3000 
    185 H185        0.5925   -8.4013  -44.8321 H         1 UNK         0.0600 
    186 H186        2.1892   -6.7063  -45.7350 H         1 UNK         0.0600 
    187 H187        2.4962   -7.7214  -47.1398 H         1 UNK         0.0600 
    188 H188        0.8958   -7.0278  -46.8797 H         1 UNK         0.0600 
    189 H189        0.9450   -9.6055  -47.4531 H         1 UNK         0.3000 
    190 H190       -1.6663  -21.4259  -46.1334 H         1 UNK         0.3000 
    191 H191       -2.9358  -21.8119  -48.6399 H         1 UNK         0.0600 
    192 H192       -4.9267  -20.9572  -47.5354 H         1 UNK         0.0600 
    193 H193       -3.5586  -20.0832  -46.8562 H         1 UNK         0.0600 
    194 H194       -4.3242  -21.3777  -45.9440 H         1 UNK         0.0600 
    195 H195       -3.2300  -23.6443  -45.5644 H         1 UNK         0.3000 
    196 H196       -5.0363  -25.6219  -46.5003 H         1 UNK         0.0600 
    197 H197       -4.2971  -26.8614  -44.4527 H         1 UNK         0.0600 
    198 H198       -4.6593  -25.1786  -44.0994 H         1 UNK         0.0600 
    199 H199       -2.9847  -25.7106  -44.2243 H         1 UNK         0.0600 
    200 H200       -1.4377  -25.5892  -46.3702 H         1 UNK         0.3000 
    201 H201       -1.0179  -28.1997  -47.3831 H         1 UNK         0.0600 
    202 H202        0.7292  -26.8437  -46.2269 H         1 UNK         0.0600 
    203 H203        0.7885  -25.7349  -47.5970 H         1 UNK         0.0600 
    204 H204        1.2959  -27.4062  -47.7924 H         1 UNK         0.0600 
    205 H205       -1.3654  -25.0735  -49.0855 H         1 UNK         0.3000 
    206 H206       -1.0208  -26.1391  -51.7485 H         1 UNK         0.0600 
    207 H207       -0.5295  -23.7734  -51.1752 H         1 UNK         0.0600 
    208 H208       -1.8108  -23.8309  -52.3715 H         1 UNK         0.0600 
    209 H209       -2.2056  -23.5096  -50.6943 H         1 UNK         0.0600 
    210 H210       -3.5977  -26.3470  -49.5494 H         1 UNK         0.3000 
    211 H211       -5.7682  -26.7420  -49.5399 H         1 UNK         0.0600 
    212 H212       -5.3659  -27.9754  -52.3206 H         1 UNK         0.0600 
    213 H213       -6.7071  -28.2888  -51.2266 H         1 UNK         0.0600 
    214 H214       -5.0866  -28.8063  -50.7907 H         1 UNK         0.0600 
    215 H215       -5.0066  -24.2029  -50.2436 H         1 UNK         0.3000 
    216 H216       -5.4928  -22.2300  -51.0365 H         1 UNK         0.0600 
    217 H217       -8.2630  -23.3379  -51.7386 H         1 UNK         0.0600 
    218 H218       -7.8322  -21.6401  -51.6967 H         1 UNK         0.0600 
    219 H219       -7.7924  -22.5851  -50.2163 H         1 UNK         0.0600 
    220 H220       -6.5085  -24.6975  -53.3571 H         1 UNK         0.3000 
    221 H221       -6.6376  -23.2151  -55.6901 H         1 UNK         0.0600 
    222 H222       -5.9238  -26.1704  -55.3116 H         1 UNK         0.0600 
    223 H223       -7.5455  -25.4943  -55.4500 H         1 UNK         0.0600 
    224 H224       -6.4550  -25.4469  -56.8268 H         1 UNK         0.0600 
    225 H225       -3.7151  -24.9688  -54.4512 H         1 UNK         0.3000 
    226 H226       -2.1518  -24.3328  -56.7913 H         1 UNK         0.0600 
    227 H227       -1.7425  -26.3469  -55.3752 H         1 UNK         0.0600 
    228 H228       -0.3001  -25.3592  -55.5498 H         1 UNK         0.0600 
    229 H229       -1.2121  -25.3132  -54.0521 H         1 UNK         0.0600 
    230 H230       -2.9524  -22.5004  -53.9908 H         1 UNK         0.3000 
    231 H231       -0.7115  -20.5742  -54.2967 H         1 UNK         0.0600 
    232 H232       -2.9942  -20.7871  -52.2622 H         1 UNK         0.0600 
    233 H233       -1.7334  -19.5615  -52.2476 H         1 UNK         0.0600 
    234 H234       -1.3119  -21.2458  -51.9957 H         1 UNK         0.0600 
    235 H235       -3.6797  -21.1829  -55.7187 H         1 UNK         0.3000 
    236 H236       -5.1687  -20.1395  -56.9313 H         1 UNK         0.0600 
    237 H237       -3.1958  -19.1422  -58.1185 H         1 UNK         0.0600 
    238 H238       -4.6085  -18.1019  -58.1722 H         1 UNK         0.0600 
    239 H239       -3.2910  -17.7249  -57.0731 H         1 UNK         0.0600 
    240 H240       -5.3439  -20.0000  -54.0463 H         1 UNK         0.3000 
    241 H241       -6.6648  -17.4418  -53.4388 H         1 UNK         0.0600 
    242 H242       -7.7749  -20.3155  -54.9717 H         1 UNK         0.3800 
    243 H243       -9.4580  -20.1186  -54.5570 H         1 UNK         0.3800 
    244 H244       -6.9482  -18.4094  -51.1509 H         1 UNK         0.0800 
    245 H245       -6.2271  -19.9043  -51.6944 H         1 UNK         0.0800 
    246 H246       -4.1938  -20.0811  -50.0685 H         1 UNK         0.0800 
    247 H247       -5.1824  -18.9006  -49.2422 H         1 UNK         0.0800 
@<TRIPOS>BOND
     1    1    2 1    
     2    1  127 1    
     3    1  128 1    
     4    1  129 1    
     5    2    3 2    
     6    2    4 am   BACKBONE|DICT|INTERRES
     7    4    5 1    
     8    4  130 1    
     9    5    6 1    
    10    5   65 1    
    11    5  131 1    
    12    6    7 1    
    13    6  132 1    
    14    6  133 1    
    15    7    8 1    
    16    8    9 1    
    17    8  134 1    
    18    8  135 1    
    19    9   10 ar   
    20    9   14 ar   
    21   10   11 ar   
    22   10  136 1    
    23   11   12 ar   
    24   11  126 1    
    25   12   13 ar   
    26   12  137 1    
    27   13   14 ar   
    28   13   15 1    
    29   14  138 1    
    30   15   16 1    
    31   15  139 1    
    32   15  140 1    
    33   16   17 1    
    34   17   18 1    
    35   17  141 1    
    36   17  142 1    
    37   18   19 1    
    38   18   67 1    
    39   18  143 1    
    40   19   20 am   BACKBONE|DICT|INTERRES
    41   19  144 1    
    42   20   21 2    
    43   20   22 1    
    44   22   23 1    
    45   22   24 1    
    46   22  145 1    
    47   23  146 1    
    48   23  147 1    
    49   23  148 1    
    50   24   25 am   BACKBONE|DICT|INTERRES
    51   24  149 1    
    52   25   26 2    
    53   25   27 1    
    54   27   28 1    
    55   27   29 1    
    56   27  150 1    
    57   28  151 1    
    58   28  152 1    
    59   28  153 1    
    60   29   30 am   BACKBONE|DICT|INTERRES
    61   29  154 1    
    62   30   31 2    
    63   30   32 1    
    64   32   33 1    
    65   32   34 1    
    66   32  155 1    
    67   33  156 1    
    68   33  157 1    
    69   33  158 1    
    70   34   35 am   BACKBONE|DICT|INTERRES
    71   34  159 1    
    72   35   36 2    
    73   35   37 1    
    74   37   38 1    
    75   37   39 1    
    76   37  160 1    
    77   38  161 1    
    78   38  162 1    
    79   38  163 1    
    80   39   40 am   BACKBONE|DICT|INTERRES
    81   39  164 1    
    82   40   41 2    
    83   40   42 1    
    84   42   43 1    
    85   42   44 1    
    86   42  165 1    
    87   43  166 1    
    88   43  167 1    
    89   43  168 1    
    90   44   45 am   BACKBONE|DICT|INTERRES
    91   44  169 1    
    92   45   46 2    
    93   45   47 1    
    94   47   48 1    
    95   47   49 1    
    96   47  170 1    
    97   48  171 1    
    98   48  172 1    
    99   48  173 1    
   100   49   50 am   BACKBONE|DICT|INTERRES
   101   49  174 1    
   102   50   51 2    
   103   50   52 1    
   104   52   53 1    
   105   52   54 1    
   106   52  175 1    
   107   53  176 1    
   108   53  177 1    
   109   53  178 1    
   110   54   55 am   BACKBONE|DICT|INTERRES
   111   54  179 1    
   112   55   56 2    
   113   55   57 1    
   114   57   58 1    
   115   57   59 1    
   116   57  180 1    
   117   58  181 1    
   118   58  182 1    
   119   58  183 1    
   120   59   60 am   BACKBONE|DICT|INTERRES
   121   59  184 1    
   122   60   61 2    
   123   60   62 1    
   124   62   63 1    
   125   62   64 1    
   126   62  185 1    
   127   63  186 1    
   128   63  187 1    
   129   63  188 1    
   130   64   65 am   BACKBONE|DICT|INTERRES
   131   64  189 1    
   132   65   66 2    
   133   67   68 2    
   134   67   69 am   BACKBONE|DICT|INTERRES
   135   69   70 1    
   136   69  190 1    
   137   70   71 1    
   138   70   72 1    
   139   70  191 1    
   140   71  192 1    
   141   71  193 1    
   142   71  194 1    
   143   72   73 2    
   144   72   74 am   BACKBONE|DICT|INTERRES
   145   74   75 1    
   146   74  195 1    
   147   75   76 1    
   148   75   77 1    
   149   75  196 1    
   150   76  197 1    
   151   76  198 1    
   152   76  199 1    
   153   77   78 2    
   154   77   79 am   BACKBONE|DICT|INTERRES
   155   79   80 1    
   156   79  200 1    
   157   80   81 1    
   158   80   82 1    
   159   80  201 1    
   160   81  202 1    
   161   81  203 1    
   162   81  204 1    
   163   82   83 2    
   164   82   84 am   BACKBONE|DICT|INTERRES
   165   84   85 1    
   166   84  205 1    
   167   85   86 1    
   168   85   87 1    
   169   85  206 1    
   170   86  207 1    
   171   86  208 1    
   172   86  209 1    
   173   87   88 2    
   174   87   89 am   BACKBONE|DICT|INTERRES
   175   89   90 1    
   176   89  210 1    
   177   90   91 1    
   178   90   92 1    
   179   90  211 1    
   180   91  212 1    
   181   91  213 1    
   182   91  214 1    
   183   92   93 2    
   184   92   94 am   BACKBONE|DICT|INTERRES
   185   94   95 1    
   186   94  215 1    
   187   95   96 1    
   188   95   97 1    
   189   95  216 1    
   190   96  217 1    
   191   96  218 1    
   192   96  219 1    
   193   97   98 2    
   194   97   99 am   BACKBONE|DICT|INTERRES
   195   99  100 1    
   196   99  220 1    
   197  100  101 1    
   198  100  102 1    
   199  100  221 1    
   200  101  222 1    
   201  101  223 1    
   202  101  224 1    
   203  102  103 2    
   204  102  104 am   BACKBONE|DICT|INTERRES
   205  104  105 1    
   206  104  225 1    
   207  105  106 1    
   208  105  107 1    
   209  105  226 1    
   210  106  227 1    
   211  106  228 1    
   212  106  229 1    
   213  107  108 2    
   214  107  109 am   BACKBONE|DICT|INTERRES
   215  109  110 1    
   216  109  230 1    
   217  110  111 1    
   218  110  112 1    
   219  110  231 1    
   220  111  232 1    
   221  111  233 1    
   222  111  234 1    
   223  112  113 2    
   224  112  114 am   BACKBONE|DICT|INTERRES
   225  114  115 1    
   226  114  235 1    
   227  115  116 1    
   228  115  117 1    
   229  115  236 1    
   230  116  237 1    
   231  116  238 1    
   232  116  239 1    
   233  117  118 2    
   234  117  119 am   BACKBONE|DICT|INTERRES
   235  119  120 1    
   236  119  240 1    
   237  120  121 1    
   238  120  124 1    
   239  120  241 1    
   240  121  122 am   BACKBONE|DICT|INTERRES
   241  121  123 2    
   242  122  242 1    
   243  122  243 1    
   244  124  125 1    
   245  124  244 1    
   246  124  245 1    
   247  125  126 1    
   248  126  246 1    
   249  126  247 1    
@<TRIPOS>SUBSTRUCTURE
     1 UNK         1 GROUP             0       ****    0 ROOT    
