@<TRIPOS>MOLECULE
3R540
247   249    1
SMALL
USER_CHARGES


@<TRIPOS>ATOM
      1 CA          3.9603  -12.5684  -42.8434 C.3       0 UNK        -0.1800 
      2 C           3.0680  -13.1310  -43.9385 C.2       0 UNK         0.5000 
      3 O           1.9132  -12.7232  -44.0550 O.2       0 UNK        -0.5000 
      4 N           3.5986  -14.0528  -44.7535 N.am      1 UNK        -0.5000 
      5 CA          2.8964  -14.7844  -45.8211 C.3       1 UNK         0.1400 
      6 C6          3.8328  -15.8346  -46.4681 C.3       23 UNK        -0.0398 
      7 S7          2.9442  -17.2381  -47.2207 S.3       23 UNK        -0.2404 
      8 C8          3.4041  -17.0543  -48.9695 C.3       23 UNK        -0.0205 
      9 C9          3.0324  -18.2884  -49.7780 C.ar      23 UNK        -0.0193 
     10 C10         1.7910  -18.3691  -50.4150 C.ar      23 UNK        -0.1150 
     11 C11         1.4629  -19.4865  -51.1883 C.ar      23 UNK        -0.0193 
     12 C12         2.3879  -20.5247  -51.3267 C.ar      23 UNK        -0.1150 
     13 C13         3.6285  -20.4632  -50.6858 C.ar      23 UNK        -0.0193 
     14 C14         3.9426  -19.3424  -49.9099 C.ar      23 UNK        -0.1150 
     15 C15         4.6465  -21.5843  -50.8648 C.3       23 UNK        -0.0205 
     16 S16         4.0144  -23.2266  -50.3830 S.3       23 UNK        -0.2404 
     17 C17         3.7882  -23.0282  -48.5837 C.3       23 UNK        -0.0398 
     18 CA          2.4707  -23.6506  -48.0577 C.3       11 UNK         0.1400 
     19 N           2.4963  -23.7565  -46.5949 N.am      11 UNK        -0.5000 
     20 C           1.5660  -24.3571  -45.8381 C.2       10 UNK         0.5000 
     21 O           0.5968  -24.9602  -46.2966 O.2       10 UNK        -0.5000 
     22 CA          1.7219  -24.2171  -44.3111 C.3       10 UNK         0.1400 
     23 CB          2.4954  -25.4137  -43.7387 C.3       10 UNK        -0.1800 
     24 N           2.3910  -22.9744  -43.9176 N.am      10 UNK        -0.5000 
     25 C           1.8847  -21.7441  -44.0786 C.2       9 UNK         0.5000 
     26 O           0.7712  -21.5129  -44.5551 O.2       9 UNK        -0.5000 
     27 CA          2.8360  -20.5892  -43.7488 C.3       9 UNK         0.1400 
     28 CB          3.4635  -20.0533  -45.0444 C.3       9 UNK        -0.1800 
     29 N           2.1434  -19.4967  -43.0655 N.am      9 UNK        -0.5000 
     30 C           2.6284  -18.8766  -41.9799 C.2       8 UNK         0.5000 
     31 O           3.6563  -19.2268  -41.3975 O.2       8 UNK        -0.5000 
     32 CA          1.8720  -17.6484  -41.4507 C.3       8 UNK         0.1400 
     33 CB          2.2923  -16.3906  -42.2264 C.3       8 UNK        -0.1800 
     34 N           0.4205  -17.8063  -41.5249 N.am      8 UNK        -0.5000 
     35 C          -0.3642  -18.1175  -40.4826 C.2       7 UNK         0.5000 
     36 O           0.0643  -18.3155  -39.3448 O.2       7 UNK        -0.5000 
     37 CA         -1.8841  -18.2189  -40.7288 C.3       7 UNK         0.1400 
     38 CB         -2.6177  -16.9972  -40.1554 C.3       7 UNK        -0.1800 
     39 N          -2.2250  -18.3593  -42.1436 N.am      7 UNK        -0.5000 
     40 C          -2.1450  -19.5163  -42.8146 C.2       6 UNK         0.5000 
     41 O          -1.8629  -20.5900  -42.2832 O.2       6 UNK        -0.5000 
     42 CA         -2.4081  -19.4747  -44.3320 C.3       6 UNK         0.1400 
     43 CB         -3.8492  -19.9092  -44.6397 C.3       6 UNK        -0.1800 
     44 N          -2.1726  -18.1747  -44.9632 N.am      6 UNK        -0.5000 
     45 C          -1.0191  -17.4931  -44.9681 C.2       5 UNK         0.5000 
     46 O           0.0005  -17.8720  -44.3903 O.2       5 UNK        -0.5000 
     47 CA         -1.0029  -16.1534  -45.7304 C.3       5 UNK         0.1400 
     48 CB         -2.1858  -15.9716  -46.7066 C.3       5 UNK        -0.1800 
     49 N          -0.9196  -14.9934  -44.8381 N.am      5 UNK        -0.5000 
     50 C          -1.6788  -14.7286  -43.7628 C.2       4 UNK         0.5000 
     51 O          -2.5374  -15.4916  -43.3167 O.2       4 UNK        -0.5000 
     52 CA         -1.4518  -13.3726  -43.0707 C.3       4 UNK         0.1400 
     53 CB         -0.5798  -13.5365  -41.8177 C.3       4 UNK        -0.1800 
     54 N          -0.8229  -12.3841  -43.9484 N.am      4 UNK        -0.5000 
     55 C          -1.4819  -11.6006  -44.8105 C.2       3 UNK         0.5000 
     56 O          -2.6982  -11.6612  -44.9932 O.2       3 UNK        -0.5000 
     57 CA         -0.6517  -10.5686  -45.5892 C.3       3 UNK         0.1400 
     58 CB         -0.2343   -9.4049  -44.6746 C.3       3 UNK        -0.1800 
     59 N           0.5456  -11.1590  -46.1928 N.am      3 UNK        -0.5000 
     60 C           0.8813  -11.0302  -47.4856 C.2       2 UNK         0.5000 
     61 O           0.1854  -10.4407  -48.3138 O.2       2 UNK        -0.5000 
     62 CA          2.2262  -11.6308  -47.9510 C.3       2 UNK         0.1400 
     63 CB          3.2776  -10.5217  -48.1134 C.3       2 UNK        -0.1800 
     64 N           2.7678  -12.6585  -47.0625 N.am      2 UNK        -0.5000 
     65 C           2.2360  -13.8748  -46.8856 C.2       1 UNK         0.5000 
     66 O           1.2397  -14.2680  -47.4907 O.2       1 UNK        -0.5000 
     67 C           1.2252  -22.8775  -48.5450 C.2       11 UNK         0.5000 
     68 O           0.5481  -23.3171  -49.4753 O.2       11 UNK        -0.5000 
     69 N           0.9132  -21.7711  -47.8579 N.am      12 UNK        -0.5000 
     70 CA         -0.2831  -20.9754  -48.1021 C.3       12 UNK         0.1400 
     71 CB         -0.1004  -19.5878  -47.4887 C.3       12 UNK        -0.1800 
     72 C          -1.5518  -21.6517  -47.5614 C.2       12 UNK         0.5000 
     73 O          -2.6035  -21.5260  -48.1830 O.2       12 UNK        -0.5000 
     74 N          -1.4482  -22.3820  -46.4415 N.am      13 UNK        -0.5000 
     75 CA         -2.5545  -23.1578  -45.8717 C.3       13 UNK         0.1400 
     76 CB         -2.1686  -23.7022  -44.4901 C.3       13 UNK        -0.1800 
     77 C          -3.0233  -24.2883  -46.8049 C.2       13 UNK         0.5000 
     78 O          -4.2284  -24.4666  -46.9798 O.2       13 UNK        -0.5000 
     79 N          -2.0690  -24.9768  -47.4469 N.am      14 UNK        -0.5000 
     80 CA         -2.3140  -25.9875  -48.4797 C.3       14 UNK         0.1400 
     81 CB         -0.9867  -26.6741  -48.8346 C.3       14 UNK        -0.1800 
     82 C          -2.9861  -25.4169  -49.7463 C.2       14 UNK         0.5000 
     83 O          -3.7463  -26.1275  -50.4039 O.2       14 UNK        -0.5000 
     84 N          -2.7199  -24.1386  -50.0440 N.am      15 UNK        -0.5000 
     85 CA         -3.3363  -23.3759  -51.1297 C.3       15 UNK         0.1400 
     86 CB         -2.3369  -22.3103  -51.6020 C.3       15 UNK        -0.1800 
     87 C          -4.6706  -22.7146  -50.7302 C.2       15 UNK         0.5000 
     88 O          -5.2835  -22.0566  -51.5753 O.2       15 UNK        -0.5000 
     89 N          -5.0889  -22.8785  -49.4640 N.am      16 UNK        -0.5000 
     90 CA         -6.2476  -22.2528  -48.8199 C.3       16 UNK         0.1400 
     91 CB         -7.5582  -22.8449  -49.3729 C.3       16 UNK        -0.1800 
     92 C          -6.1763  -20.7154  -48.9090 C.2       16 UNK         0.5000 
     93 O          -7.1073  -20.0707  -49.3962 O.2       16 UNK        -0.5000 
     94 N          -5.0132  -20.1774  -48.5170 N.am      17 UNK        -0.5000 
     95 CA         -4.5160  -18.8150  -48.7129 C.3       17 UNK         0.1400 
     96 CB         -5.4206  -17.7517  -48.0588 C.3       17 UNK        -0.1800 
     97 C          -4.2356  -18.5436  -50.2001 C.2       17 UNK         0.5000 
     98 O          -3.0725  -18.4514  -50.5891 O.2       17 UNK        -0.5000 
     99 N          -5.3016  -18.4749  -51.0022 N.am      18 UNK        -0.5000 
    100 CA        -5.2614  -18.4049  -52.4605 C.3       18 UNK         0.1400 
    101 CB        -4.8954  -16.9778  -52.9177 C.3       18 UNK        -0.1800 
    102 C         -6.5777  -18.9065  -53.0902 C.2       18 UNK         0.5000 
    103 O         -6.8623  -18.5699  -54.2408 O.2       18 UNK        -0.5000 
    104 N         -7.3878  -19.6655  -52.3354 N.am      19 UNK        -0.5000 
    105 CA        -8.6892  -20.1548  -52.7928 C.3       19 UNK         0.1400 
    106 CB        -9.6358  -20.2923  -51.5907 C.3       19 UNK        -0.1800 
    107 C         -8.5972  -21.4813  -53.5682 C.2       19 UNK         0.5000 
    108 O         -9.4364  -21.7148  -54.4396 O.2       19 UNK        -0.5000 
    109 N         -7.6082  -22.3269  -53.2449 N.am      20 UNK        -0.5000 
    110 CA        -7.4257  -23.6495  -53.8508 C.3       20 UNK         0.1400 
    111 CB        -7.2796  -24.7024  -52.7400 C.3       20 UNK        -0.1800 
    112 C         -6.2176  -23.6988  -54.8014 C.2       20 UNK         0.5000 
    113 O         -6.2127  -24.5245  -55.7156 O.2       20 UNK        -0.5000 
    114 N         -5.2250  -22.8264  -54.5902 N.am      21 UNK        -0.5000 
    115 CA        -4.0304  -22.6950  -55.4222 C.3       21 UNK         0.1400 
    116 CB        -3.0106  -23.8086  -55.0933 C.3       21 UNK        -0.1800 
    117 C         -3.4692  -21.2681  -55.2858 C.2       21 UNK         0.5000 
    118 O         -4.2422  -20.3335  -55.0788 O.2       21 UNK        -0.5000 
    119 N         -2.1440  -21.1177  -55.4048 N.am      22 UNK        -0.5000 
    120 CA        -1.4021  -19.8427  -55.3580 C.3       22 UNK         0.1400 
    121 C         -1.5648  -18.9407  -56.6220 C.2       22 UNK         0.5000 
    122 N         -2.1043  -19.4412  -57.7271 N.am      22 UNK        -0.7600 
    123 O         -1.1705  -17.7779  -56.6192 O.2       22 UNK        -0.5000 
    124 C124       -1.5991  -19.0616  -54.0207 C.3       23 UNK        -0.0398 
    125 S125       -0.0156  -18.4942  -53.3119 S.3       23 UNK        -0.2404 
    126 C126        0.1044  -19.5831  -51.8606 C.3       23 UNK        -0.0205 
    127 H127        4.9586  -13.0056  -42.8682 H         1 UNK         0.0600 
    128 H128        3.5227  -12.7724  -41.8663 H         1 UNK         0.0600 
    129 H129        4.0566  -11.4887  -42.9569 H         1 UNK         0.0600 
    130 H130        4.5626  -14.3187  -44.6107 H         1 UNK         0.3000 
    131 H131        2.0831  -15.3177  -45.3263 H         1 UNK         0.0600 
    132 H132        4.5083  -15.3696  -47.1882 H         1 UNK         0.0800 
    133 H133        4.4779  -16.2733  -45.7054 H         1 UNK         0.0800 
    134 H134        4.4778  -16.8785  -49.0505 H         1 UNK         0.0800 
    135 H135        2.9132  -16.1701  -49.3795 H         1 UNK         0.0800 
    136 H136        1.0790  -17.5621  -50.3113 H         1 UNK         0.1150 
    137 H137        2.1417  -21.3884  -51.9285 H         1 UNK         0.1150 
    138 H138        4.9035  -19.2798  -49.4185 H         1 UNK         0.1150 
    139 H139        4.9410  -21.6192  -51.9144 H         1 UNK         0.0800 
    140 H140        5.5569  -21.3779  -50.2998 H         1 UNK         0.0800 
    141 H141        3.8545  -21.9746  -48.3071 H         1 UNK         0.0800 
    142 H142        4.6405  -23.5141  -48.1068 H         1 UNK         0.0800 
    143 H143        2.3946  -24.6685  -48.4465 H         1 UNK         0.0600 
    144 H144        3.2643  -23.3030  -46.1238 H         1 UNK         0.3000 
    145 H145        0.7255  -24.2139  -43.8681 H         1 UNK         0.0600 
    146 H146        2.5516  -25.3635  -42.6511 H         1 UNK         0.0600 
    147 H147        2.0039  -26.3536  -43.9939 H         1 UNK         0.0600 
    148 H148        3.5138  -25.4599  -44.1267 H         1 UNK         0.0600 
    149 H149        3.3165  -23.0735  -43.5250 H         1 UNK         0.3000 
    150 H150        3.6372  -20.9849  -43.1214 H         1 UNK         0.0600 
    151 H151        4.0484  -20.8228  -45.5493 H         1 UNK         0.0600 
    152 H152        4.1316  -19.2151  -44.8454 H         1 UNK         0.0600 
    153 H153        2.6975  -19.7129  -45.7414 H         1 UNK         0.0600 
    154 H154        1.2904  -19.1624  -43.5038 H         1 UNK         0.3000 
    155 H155        2.1814  -17.5038  -40.4133 H         1 UNK         0.0600 
    156 H156        1.9144  -16.3990  -43.2479 H         1 UNK         0.0600 
    157 H157        3.3783  -16.3017  -42.2787 H         1 UNK         0.0600 
    158 H158        1.9234  -15.4927  -41.7349 H         1 UNK         0.0600 
    159 H159        0.0098  -17.7196  -42.4487 H         1 UNK         0.3000 
    160 H160       -2.2400  -19.0994  -40.1895 H         1 UNK         0.0600 
    161 H161       -2.3308  -16.0792  -40.6652 H         1 UNK         0.0600 
    162 H162       -2.3969  -16.8679  -39.0951 H         1 UNK         0.0600 
    163 H163       -3.6980  -17.1073  -40.2509 H         1 UNK         0.0600 
    164 H164       -2.4535  -17.5080  -42.6466 H         1 UNK         0.3000 
    165 H165       -1.7229  -20.1901  -44.7874 H         1 UNK         0.0600 
    166 H166       -4.0023  -20.0381  -45.7112 H         1 UNK         0.0600 
    167 H167       -4.0854  -20.8590  -44.1585 H         1 UNK         0.0600 
    168 H168       -4.5735  -19.1763  -44.2824 H         1 UNK         0.0600 
    169 H169       -2.9688  -17.7507  -45.4150 H         1 UNK         0.3000 
    170 H170       -0.0886  -16.1688  -46.3231 H         1 UNK         0.0600 
    171 H171       -2.2481  -16.7996  -47.4133 H         1 UNK         0.0600 
    172 H172       -2.0595  -15.0632  -47.2961 H         1 UNK         0.0600 
    173 H173       -3.1424  -15.8935  -46.1885 H         1 UNK         0.0600 
    174 H174       -0.2423  -14.2926  -45.1004 H         1 UNK         0.3000 
    175 H175       -2.4287  -13.0016  -42.7534 H         1 UNK         0.0600 
    176 H176        0.4302  -13.8499  -42.0747 H         1 UNK         0.0600 
    177 H177       -0.5053  -12.5986  -41.2673 H         1 UNK         0.0600 
    178 H178       -0.9929  -14.2792  -41.1364 H         1 UNK         0.0600 
    179 H179        0.1905  -12.3135  -43.8793 H         1 UNK         0.3000 
    180 H180       -1.3092  -10.1630  -46.3609 H         1 UNK         0.0600 
    181 H181        0.4477   -9.7330  -43.8891 H         1 UNK         0.0600 
    182 H182       -1.1025   -8.9546  -44.1915 H         1 UNK         0.0600 
    183 H183        0.2647   -8.6198  -45.2429 H         1 UNK         0.0600 
    184 H184        1.1592  -11.6793  -45.5747 H         1 UNK         0.3000 
    185 H185        2.0570  -12.0852  -48.9295 H         1 UNK         0.0600 
    186 H186        3.5018  -10.0383  -47.1616 H         1 UNK         0.0600 
    187 H187        4.2095  -10.9165  -48.5187 H         1 UNK         0.0600 
    188 H188        2.9291   -9.7487  -48.7997 H         1 UNK         0.0600 
    189 H189        3.5742  -12.4029  -46.5114 H         1 UNK         0.3000 
    190 H190        1.4873  -21.4961  -47.0755 H         1 UNK         0.3000 
    191 H191       -0.4074  -20.8530  -49.1794 H         1 UNK         0.0600 
    192 H192       -0.9918  -18.9766  -47.6298 H         1 UNK         0.0600 
    193 H193        0.7313  -19.0612  -47.9513 H         1 UNK         0.0600 
    194 H194        0.1057  -19.6550  -46.4218 H         1 UNK         0.0600 
    195 H195       -0.5684  -22.3895  -45.9392 H         1 UNK         0.3000 
    196 H196       -3.3973  -22.4787  -45.7411 H         1 UNK         0.0600 
    197 H197       -3.0427  -24.1070  -43.9791 H         1 UNK         0.0600 
    198 H198       -1.7521  -22.9207  -43.8543 H         1 UNK         0.0600 
    199 H199       -1.4386  -24.5070  -44.5634 H         1 UNK         0.0600 
    200 H200       -1.0974  -24.8049  -47.2009 H         1 UNK         0.3000 
    201 H201       -2.9865  -26.7381  -48.0596 H         1 UNK         0.0600 
    202 H202       -0.5405  -27.1455  -47.9587 H         1 UNK         0.0600 
    203 H203       -0.2626  -25.9646  -49.2367 H         1 UNK         0.0600 
    204 H204       -1.1362  -27.4528  -49.5834 H         1 UNK         0.0600 
    205 H205       -2.0757  -23.6322  -49.4518 H         1 UNK         0.3000 
    206 H206       -3.5474  -24.0461  -51.9647 H         1 UNK         0.0600 
    207 H207       -1.3909  -22.7599  -51.9044 H         1 UNK         0.0600 
    208 H208       -2.7289  -21.7650  -52.4588 H         1 UNK         0.0600 
    209 H209       -2.1288  -21.5782  -50.8220 H         1 UNK         0.0600 
    210 H210       -4.5106  -23.4361  -48.8476 H         1 UNK         0.3000 
    211 H211       -6.1919  -22.5032  -47.7597 H         1 UNK         0.0600 
    212 H212       -7.6707  -22.6560  -50.4388 H         1 UNK         0.0600 
    213 H213       -8.4253  -22.4182  -48.8677 H         1 UNK         0.0600 
    214 H214       -7.5931  -23.9239  -49.2233 H         1 UNK         0.0600 
    215 H215       -4.2767  -20.8308  -48.2550 H         1 UNK         0.3000 
    216 H216       -3.5536  -18.7786  -48.2006 H         1 UNK         0.0600 
    217 H217       -4.9820  -16.7584  -48.1600 H         1 UNK         0.0600 
    218 H218       -5.5428  -17.9460  -46.9933 H         1 UNK         0.0600 
    219 H219       -6.4139  -17.7129  -48.5054 H         1 UNK         0.0600 
    220 H220       -6.2141  -18.6022  -50.5800 H         1 UNK         0.3000 
    221 H221       -4.4838  -19.0877  -52.8044 H         1 UNK         0.0600 
    222 H222       -5.6482  -16.2542  -52.6038 H         1 UNK         0.0600 
    223 H223       -3.9350  -16.6611  -52.5112 H         1 UNK         0.0600 
    224 H224       -4.8130  -16.9216  -54.0037 H         1 UNK         0.0600 
    225 H225       -7.1097  -19.9387  -51.3993 H         1 UNK         0.3000 
    226 H226       -9.1327  -19.4167  -53.4647 H         1 UNK         0.0600 
    227 H227       -9.2788  -21.0284  -50.8725 H         1 UNK         0.0600 
    228 H228       -9.7465  -19.3429  -51.0665 H         1 UNK         0.0600 
    229 H229      -10.6304  -20.6047  -51.9113 H         1 UNK         0.0600 
    230 H230       -6.9279  -22.0573  -52.5394 H         1 UNK         0.3000 
    231 H231       -8.3040  -23.9218  -54.4395 H         1 UNK         0.0600 
    232 H232       -8.1391  -24.6905  -52.0697 H         1 UNK         0.0600 
    233 H233       -7.2121  -25.7056  -53.1627 H         1 UNK         0.0600 
    234 H234       -6.3845  -24.5440  -52.1402 H         1 UNK         0.0600 
    235 H235       -5.3130  -22.1473  -53.8442 H         1 UNK         0.3000 
    236 H236       -4.3280  -22.8017  -56.4673 H         1 UNK         0.0600 
    237 H237       -3.4714  -24.7956  -55.1316 H         1 UNK         0.0600 
    238 H238       -2.1913  -23.8201  -55.8126 H         1 UNK         0.0600 
    239 H239       -2.5784  -23.6858  -54.1016 H         1 UNK         0.0600 
    240 H240       -1.5821  -21.9381  -55.5814 H         1 UNK         0.3000 
    241 H241       -0.3611  -20.1640  -55.4061 H         1 UNK         0.0600 
    242 H242       -2.1962  -18.8550  -58.5421 H         1 UNK         0.3800 
    243 H243       -2.4223  -20.3961  -57.7594 H         1 UNK         0.3800 
    244 H244       -2.1009  -19.6790  -53.2768 H         1 UNK         0.0800 
    245 H245       -2.2566  -18.2004  -54.1511 H         1 UNK         0.0800 
    246 H246       -0.6744  -19.3212  -51.1445 H         1 UNK         0.0800 
    247 H247       -0.0868  -20.6116  -52.1686 H         1 UNK         0.0800 
@<TRIPOS>BOND
     1    1    2 1    
     2    1  127 1    
     3    1  128 1    
     4    1  129 1    
     5    2    3 2    
     6    2    4 am   BACKBONE|DICT|INTERRES
     7    4    5 1    
     8    4  130 1    
     9    5    6 1    
    10    5   65 1    
    11    5  131 1    
    12    6    7 1    
    13    6  132 1    
    14    6  133 1    
    15    7    8 1    
    16    8    9 1    
    17    8  134 1    
    18    8  135 1    
    19    9   10 ar   
    20    9   14 ar   
    21   10   11 ar   
    22   10  136 1    
    23   11   12 ar   
    24   11  126 1    
    25   12   13 ar   
    26   12  137 1    
    27   13   14 ar   
    28   13   15 1    
    29   14  138 1    
    30   15   16 1    
    31   15  139 1    
    32   15  140 1    
    33   16   17 1    
    34   17   18 1    
    35   17  141 1    
    36   17  142 1    
    37   18   19 1    
    38   18   67 1    
    39   18  143 1    
    40   19   20 am   BACKBONE|DICT|INTERRES
    41   19  144 1    
    42   20   21 2    
    43   20   22 1    
    44   22   23 1    
    45   22   24 1    
    46   22  145 1    
    47   23  146 1    
    48   23  147 1    
    49   23  148 1    
    50   24   25 am   BACKBONE|DICT|INTERRES
    51   24  149 1    
    52   25   26 2    
    53   25   27 1    
    54   27   28 1    
    55   27   29 1    
    56   27  150 1    
    57   28  151 1    
    58   28  152 1    
    59   28  153 1    
    60   29   30 am   BACKBONE|DICT|INTERRES
    61   29  154 1    
    62   30   31 2    
    63   30   32 1    
    64   32   33 1    
    65   32   34 1    
    66   32  155 1    
    67   33  156 1    
    68   33  157 1    
    69   33  158 1    
    70   34   35 am   BACKBONE|DICT|INTERRES
    71   34  159 1    
    72   35   36 2    
    73   35   37 1    
    74   37   38 1    
    75   37   39 1    
    76   37  160 1    
    77   38  161 1    
    78   38  162 1    
    79   38  163 1    
    80   39   40 am   BACKBONE|DICT|INTERRES
    81   39  164 1    
    82   40   41 2    
    83   40   42 1    
    84   42   43 1    
    85   42   44 1    
    86   42  165 1    
    87   43  166 1    
    88   43  167 1    
    89   43  168 1    
    90   44   45 am   BACKBONE|DICT|INTERRES
    91   44  169 1    
    92   45   46 2    
    93   45   47 1    
    94   47   48 1    
    95   47   49 1    
    96   47  170 1    
    97   48  171 1    
    98   48  172 1    
    99   48  173 1    
   100   49   50 am   BACKBONE|DICT|INTERRES
   101   49  174 1    
   102   50   51 2    
   103   50   52 1    
   104   52   53 1    
   105   52   54 1    
   106   52  175 1    
   107   53  176 1    
   108   53  177 1    
   109   53  178 1    
   110   54   55 am   BACKBONE|DICT|INTERRES
   111   54  179 1    
   112   55   56 2    
   113   55   57 1    
   114   57   58 1    
   115   57   59 1    
   116   57  180 1    
   117   58  181 1    
   118   58  182 1    
   119   58  183 1    
   120   59   60 am   BACKBONE|DICT|INTERRES
   121   59  184 1    
   122   60   61 2    
   123   60   62 1    
   124   62   63 1    
   125   62   64 1    
   126   62  185 1    
   127   63  186 1    
   128   63  187 1    
   129   63  188 1    
   130   64   65 am   BACKBONE|DICT|INTERRES
   131   64  189 1    
   132   65   66 2    
   133   67   68 2    
   134   67   69 am   BACKBONE|DICT|INTERRES
   135   69   70 1    
   136   69  190 1    
   137   70   71 1    
   138   70   72 1    
   139   70  191 1    
   140   71  192 1    
   141   71  193 1    
   142   71  194 1    
   143   72   73 2    
   144   72   74 am   BACKBONE|DICT|INTERRES
   145   74   75 1    
   146   74  195 1    
   147   75   76 1    
   148   75   77 1    
   149   75  196 1    
   150   76  197 1    
   151   76  198 1    
   152   76  199 1    
   153   77   78 2    
   154   77   79 am   BACKBONE|DICT|INTERRES
   155   79   80 1    
   156   79  200 1    
   157   80   81 1    
   158   80   82 1    
   159   80  201 1    
   160   81  202 1    
   161   81  203 1    
   162   81  204 1    
   163   82   83 2    
   164   82   84 am   BACKBONE|DICT|INTERRES
   165   84   85 1    
   166   84  205 1    
   167   85   86 1    
   168   85   87 1    
   169   85  206 1    
   170   86  207 1    
   171   86  208 1    
   172   86  209 1    
   173   87   88 2    
   174   87   89 am   BACKBONE|DICT|INTERRES
   175   89   90 1    
   176   89  210 1    
   177   90   91 1    
   178   90   92 1    
   179   90  211 1    
   180   91  212 1    
   181   91  213 1    
   182   91  214 1    
   183   92   93 2    
   184   92   94 am   BACKBONE|DICT|INTERRES
   185   94   95 1    
   186   94  215 1    
   187   95   96 1    
   188   95   97 1    
   189   95  216 1    
   190   96  217 1    
   191   96  218 1    
   192   96  219 1    
   193   97   98 2    
   194   97   99 am   BACKBONE|DICT|INTERRES
   195   99  100 1    
   196   99  220 1    
   197  100  101 1    
   198  100  102 1    
   199  100  221 1    
   200  101  222 1    
   201  101  223 1    
   202  101  224 1    
   203  102  103 2    
   204  102  104 am   BACKBONE|DICT|INTERRES
   205  104  105 1    
   206  104  225 1    
   207  105  106 1    
   208  105  107 1    
   209  105  226 1    
   210  106  227 1    
   211  106  228 1    
   212  106  229 1    
   213  107  108 2    
   214  107  109 am   BACKBONE|DICT|INTERRES
   215  109  110 1    
   216  109  230 1    
   217  110  111 1    
   218  110  112 1    
   219  110  231 1    
   220  111  232 1    
   221  111  233 1    
   222  111  234 1    
   223  112  113 2    
   224  112  114 am   BACKBONE|DICT|INTERRES
   225  114  115 1    
   226  114  235 1    
   227  115  116 1    
   228  115  117 1    
   229  115  236 1    
   230  116  237 1    
   231  116  238 1    
   232  116  239 1    
   233  117  118 2    
   234  117  119 am   BACKBONE|DICT|INTERRES
   235  119  120 1    
   236  119  240 1    
   237  120  121 1    
   238  120  124 1    
   239  120  241 1    
   240  121  122 am   BACKBONE|DICT|INTERRES
   241  121  123 2    
   242  122  242 1    
   243  122  243 1    
   244  124  125 1    
   245  124  244 1    
   246  124  245 1    
   247  125  126 1    
   248  126  246 1    
   249  126  247 1    
@<TRIPOS>SUBSTRUCTURE
     1 UNK         1 GROUP             0       ****    0 ROOT    
