@<TRIPOS>MOLECULE
3R540
247   249    1
SMALL
USER_CHARGES


@<TRIPOS>ATOM
      1 CA         -4.7617  -12.8784  -50.5411 C.3       0 UNK        -0.1800 
      2 C          -3.9080  -13.5180  -49.4551 C.2       0 UNK         0.5000 
      3 O          -4.4427  -14.2141  -48.5925 O.2       0 UNK        -0.5000 
      4 N          -2.5898  -13.2784  -49.5005 N.am      1 UNK        -0.5000 
      5 CA         -1.5732  -13.7934  -48.5712 C.3       1 UNK         0.1400 
      6 C6         -1.3705  -15.3331  -48.6461 C.3       23 UNK        -0.0398 
      7 S7         -0.8726  -15.8866  -50.3129 S.3       23 UNK        -0.2404 
      8 C8          0.9300  -15.6298  -50.2506 C.3       23 UNK        -0.0205 
      9 C9          1.6935  -16.9350  -50.4104 C.ar      23 UNK        -0.0193 
     10 C10         2.2641  -17.2684  -51.6424 C.ar      23 UNK        -0.1150 
     11 C11         2.9876  -18.4561  -51.7986 C.ar      23 UNK        -0.0193 
     12 C12         3.1554  -19.2981  -50.6962 C.ar      23 UNK        -0.1150 
     13 C13         2.6008  -18.9722  -49.4557 C.ar      23 UNK        -0.0193 
     14 C14         1.8623  -17.7927  -49.3200 C.ar      23 UNK        -0.1150 
     15 C15         2.8569  -19.8657  -48.2527 C.3       23 UNK        -0.0205 
     16 S16         2.1070  -21.5158  -48.4217 S.3       23 UNK        -0.2404 
     17 C17         0.3370  -21.1853  -48.1336 C.3       23 UNK        -0.0398 
     18 CA         -0.3040  -22.3026  -47.2752 C.3       11 UNK         0.1400 
     19 N           0.1484  -22.2904  -45.8764 N.am      11 UNK        -0.5000 
     20 C          -0.0604  -23.2940  -45.0114 C.2       10 UNK         0.5000 
     21 O          -0.6165  -24.3466  -45.3205 O.2       10 UNK        -0.5000 
     22 CA          0.3593  -23.0726  -43.5455 C.3       10 UNK         0.1400 
     23 CB          1.8608  -23.3260  -43.3451 C.3       10 UNK        -0.1800 
     24 N          -0.0020  -21.7412  -43.0569 N.am      10 UNK        -0.5000 
     25 C          -1.2654  -21.3223  -42.8906 C.2       9 UNK         0.5000 
     26 O          -2.2474  -22.0416  -43.0704 O.2       9 UNK        -0.5000 
     27 CA         -1.4756  -19.8405  -42.5235 C.3       9 UNK         0.1400 
     28 CB         -1.3417  -19.6228  -41.0097 C.3       9 UNK        -0.1800 
     29 N          -0.5588  -18.9513  -43.2371 N.am      9 UNK        -0.5000 
     30 C          -0.5237  -18.8143  -44.5697 C.2       8 UNK         0.5000 
     31 O          -1.3151  -19.3618  -45.3344 O.2       8 UNK        -0.5000 
     32 CA          0.6300  -17.9884  -45.1574 C.3       8 UNK         0.1400 
     33 CB          0.2805  -16.5005  -45.2089 C.3       8 UNK        -0.1800 
     34 N           1.8894  -18.1881  -44.4416 N.am      8 UNK        -0.5000 
     35 C           2.5553  -19.3506  -44.4139 C.2       7 UNK         0.5000 
     36 O           2.1944  -20.3536  -45.0268 O.2       7 UNK        -0.5000 
     37 CA          3.7906  -19.4201  -43.5032 C.3       7 UNK         0.1400 
     38 CB          5.0184  -18.8090  -44.1918 C.3       7 UNK        -0.1800 
     39 N           3.5447  -18.7542  -42.2237 N.am      7 UNK        -0.5000 
     40 C           2.7361  -19.2580  -41.2797 C.2       6 UNK         0.5000 
     41 O           2.1778  -20.3510  -41.3796 O.2       6 UNK        -0.5000 
     42 CA          2.4732  -18.3930  -40.0326 C.3       6 UNK         0.1400 
     43 CB          3.4884  -18.7218  -38.9283 C.3       6 UNK        -0.1800 
     44 N           2.4949  -16.9523  -40.2900 N.am      6 UNK        -0.5000 
     45 C           1.6639  -16.2945  -41.1105 C.2       5 UNK         0.5000 
     46 O           0.7836  -16.8476  -41.7693 O.2       5 UNK        -0.5000 
     47 CA          1.8501  -14.7656  -41.2268 C.3       5 UNK         0.1400 
     48 CB          2.6476  -14.1530  -40.0545 C.3       5 UNK        -0.1800 
     49 N           2.4475  -14.3334  -42.4963 N.am      5 UNK        -0.5000 
     50 C           3.5492  -14.8097  -43.0963 C.2       4 UNK         0.5000 
     51 O           4.1527  -15.8157  -42.7197 O.2       4 UNK        -0.5000 
     52 CA          4.1223  -14.0022  -44.2807 C.3       4 UNK         0.1400 
     53 CB          4.3163  -14.8727  -45.5404 C.3       4 UNK        -0.1800 
     54 N           3.4163  -12.7433  -44.5749 N.am      4 UNK        -0.5000 
     55 C           2.2616  -12.5739  -45.2332 C.2       3 UNK         0.5000 
     56 O           1.5882  -13.4955  -45.6929 O.2       3 UNK        -0.5000 
     57 CA          1.8059  -11.1154  -45.4334 C.3       3 UNK         0.1400 
     58 CB          2.6609  -10.4261  -46.5096 C.3       3 UNK        -0.1800 
     59 N           0.4058  -11.0512  -45.8477 N.am      3 UNK        -0.5000 
     60 C          -0.6497  -11.1680  -45.0311 C.2       2 UNK         0.5000 
     61 O          -0.5654  -11.2160  -43.8030 O.2       2 UNK        -0.5000 
     62 CA         -2.0312  -11.2600  -45.7110 C.3       2 UNK         0.1400 
     63 CB         -2.6295   -9.8601  -45.9178 C.3       2 UNK        -0.1800 
     64 N          -1.9645  -11.9525  -47.0017 N.am      2 UNK        -0.5000 
     65 C          -1.8004  -13.2773  -47.1322 C.2       1 UNK         0.5000 
     66 O          -1.8326  -14.0592  -46.1821 O.2       1 UNK        -0.5000 
     67 C          -1.8428  -22.2927  -47.4026 C.2       11 UNK         0.5000 
     68 O          -2.3679  -22.8809  -48.3484 O.2       11 UNK        -0.5000 
     69 N          -2.5473  -21.6549  -46.4589 N.am      12 UNK        -0.5000 
     70 CA         -4.0055  -21.6906  -46.3519 C.3       12 UNK         0.1400 
     71 CB         -4.4935  -20.5608  -45.4345 C.3       12 UNK        -0.1800 
     72 C          -4.5145  -23.0606  -45.8730 C.2       12 UNK         0.5000 
     73 O          -5.4774  -23.5723  -46.4420 O.2       12 UNK        -0.5000 
     74 N          -3.8379  -23.6571  -44.8803 N.am      13 UNK        -0.5000 
     75 CA         -4.1184  -25.0038  -44.3700 C.3       13 UNK         0.1400 
     76 CB         -3.2925  -25.2577  -43.1001 C.3       13 UNK        -0.1800 
     77 C          -3.8670  -26.1065  -45.4175 C.2       13 UNK         0.5000 
     78 O          -4.6360  -27.0651  -45.4911 O.2       13 UNK        -0.5000 
     79 N          -2.8270  -25.9221  -46.2425 N.am      14 UNK        -0.5000 
     80 CA         -2.5072  -26.7492  -47.4097 C.3       14 UNK         0.1400 
     81 CB         -1.0514  -26.4759  -47.8202 C.3       14 UNK        -0.1800 
     82 C          -3.4525  -26.5176  -48.6093 C.2       14 UNK         0.5000 
     83 O          -3.3592  -27.2482  -49.5956 O.2       14 UNK        -0.5000 
     84 N          -4.3205  -25.4999  -48.5131 N.am      15 UNK        -0.5000 
     85 CA         -5.3185  -25.0425  -49.4835 C.3       15 UNK         0.1400 
     86 CB         -6.3089  -26.1636  -49.8565 C.3       15 UNK        -0.1800 
     87 C          -4.7377  -24.3411  -50.7263 C.2       15 UNK         0.5000 
     88 O          -5.5092  -23.9487  -51.6001 O.2       15 UNK        -0.5000 
     89 N          -3.4157  -24.1351  -50.7769 N.am      16 UNK        -0.5000 
     90 CA         -2.7162  -23.4494  -51.8631 C.3       16 UNK         0.1400 
     91 CB         -1.1996  -23.6244  -51.6903 C.3       16 UNK        -0.1800 
     92 C          -3.0884  -21.9605  -51.9432 C.2       16 UNK         0.5000 
     93 O          -3.3906  -21.4652  -53.0294 O.2       16 UNK        -0.5000 
     94 N          -3.1067  -21.2871  -50.7848 N.am      17 UNK        -0.5000 
     95 CA         -3.5246  -19.8872  -50.6774 C.3       17 UNK         0.1400 
     96 CB         -2.9682  -19.2703  -49.3849 C.3       17 UNK        -0.1800 
     97 C          -5.0552  -19.7285  -50.7548 C.2       17 UNK         0.5000 
     98 O          -5.5317  -18.6917  -51.2146 O.2       17 UNK        -0.5000 
     99 N          -5.7984  -20.7617  -50.3289 N.am      18 UNK        -0.5000 
    100 CA        -7.2627  -20.7990  -50.3590 C.3       18 UNK         0.1400 
    101 CB        -7.7713  -21.9332  -49.4560 C.3       18 UNK        -0.1800 
    102 C         -7.8109  -20.9505  -51.7897 C.2       18 UNK         0.5000 
    103 O         -8.7510  -20.2467  -52.1594 O.2       18 UNK        -0.5000 
    104 N         -7.1925  -21.8419  -52.5775 N.am      19 UNK        -0.5000 
    105 CA        -7.4958  -22.0585  -53.9946 C.3       19 UNK         0.1400 
    106 CB        -6.9639  -23.4399  -54.4090 C.3       19 UNK        -0.1800 
    107 C         -6.9087  -20.9688  -54.9136 C.2       19 UNK         0.5000 
    108 O         -7.2667  -20.9219  -56.0910 O.2       19 UNK        -0.5000 
    109 N         -6.0106  -20.1354  -54.3673 N.am      20 UNK        -0.5000 
    110 CA        -5.2378  -19.0876  -55.0382 C.3       20 UNK         0.1400 
    111 CB        -6.1561  -17.9718  -55.5787 C.3       20 UNK        -0.1800 
    112 C         -4.2737  -19.6593  -56.0981 C.2       20 UNK         0.5000 
    113 O         -4.0891  -19.0648  -57.1618 O.2       20 UNK        -0.5000 
    114 N         -3.6532  -20.8018  -55.7701 N.am      21 UNK        -0.5000 
    115 CA        -2.5561  -21.4067  -56.5286 C.3       21 UNK         0.1400 
    116 CB        -2.3713  -22.8621  -56.0718 C.3       21 UNK        -0.1800 
    117 C         -1.2466  -20.6113  -56.3587 C.2       21 UNK         0.5000 
    118 O         -0.3967  -20.6285  -57.2495 O.2       21 UNK        -0.5000 
    119 N         -1.1341  -19.9024  -55.2317 N.am      22 UNK        -0.5000 
    120 CA        -0.1271  -18.8853  -54.9372 C.3       22 UNK         0.1400 
    121 C         -0.7608  -17.7787  -54.0496 C.2       22 UNK         0.5000 
    122 N         -0.1975  -16.5798  -54.0386 N.am      22 UNK        -0.7600 
    123 O         -1.7696  -17.9928  -53.3801 O.2       22 UNK        -0.5000 
    124 C124        1.1544  -19.5073  -54.3244 C.3       23 UNK        -0.0398 
    125 S125        2.6234  -18.4599  -54.6014 S.3       23 UNK        -0.2404 
    126 C126        3.6359  -18.8308  -53.1295 C.3       23 UNK        -0.0205 
    127 H127       -4.1620  -12.2907  -51.2366 H         1 UNK         0.0600 
    128 H128       -5.5065  -12.2200  -50.0938 H         1 UNK         0.0600 
    129 H129       -5.2832  -13.6487  -51.1095 H         1 UNK         0.0600 
    130 H130       -2.2306  -12.7020  -50.2484 H         1 UNK         0.3000 
    131 H131       -0.6325  -13.3378  -48.8843 H         1 UNK         0.0600 
    132 H132       -0.6107  -15.6608  -47.9358 H         1 UNK         0.0800 
    133 H133       -2.2861  -15.8564  -48.3674 H         1 UNK         0.0800 
    134 H134        1.2248  -15.1484  -49.3171 H         1 UNK         0.0800 
    135 H135        1.2061  -14.9328  -51.0432 H         1 UNK         0.0800 
    136 H136        2.1482  -16.5970  -52.4805 H         1 UNK         0.1150 
    137 H137        3.7327  -20.2068  -50.7954 H         1 UNK         0.1150 
    138 H138        1.4363  -17.5261  -48.3637 H         1 UNK         0.1150 
    139 H139        2.5020  -19.3874  -47.3437 H         1 UNK         0.0800 
    140 H140        3.9339  -19.9856  -48.1282 H         1 UNK         0.0800 
    141 H141       -0.1360  -21.1224  -49.1155 H         1 UNK         0.0800 
    142 H142        0.2008  -20.2111  -47.6626 H         1 UNK         0.0800 
    143 H143        0.0147  -23.2569  -47.6997 H         1 UNK         0.0600 
    144 H144        0.6771  -21.4798  -45.5675 H         1 UNK         0.3000 
    145 H145       -0.1792  -23.8018  -42.9367 H         1 UNK         0.0600 
    146 H146        2.1209  -24.3470  -43.6267 H         1 UNK         0.0600 
    147 H147        2.1470  -23.1929  -42.3016 H         1 UNK         0.0600 
    148 H148        2.4747  -22.6580  -43.9471 H         1 UNK         0.0600 
    149 H149        0.7590  -21.1033  -42.8568 H         1 UNK         0.3000 
    150 H150       -2.4914  -19.5664  -42.8150 H         1 UNK         0.0600 
    151 H151       -0.3601  -19.9208  -40.6438 H         1 UNK         0.0600 
    152 H152       -2.0834  -20.2101  -40.4671 H         1 UNK         0.0600 
    153 H153       -1.4960  -18.5766  -40.7447 H         1 UNK         0.0600 
    154 H154        0.0839  -18.3987  -42.6768 H         1 UNK         0.3000 
    155 H155        0.7667  -18.3264  -46.1849 H         1 UNK         0.0600 
    156 H156        0.9773  -15.9679  -45.8533 H         1 UNK         0.0600 
    157 H157        0.3007  -16.0321  -44.2254 H         1 UNK         0.0600 
    158 H158       -0.7181  -16.3538  -45.6195 H         1 UNK         0.0600 
    159 H159        2.2119  -17.4287  -43.8594 H         1 UNK         0.3000 
    160 H160        4.0052  -20.4735  -43.3100 H         1 UNK         0.0600 
    161 H161        4.8650  -17.7578  -44.4301 H         1 UNK         0.0600 
    162 H162        5.2381  -19.3275  -45.1260 H         1 UNK         0.0600 
    163 H163        5.9036  -18.8843  -43.5603 H         1 UNK         0.0600 
    164 H164        3.9257  -17.8210  -42.1074 H         1 UNK         0.3000 
    165 H165        1.4773  -18.6449  -39.6636 H         1 UNK         0.0600 
    166 H166        3.4792  -19.7872  -38.6938 H         1 UNK         0.0600 
    167 H167        4.5047  -18.4597  -39.2254 H         1 UNK         0.0600 
    168 H168        3.2579  -18.1861  -38.0073 H         1 UNK         0.0600 
    169 H169        3.2082  -16.4216  -39.8120 H         1 UNK         0.3000 
    170 H170        0.8460  -14.3398  -41.1982 H         1 UNK         0.0600 
    171 H171        2.6316  -13.0641  -40.1032 H         1 UNK         0.0600 
    172 H172        3.6930  -14.4641  -40.0604 H         1 UNK         0.0600 
    173 H173        2.2176  -14.4341  -39.0920 H         1 UNK         0.0600 
    174 H174        2.0070  -13.5343  -42.9284 H         1 UNK         0.3000 
    175 H175        5.1177  -13.6923  -43.9594 H         1 UNK         0.0600 
    176 H176        3.3988  -15.3851  -45.8301 H         1 UNK         0.0600 
    177 H177        5.0734  -15.6371  -45.3681 H         1 UNK         0.0600 
    178 H178        4.6522  -14.2760  -46.3883 H         1 UNK         0.0600 
    179 H179        3.8847  -11.9147  -44.2340 H         1 UNK         0.3000 
    180 H180        1.9254  -10.5790  -44.4897 H         1 UNK         0.0600 
    181 H181        2.5914  -10.9401  -47.4693 H         1 UNK         0.0600 
    182 H182        3.7135  -10.4048  -46.2252 H         1 UNK         0.0600 
    183 H183        2.3475   -9.3927  -46.6596 H         1 UNK         0.0600 
    184 H184        0.2369  -11.0627  -46.8416 H         1 UNK         0.3000 
    185 H185       -2.6947  -11.8185  -45.0470 H         1 UNK         0.0600 
    186 H186       -2.7117   -9.3279  -44.9692 H         1 UNK         0.0600 
    187 H187       -2.0155   -9.2520  -46.5832 H         1 UNK         0.0600 
    188 H188       -3.6311   -9.9188  -46.3443 H         1 UNK         0.0600 
    189 H189       -1.9811  -11.3775  -47.8316 H         1 UNK         0.3000 
    190 H190       -2.0507  -21.0917  -45.7748 H         1 UNK         0.3000 
    191 H191       -4.4270  -21.5173  -47.3440 H         1 UNK         0.0600 
    192 H192       -4.1724  -19.5873  -45.8055 H         1 UNK         0.0600 
    193 H193       -5.5827  -20.5463  -45.3804 H         1 UNK         0.0600 
    194 H194       -4.1163  -20.6716  -44.4184 H         1 UNK         0.0600 
    195 H195       -3.0915  -23.1439  -44.4197 H         1 UNK         0.3000 
    196 H196       -5.1754  -25.0416  -44.0987 H         1 UNK         0.0600 
    197 H197       -3.5156  -26.2389  -42.6793 H         1 UNK         0.0600 
    198 H198       -3.5125  -24.5163  -42.3319 H         1 UNK         0.0600 
    199 H199       -2.2220  -25.2231  -43.3014 H         1 UNK         0.0600 
    200 H200       -2.1876  -25.1567  -46.0443 H         1 UNK         0.3000 
    201 H201       -2.5925  -27.7992  -47.1229 H         1 UNK         0.0600 
    202 H202       -0.7479  -27.1193  -48.6470 H         1 UNK         0.0600 
    203 H203       -0.3654  -26.6649  -46.9943 H         1 UNK         0.0600 
    204 H204       -0.9139  -25.4431  -48.1409 H         1 UNK         0.0600 
    205 H205       -4.3035  -24.9622  -47.6557 H         1 UNK         0.3000 
    206 H206       -5.8883  -24.2768  -48.9591 H         1 UNK         0.0600 
    207 H207       -6.7254  -26.6343  -48.9659 H         1 UNK         0.0600 
    208 H208       -7.1454  -25.7684  -50.4342 H         1 UNK         0.0600 
    209 H209       -5.8382  -26.9397  -50.4602 H         1 UNK         0.0600 
    210 H210       -2.8653  -24.3905  -49.9684 H         1 UNK         0.3000 
    211 H211       -3.0108  -23.9183  -52.8043 H         1 UNK         0.0600 
    212 H212       -0.9213  -24.6782  -51.7111 H         1 UNK         0.0600 
    213 H213       -0.6553  -23.1283  -52.4951 H         1 UNK         0.0600 
    214 H214       -0.8470  -23.2047  -50.7473 H         1 UNK         0.0600 
    215 H215       -2.8633  -21.7793  -49.9311 H         1 UNK         0.3000 
    216 H216       -3.0972  -19.3333  -51.5152 H         1 UNK         0.0600 
    217 H217       -3.3623  -19.7593  -48.4960 H         1 UNK         0.0600 
    218 H218       -3.2303  -18.2135  -49.3177 H         1 UNK         0.0600 
    219 H219       -1.8806  -19.3315  -49.3535 H         1 UNK         0.0600 
    220 H220       -5.3249  -21.5875  -49.9983 H         1 UNK         0.3000 
    221 H221       -7.6327  -19.8548  -49.9535 H         1 UNK         0.0600 
    222 H222       -7.5355  -22.9143  -49.8672 H         1 UNK         0.0600 
    223 H223       -7.3429  -21.8716  -48.4551 H         1 UNK         0.0600 
    224 H224       -8.8555  -21.8823  -49.3493 H         1 UNK         0.0600 
    225 H225       -6.4668  -22.4368  -52.1845 H         1 UNK         0.3000 
    226 H226       -8.5797  -22.0547  -54.1267 H         1 UNK         0.0600 
    227 H227       -7.3891  -24.2293  -53.7889 H         1 UNK         0.0600 
    228 H228       -7.2211  -23.6660  -55.4445 H         1 UNK         0.0600 
    229 H229       -5.8776  -23.4934  -54.3214 H         1 UNK         0.0600 
    230 H230       -5.7829  -20.2841  -53.3945 H         1 UNK         0.3000 
    231 H231       -4.6053  -18.6434  -54.2676 H         1 UNK         0.0600 
    232 H232       -6.7746  -18.3172  -56.4073 H         1 UNK         0.0600 
    233 H233       -5.5693  -17.1269  -55.9407 H         1 UNK         0.0600 
    234 H234       -6.8181  -17.5954  -54.7987 H         1 UNK         0.0600 
    235 H235       -3.8171  -21.1843  -54.8420 H         1 UNK         0.3000 
    236 H236       -2.8201  -21.4059  -57.5881 H         1 UNK         0.0600 
    237 H237       -2.0712  -22.9212  -55.0252 H         1 UNK         0.0600 
    238 H238       -3.2924  -23.4333  -56.1898 H         1 UNK         0.0600 
    239 H239       -1.6008  -23.3597  -56.6618 H         1 UNK         0.0600 
    240 H240       -1.8929  -19.9324  -54.5616 H         1 UNK         0.3000 
    241 H241        0.1282  -18.4105  -55.8870 H         1 UNK         0.0600 
    242 H242        0.6317  -16.3835  -54.5769 H         1 UNK         0.3800 
    243 H243       -0.6016  -15.8631  -53.4573 H         1 UNK         0.3800 
    244 H244        1.0150  -19.7130  -53.2619 H         1 UNK         0.0800 
    245 H245        1.3658  -20.4710  -54.7896 H         1 UNK         0.0800 
    246 H246        3.8838  -19.8934  -53.1465 H         1 UNK         0.0800 
    247 H247        4.5810  -18.2932  -53.2141 H         1 UNK         0.0800 
@<TRIPOS>BOND
     1    1    2 1    
     2    1  127 1    
     3    1  128 1    
     4    1  129 1    
     5    2    3 2    
     6    2    4 am   BACKBONE|DICT|INTERRES
     7    4    5 1    
     8    4  130 1    
     9    5    6 1    
    10    5   65 1    
    11    5  131 1    
    12    6    7 1    
    13    6  132 1    
    14    6  133 1    
    15    7    8 1    
    16    8    9 1    
    17    8  134 1    
    18    8  135 1    
    19    9   10 ar   
    20    9   14 ar   
    21   10   11 ar   
    22   10  136 1    
    23   11   12 ar   
    24   11  126 1    
    25   12   13 ar   
    26   12  137 1    
    27   13   14 ar   
    28   13   15 1    
    29   14  138 1    
    30   15   16 1    
    31   15  139 1    
    32   15  140 1    
    33   16   17 1    
    34   17   18 1    
    35   17  141 1    
    36   17  142 1    
    37   18   19 1    
    38   18   67 1    
    39   18  143 1    
    40   19   20 am   BACKBONE|DICT|INTERRES
    41   19  144 1    
    42   20   21 2    
    43   20   22 1    
    44   22   23 1    
    45   22   24 1    
    46   22  145 1    
    47   23  146 1    
    48   23  147 1    
    49   23  148 1    
    50   24   25 am   BACKBONE|DICT|INTERRES
    51   24  149 1    
    52   25   26 2    
    53   25   27 1    
    54   27   28 1    
    55   27   29 1    
    56   27  150 1    
    57   28  151 1    
    58   28  152 1    
    59   28  153 1    
    60   29   30 am   BACKBONE|DICT|INTERRES
    61   29  154 1    
    62   30   31 2    
    63   30   32 1    
    64   32   33 1    
    65   32   34 1    
    66   32  155 1    
    67   33  156 1    
    68   33  157 1    
    69   33  158 1    
    70   34   35 am   BACKBONE|DICT|INTERRES
    71   34  159 1    
    72   35   36 2    
    73   35   37 1    
    74   37   38 1    
    75   37   39 1    
    76   37  160 1    
    77   38  161 1    
    78   38  162 1    
    79   38  163 1    
    80   39   40 am   BACKBONE|DICT|INTERRES
    81   39  164 1    
    82   40   41 2    
    83   40   42 1    
    84   42   43 1    
    85   42   44 1    
    86   42  165 1    
    87   43  166 1    
    88   43  167 1    
    89   43  168 1    
    90   44   45 am   BACKBONE|DICT|INTERRES
    91   44  169 1    
    92   45   46 2    
    93   45   47 1    
    94   47   48 1    
    95   47   49 1    
    96   47  170 1    
    97   48  171 1    
    98   48  172 1    
    99   48  173 1    
   100   49   50 am   BACKBONE|DICT|INTERRES
   101   49  174 1    
   102   50   51 2    
   103   50   52 1    
   104   52   53 1    
   105   52   54 1    
   106   52  175 1    
   107   53  176 1    
   108   53  177 1    
   109   53  178 1    
   110   54   55 am   BACKBONE|DICT|INTERRES
   111   54  179 1    
   112   55   56 2    
   113   55   57 1    
   114   57   58 1    
   115   57   59 1    
   116   57  180 1    
   117   58  181 1    
   118   58  182 1    
   119   58  183 1    
   120   59   60 am   BACKBONE|DICT|INTERRES
   121   59  184 1    
   122   60   61 2    
   123   60   62 1    
   124   62   63 1    
   125   62   64 1    
   126   62  185 1    
   127   63  186 1    
   128   63  187 1    
   129   63  188 1    
   130   64   65 am   BACKBONE|DICT|INTERRES
   131   64  189 1    
   132   65   66 2    
   133   67   68 2    
   134   67   69 am   BACKBONE|DICT|INTERRES
   135   69   70 1    
   136   69  190 1    
   137   70   71 1    
   138   70   72 1    
   139   70  191 1    
   140   71  192 1    
   141   71  193 1    
   142   71  194 1    
   143   72   73 2    
   144   72   74 am   BACKBONE|DICT|INTERRES
   145   74   75 1    
   146   74  195 1    
   147   75   76 1    
   148   75   77 1    
   149   75  196 1    
   150   76  197 1    
   151   76  198 1    
   152   76  199 1    
   153   77   78 2    
   154   77   79 am   BACKBONE|DICT|INTERRES
   155   79   80 1    
   156   79  200 1    
   157   80   81 1    
   158   80   82 1    
   159   80  201 1    
   160   81  202 1    
   161   81  203 1    
   162   81  204 1    
   163   82   83 2    
   164   82   84 am   BACKBONE|DICT|INTERRES
   165   84   85 1    
   166   84  205 1    
   167   85   86 1    
   168   85   87 1    
   169   85  206 1    
   170   86  207 1    
   171   86  208 1    
   172   86  209 1    
   173   87   88 2    
   174   87   89 am   BACKBONE|DICT|INTERRES
   175   89   90 1    
   176   89  210 1    
   177   90   91 1    
   178   90   92 1    
   179   90  211 1    
   180   91  212 1    
   181   91  213 1    
   182   91  214 1    
   183   92   93 2    
   184   92   94 am   BACKBONE|DICT|INTERRES
   185   94   95 1    
   186   94  215 1    
   187   95   96 1    
   188   95   97 1    
   189   95  216 1    
   190   96  217 1    
   191   96  218 1    
   192   96  219 1    
   193   97   98 2    
   194   97   99 am   BACKBONE|DICT|INTERRES
   195   99  100 1    
   196   99  220 1    
   197  100  101 1    
   198  100  102 1    
   199  100  221 1    
   200  101  222 1    
   201  101  223 1    
   202  101  224 1    
   203  102  103 2    
   204  102  104 am   BACKBONE|DICT|INTERRES
   205  104  105 1    
   206  104  225 1    
   207  105  106 1    
   208  105  107 1    
   209  105  226 1    
   210  106  227 1    
   211  106  228 1    
   212  106  229 1    
   213  107  108 2    
   214  107  109 am   BACKBONE|DICT|INTERRES
   215  109  110 1    
   216  109  230 1    
   217  110  111 1    
   218  110  112 1    
   219  110  231 1    
   220  111  232 1    
   221  111  233 1    
   222  111  234 1    
   223  112  113 2    
   224  112  114 am   BACKBONE|DICT|INTERRES
   225  114  115 1    
   226  114  235 1    
   227  115  116 1    
   228  115  117 1    
   229  115  236 1    
   230  116  237 1    
   231  116  238 1    
   232  116  239 1    
   233  117  118 2    
   234  117  119 am   BACKBONE|DICT|INTERRES
   235  119  120 1    
   236  119  240 1    
   237  120  121 1    
   238  120  124 1    
   239  120  241 1    
   240  121  122 am   BACKBONE|DICT|INTERRES
   241  121  123 2    
   242  122  242 1    
   243  122  243 1    
   244  124  125 1    
   245  124  244 1    
   246  124  245 1    
   247  125  126 1    
   248  126  246 1    
   249  126  247 1    
@<TRIPOS>SUBSTRUCTURE
     1 UNK         1 GROUP             0       ****    0 ROOT    
