@<TRIPOS>MOLECULE
3R540
247   249    1
SMALL
USER_CHARGES


@<TRIPOS>ATOM
      1 CA          1.9340  -11.1193  -49.3606 C.3       0 UNK        -0.1800 
      2 C           0.9999  -12.2899  -49.0879 C.2       0 UNK         0.5000 
      3 O           1.3239  -13.1522  -48.2705 O.2       0 UNK        -0.5000 
      4 N          -0.1500  -12.3183  -49.7743 N.am      1 UNK        -0.5000 
      5 CA         -1.1782  -13.3638  -49.7269 C.3       1 UNK         0.1400 
      6 C6         -2.3276  -13.0868  -50.7333 C.3       23 UNK        -0.0398 
      7 S7         -1.8155  -12.7445  -52.4567 S.3       23 UNK        -0.2404 
      8 C8         -0.7896  -14.1859  -52.9098 C.3       23 UNK        -0.0205 
      9 C9         -1.4178  -15.5342  -52.5740 C.ar      23 UNK        -0.0193 
     10 C10        -2.7629  -15.8022  -52.8534 C.ar      23 UNK        -0.1150 
     11 C11        -3.3331  -17.0258  -52.4928 C.ar      23 UNK        -0.0193 
     12 C12        -2.5407  -18.0010  -51.8814 C.ar      23 UNK        -0.1150 
     13 C13        -1.1897  -17.7553  -51.6219 C.ar      23 UNK        -0.0193 
     14 C14        -0.6351  -16.5228  -51.9719 C.ar      23 UNK        -0.1150 
     15 C15        -0.3290  -18.8118  -50.9484 C.3       23 UNK        -0.0205 
     16 S16         0.0652  -18.3778  -49.2214 S.3       23 UNK        -0.2404 
     17 C17        -1.5938  -18.2377  -48.4706 C.3       23 UNK        -0.0398 
     18 CA         -2.2771  -19.6090  -48.2601 C.3       11 UNK         0.1400 
     19 N          -1.4801  -20.4737  -47.3867 N.am      11 UNK        -0.5000 
     20 C          -1.6577  -21.7828  -47.1898 C.2       10 UNK         0.5000 
     21 O          -2.6743  -22.3886  -47.5258 O.2       10 UNK        -0.5000 
     22 CA         -0.5170  -22.5268  -46.4779 C.3       10 UNK         0.1400 
     23 CB          0.8233  -22.3630  -47.2135 C.3       10 UNK        -0.1800 
     24 N          -0.3760  -22.0138  -45.1242 N.am      10 UNK        -0.5000 
     25 C          -0.9045  -22.5814  -44.0344 C.2       9 UNK         0.5000 
     26 O          -1.4604  -23.6798  -44.0382 O.2       9 UNK        -0.5000 
     27 CA         -0.8398  -21.7654  -42.7253 C.3       9 UNK         0.1400 
     28 CB          0.4001  -22.1599  -41.9097 C.3       9 UNK        -0.1800 
     29 N          -0.8332  -20.3134  -42.9326 N.am      9 UNK        -0.5000 
     30 C          -1.7748  -19.6280  -43.5966 C.2       8 UNK         0.5000 
     31 O          -2.7956  -20.1409  -44.0513 O.2       8 UNK        -0.5000 
     32 CA         -1.5045  -18.1386  -43.8691 C.3       8 UNK         0.1400 
     33 CB         -2.0900  -17.2713  -42.7469 C.3       8 UNK        -0.1800 
     34 N          -0.0883  -17.8102  -44.0511 N.am      8 UNK        -0.5000 
     35 C           0.7185  -18.3150  -44.9961 C.2       7 UNK         0.5000 
     36 O           0.3697  -19.1699  -45.8063 O.2       7 UNK        -0.5000 
     37 CA          2.1657  -17.8051  -45.0166 C.3       7 UNK         0.1400 
     38 CB          2.2448  -16.3930  -45.6204 C.3       7 UNK        -0.1800 
     39 N           2.7323  -17.8119  -43.6700 N.am      7 UNK        -0.5000 
     40 C           3.2053  -18.9094  -43.0619 C.2       6 UNK         0.5000 
     41 O           3.3021  -20.0077  -43.6097 O.2       6 UNK        -0.5000 
     42 CA          3.6237  -18.7640  -41.5861 C.3       6 UNK         0.1400 
     43 CB          5.1092  -18.3872  -41.4822 C.3       6 UNK        -0.1800 
     44 N           2.8271  -17.7765  -40.8559 N.am      6 UNK        -0.5000 
     45 C           1.5218  -17.9029  -40.5784 C.2       5 UNK         0.5000 
     46 O           0.8452  -18.8825  -40.8911 O.2       5 UNK        -0.5000 
     47 CA          0.8516  -16.7027  -39.8816 C.3       5 UNK         0.1400 
     48 CB          1.0232  -16.8001  -38.3584 C.3       5 UNK        -0.1800 
     49 N           1.3426  -15.3987  -40.3443 N.am      5 UNK        -0.5000 
     50 C           1.2950  -14.9702  -41.6123 C.2       4 UNK         0.5000 
     51 O           0.8807  -15.6555  -42.5507 O.2       4 UNK        -0.5000 
     52 CA          1.8405  -13.5658  -41.8921 C.3       4 UNK         0.1400 
     53 CB          3.3737  -13.5904  -42.0010 C.3       4 UNK        -0.1800 
     54 N           1.2791  -13.1091  -43.1577 N.am      4 UNK        -0.5000 
     55 C           0.8018  -11.8881  -43.4105 C.2       3 UNK         0.5000 
     56 O           0.8630  -10.9532  -42.6104 O.2       3 UNK        -0.5000 
     57 CA          0.1451  -11.6612  -44.7873 C.3       3 UNK         0.1400 
     58 CB          1.0523  -10.8030  -45.6807 C.3       3 UNK        -0.1800 
     59 N          -0.2075  -12.8898  -45.5097 N.am      3 UNK        -0.5000 
     60 C          -1.2334  -13.6944  -45.1905 C.2       2 UNK         0.5000 
     61 O          -1.9276  -13.5347  -44.1857 O.2       2 UNK        -0.5000 
     62 CA         -1.5394  -14.8567  -46.1664 C.3       2 UNK         0.1400 
     63 CB         -2.9894  -15.3759  -46.0428 C.3       2 UNK        -0.1800 
     64 N          -1.2244  -14.5401  -47.5668 N.am      2 UNK        -0.5000 
     65 C          -1.7435  -13.5419  -48.3002 C.2       1 UNK         0.5000 
     66 O          -2.6002  -12.7573  -47.8879 O.2       1 UNK        -0.5000 
     67 C          -3.7480  -19.4224  -47.8389 C.2       11 UNK         0.5000 
     68 O          -4.5432  -18.9901  -48.6719 O.2       11 UNK        -0.5000 
     69 N          -4.0999  -19.7567  -46.5938 N.am      12 UNK        -0.5000 
     70 CA         -5.4674  -19.7204  -46.0822 C.3       12 UNK         0.1400 
     71 CB         -5.6188  -18.5152  -45.1353 C.3       12 UNK        -0.1800 
     72 C          -5.8600  -21.0521  -45.4148 C.2       12 UNK         0.5000 
     73 O          -6.8419  -21.0782  -44.6702 O.2       12 UNK        -0.5000 
     74 N          -5.1170  -22.1371  -45.6845 N.am      13 UNK        -0.5000 
     75 CA         -5.3692  -23.4547  -45.1077 C.3       13 UNK         0.1400 
     76 CB         -4.8688  -23.5177  -43.6498 C.3       13 UNK        -0.1800 
     77 C          -4.8200  -24.5744  -46.0059 C.2       13 UNK         0.5000 
     78 O          -5.5615  -25.0796  -46.8489 O.2       13 UNK        -0.5000 
     79 N          -3.5613  -24.9821  -45.7899 N.am      14 UNK        -0.5000 
     80 CA         -2.9865  -26.2159  -46.3418 C.3       14 UNK         0.1400 
     81 CB         -1.7339  -26.5815  -45.5281 C.3       14 UNK        -0.1800 
     82 C          -2.6598  -26.2021  -47.8511 C.2       14 UNK         0.5000 
     83 O          -2.3604  -27.2686  -48.3900 O.2       14 UNK        -0.5000 
     84 N          -2.7036  -25.0219  -48.4869 N.am      15 UNK        -0.5000 
     85 CA         -2.2342  -24.6768  -49.8357 C.3       15 UNK         0.1400 
     86 CB         -2.8110  -25.6036  -50.9246 C.3       15 UNK        -0.1800 
     87 C          -0.6979  -24.5957  -49.9140 C.2       15 UNK         0.5000 
     88 O           0.0075  -25.2507  -49.1432 O.2       15 UNK        -0.5000 
     89 N          -0.2034  -23.7687  -50.8401 N.am      16 UNK        -0.5000 
     90 CA          1.2181  -23.5766  -51.1127 C.3       16 UNK         0.1400 
     91 CB          1.5027  -22.0629  -51.1651 C.3       16 UNK        -0.1800 
     92 C           1.5832  -24.2371  -52.4518 C.2       16 UNK         0.5000 
     93 O           0.7016  -24.6304  -53.2196 O.2       16 UNK        -0.5000 
     94 N           2.8886  -24.3010  -52.7398 N.am      17 UNK        -0.5000 
     95 CA          3.4073  -24.6817  -54.0570 C.3       17 UNK         0.1400 
     96 CB          4.9096  -24.9817  -53.9406 C.3       17 UNK        -0.1800 
     97 C           3.1525  -23.5918  -55.1196 C.2       17 UNK         0.5000 
     98 O           3.0268  -23.9101  -56.3024 O.2       17 UNK        -0.5000 
     99 N           3.0816  -22.3292  -54.6735 N.am      18 UNK        -0.5000 
    100 CA         2.8402  -21.1557  -55.5095 C.3       18 UNK         0.1400 
    101 CB         3.2899  -19.9003  -54.7450 C.3       18 UNK        -0.1800 
    102 C          1.3723  -21.0107  -55.9503 C.2       18 UNK         0.5000 
    103 O          1.1278  -20.5363  -57.0606 O.2       18 UNK        -0.5000 
    104 N          0.4261  -21.3987  -55.0847 N.am      19 UNK        -0.5000 
    105 CA        -1.0100  -21.2352  -55.2936 C.3       19 UNK         0.1400 
    106 CB        -1.4013  -19.7489  -55.1583 C.3       19 UNK        -0.1800 
    107 C         -1.7959  -22.0714  -54.2759 C.2       19 UNK         0.5000 
    108 O         -1.3194  -22.3020  -53.1607 O.2       19 UNK        -0.5000 
    109 N         -3.0194  -22.4537  -54.6631 N.am      20 UNK        -0.5000 
    110 CA        -4.0346  -23.0225  -53.7756 C.3       20 UNK         0.1400 
    111 CB        -5.2231  -23.5011  -54.6236 C.3       20 UNK        -0.1800 
    112 C         -4.4976  -21.9970  -52.7227 C.2       20 UNK         0.5000 
    113 O         -4.3696  -20.7931  -52.9502 O.2       20 UNK        -0.5000 
    114 N         -5.0314  -22.4837  -51.5959 N.am      21 UNK        -0.5000 
    115 CA        -5.5177  -21.6428  -50.5007 C.3       21 UNK         0.1400 
    116 CB        -5.8532  -22.5286  -49.2919 C.3       21 UNK        -0.1800 
    117 C         -6.7306  -20.7783  -50.9043 C.2       21 UNK         0.5000 
    118 O         -7.5689  -21.2280  -51.6901 O.2       21 UNK        -0.5000 
    119 N         -6.8066  -19.5686  -50.3449 N.am      22 UNK        -0.5000 
    120 CA        -7.8447  -18.5641  -50.6130 C.3       22 UNK         0.1400 
    121 C         -8.3359  -17.8601  -49.3169 C.2       22 UNK         0.5000 
    122 N         -9.3995  -17.0709  -49.3979 N.am      22 UNK        -0.7600 
    123 O         -7.7821  -18.0237  -48.2330 O.2       22 UNK        -0.5000 
    124 C124       -7.4126  -17.5639  -51.7230 C.3       23 UNK        -0.0398 
    125 S125       -5.8388  -16.6932  -51.3805 S.3       23 UNK        -0.2404 
    126 C126       -4.8061  -17.2924  -52.7529 C.3       23 UNK        -0.0205 
    127 H127        2.8440  -11.4746  -49.8437 H         1 UNK         0.0600 
    128 H128        2.2141  -10.6293  -48.4288 H         1 UNK         0.0600 
    129 H129        1.4722  -10.3747  -50.0094 H         1 UNK         0.0600 
    130 H130       -0.3480  -11.5661  -50.4185 H         1 UNK         0.3000 
    131 H131       -0.6978  -14.3006  -50.0136 H         1 UNK         0.0600 
    132 H132       -2.9112  -12.2216  -50.4134 H         1 UNK         0.0800 
    133 H133       -3.0272  -13.9243  -50.7426 H         1 UNK         0.0800 
    134 H134        0.1787  -14.0813  -52.4177 H         1 UNK         0.0800 
    135 H135       -0.5923  -14.1513  -53.9817 H         1 UNK         0.0800 
    136 H136       -3.3760  -15.0470  -53.3247 H         1 UNK         0.1150 
    137 H137       -2.9810  -18.9476  -51.6007 H         1 UNK         0.1150 
    138 H138        0.4072  -16.3315  -51.7576 H         1 UNK         0.1150 
    139 H139       -0.8130  -19.7888  -50.9848 H         1 UNK         0.0800 
    140 H140        0.6036  -18.9199  -51.5039 H         1 UNK         0.0800 
    141 H141       -1.4774  -17.7318  -47.5117 H         1 UNK         0.0800 
    142 H142       -2.2057  -17.5747  -49.0844 H         1 UNK         0.0800 
    143 H143       -2.3237  -20.1116  -49.2276 H         1 UNK         0.0600 
    144 H144       -0.6548  -20.0327  -46.9834 H         1 UNK         0.3000 
    145 H145       -0.7638  -23.5898  -46.4677 H         1 UNK         0.0600 
    146 H146        1.6037  -22.9553  -46.7358 H         1 UNK         0.0600 
    147 H147        0.7465  -22.7046  -48.2431 H         1 UNK         0.0600 
    148 H148        1.1627  -21.3271  -47.2376 H         1 UNK         0.0600 
    149 H149        0.0198  -21.0845  -45.0407 H         1 UNK         0.3000 
    150 H150       -1.7299  -22.0117  -42.1433 H         1 UNK         0.0600 
    151 H151        0.4272  -23.2358  -41.7324 H         1 UNK         0.0600 
    152 H152        0.4032  -21.6705  -40.9356 H         1 UNK         0.0600 
    153 H153        1.3221  -21.8864  -42.4247 H         1 UNK         0.0600 
    154 H154       -0.0571  -19.8000  -42.5289 H         1 UNK         0.3000 
    155 H155       -2.0154  -17.8863  -44.7997 H         1 UNK         0.0600 
    156 H156       -1.9198  -16.2104  -42.9318 H         1 UNK         0.0600 
    157 H157       -1.6480  -17.5183  -41.7822 H         1 UNK         0.0600 
    158 H158       -3.1672  -17.4192  -42.6618 H         1 UNK         0.0600 
    159 H159        0.2882  -17.0991  -43.4268 H         1 UNK         0.3000 
    160 H160        2.7494  -18.4732  -45.6539 H         1 UNK         0.0600 
    161 H161        1.6711  -15.6654  -45.0479 H         1 UNK         0.0600 
    162 H162        1.8555  -16.3852  -46.6395 H         1 UNK         0.0600 
    163 H163        3.2760  -16.0426  -45.6654 H         1 UNK         0.0600 
    164 H164        2.6251  -16.9655  -43.1291 H         1 UNK         0.3000 
    165 H165        3.4814  -19.7345  -41.1057 H         1 UNK         0.0600 
    166 H166        5.3095  -17.4111  -41.9261 H         1 UNK         0.0600 
    167 H167        5.4372  -18.3580  -40.4430 H         1 UNK         0.0600 
    168 H168        5.7341  -19.1173  -41.9984 H         1 UNK         0.0600 
    169 H169        3.3003  -16.9343  -40.5638 H         1 UNK         0.3000 
    170 H170       -0.2156  -16.7478  -40.1031 H         1 UNK         0.0600 
    171 H171        0.6483  -17.7535  -37.9835 H         1 UNK         0.0600 
    172 H172        2.0704  -16.7203  -38.0643 H         1 UNK         0.0600 
    173 H173        0.4694  -16.0121  -37.8477 H         1 UNK         0.0600 
    174 H174        1.7113  -14.7825  -39.6341 H         1 UNK         0.3000 
    175 H175        1.5359  -12.9078  -41.0756 H         1 UNK         0.0600 
    176 H176        3.7670  -12.5966  -42.2157 H         1 UNK         0.0600 
    177 H177        3.8303  -13.9248  -41.0687 H         1 UNK         0.0600 
    178 H178        3.7108  -14.2605  -42.7931 H         1 UNK         0.0600 
    179 H179        1.1116  -13.8423  -43.8326 H         1 UNK         0.3000 
    180 H180       -0.7748  -11.1000  -44.6095 H         1 UNK         0.0600 
    181 H181        0.5372  -10.5172  -46.5975 H         1 UNK         0.0600 
    182 H182        1.3456   -9.8809  -45.1772 H         1 UNK         0.0600 
    183 H183        1.9652  -11.3341  -45.9533 H         1 UNK         0.0600 
    184 H184        0.3117  -13.0794  -46.3601 H         1 UNK         0.3000 
    185 H185       -0.8728  -15.6703  -45.8800 H         1 UNK         0.0600 
    186 H186       -3.1760  -16.2092  -46.7194 H         1 UNK         0.0600 
    187 H187       -3.2005  -15.7267  -45.0329 H         1 UNK         0.0600 
    188 H188       -3.7179  -14.5969  -46.2686 H         1 UNK         0.0600 
    189 H189       -0.4700  -15.0754  -47.9749 H         1 UNK         0.3000 
    190 H190       -3.4009  -20.0861  -45.9345 H         1 UNK         0.3000 
    191 H191       -6.1745  -19.5950  -46.9026 H         1 UNK         0.0600 
    192 H192       -6.6499  -18.4089  -44.7967 H         1 UNK         0.0600 
    193 H193       -5.3488  -17.5861  -45.6373 H         1 UNK         0.0600 
    194 H194       -4.9900  -18.6149  -44.2507 H         1 UNK         0.0600 
    195 H195       -4.3468  -22.0731  -46.3423 H         1 UNK         0.3000 
    196 H196       -6.4490  -23.6183  -45.0823 H         1 UNK         0.0600 
    197 H197       -4.8388  -24.5426  -43.2774 H         1 UNK         0.0600 
    198 H198       -5.5304  -22.9573  -42.9893 H         1 UNK         0.0600 
    199 H199       -3.8749  -23.0889  -43.5434 H         1 UNK         0.0600 
    200 H200       -2.9931  -24.4972  -45.1016 H         1 UNK         0.3000 
    201 H201       -3.7184  -27.0123  -46.1909 H         1 UNK         0.0600 
    202 H202       -1.9567  -26.6444  -44.4628 H         1 UNK         0.0600 
    203 H203       -0.9390  -25.8477  -45.6622 H         1 UNK         0.0600 
    204 H204       -1.3365  -27.5504  -45.8329 H         1 UNK         0.0600 
    205 H205       -2.9356  -24.2096  -47.9225 H         1 UNK         0.3000 
    206 H206       -2.6147  -23.6717  -50.0254 H         1 UNK         0.0600 
    207 H207       -3.9006  -25.6094  -50.9054 H         1 UNK         0.0600 
    208 H208       -2.4961  -25.2756  -51.9143 H         1 UNK         0.0600 
    209 H209       -2.4643  -26.6312  -50.8221 H         1 UNK         0.0600 
    210 H210       -0.8213  -23.3249  -51.5143 H         1 UNK         0.3000 
    211 H211        1.8329  -24.0228  -50.3284 H         1 UNK         0.0600 
    212 H212        0.9931  -21.5816  -51.9998 H         1 UNK         0.0600 
    213 H213        2.5692  -21.8635  -51.2730 H         1 UNK         0.0600 
    214 H214        1.1767  -21.5638  -50.2529 H         1 UNK         0.0600 
    215 H215        3.5655  -23.9896  -52.0578 H         1 UNK         0.3000 
    216 H216        2.9013  -25.5927  -54.3841 H         1 UNK         0.0600 
    217 H217        5.3209  -25.2911  -54.9024 H         1 UNK         0.0600 
    218 H218        5.0967  -25.7902  -53.2336 H         1 UNK         0.0600 
    219 H219        5.4718  -24.1077  -53.6092 H         1 UNK         0.0600 
    220 H220        3.2153  -22.1627  -53.6882 H         1 UNK         0.3000 
    221 H221        3.4518  -21.2415  -56.4104 H         1 UNK         0.0600 
    222 H222        2.7263  -19.7666  -53.8205 H         1 UNK         0.0600 
    223 H223        4.3484  -19.9516  -54.4893 H         1 UNK         0.0600 
    224 H224        3.1460  -19.0032  -55.3488 H         1 UNK         0.0600 
    225 H225        0.6796  -21.8361  -54.2094 H         1 UNK         0.3000 
    226 H226       -1.2609  -21.5891  -56.2958 H         1 UNK         0.0600 
    227 H227       -0.9481  -19.1388  -55.9392 H         1 UNK         0.0600 
    228 H228       -2.4814  -19.6148  -55.2336 H         1 UNK         0.0600 
    229 H229       -1.0908  -19.3426  -54.1952 H         1 UNK         0.0600 
    230 H230       -3.3406  -22.1836  -55.5808 H         1 UNK         0.3000 
    231 H231       -3.6003  -23.8804  -53.2644 H         1 UNK         0.0600 
    232 H232       -5.9893  -23.9634  -53.9999 H         1 UNK         0.0600 
    233 H233       -4.9113  -24.2448  -55.3572 H         1 UNK         0.0600 
    234 H234       -5.6926  -22.6751  -55.1597 H         1 UNK         0.0600 
    235 H235       -5.1681  -23.4782  -51.4971 H         1 UNK         0.3000 
    236 H236       -4.6954  -20.9825  -50.2264 H         1 UNK         0.0600 
    237 H237       -6.6408  -23.2464  -49.5236 H         1 UNK         0.0600 
    238 H238       -4.9797  -23.0858  -48.9545 H         1 UNK         0.0600 
    239 H239       -6.1965  -21.9254  -48.4511 H         1 UNK         0.0600 
    240 H240       -6.0885  -19.2711  -49.6855 H         1 UNK         0.3000 
    241 H241       -8.7283  -19.0905  -50.9786 H         1 UNK         0.0600 
    242 H242       -9.7274  -16.6129  -48.5618 H         1 UNK         0.3800 
    243 H243       -9.8917  -16.9242  -50.2653 H         1 UNK         0.3800 
    244 H244       -8.1863  -16.8143  -51.8933 H         1 UNK         0.0800 
    245 H245       -7.3286  -18.1019  -52.6679 H         1 UNK         0.0800 
    246 H246       -4.9693  -18.3600  -52.8894 H         1 UNK         0.0800 
    247 H247       -5.1193  -16.8121  -53.6809 H         1 UNK         0.0800 
@<TRIPOS>BOND
     1    1    2 1    
     2    1  127 1    
     3    1  128 1    
     4    1  129 1    
     5    2    3 2    
     6    2    4 am   BACKBONE|DICT|INTERRES
     7    4    5 1    
     8    4  130 1    
     9    5    6 1    
    10    5   65 1    
    11    5  131 1    
    12    6    7 1    
    13    6  132 1    
    14    6  133 1    
    15    7    8 1    
    16    8    9 1    
    17    8  134 1    
    18    8  135 1    
    19    9   10 ar   
    20    9   14 ar   
    21   10   11 ar   
    22   10  136 1    
    23   11   12 ar   
    24   11  126 1    
    25   12   13 ar   
    26   12  137 1    
    27   13   14 ar   
    28   13   15 1    
    29   14  138 1    
    30   15   16 1    
    31   15  139 1    
    32   15  140 1    
    33   16   17 1    
    34   17   18 1    
    35   17  141 1    
    36   17  142 1    
    37   18   19 1    
    38   18   67 1    
    39   18  143 1    
    40   19   20 am   BACKBONE|DICT|INTERRES
    41   19  144 1    
    42   20   21 2    
    43   20   22 1    
    44   22   23 1    
    45   22   24 1    
    46   22  145 1    
    47   23  146 1    
    48   23  147 1    
    49   23  148 1    
    50   24   25 am   BACKBONE|DICT|INTERRES
    51   24  149 1    
    52   25   26 2    
    53   25   27 1    
    54   27   28 1    
    55   27   29 1    
    56   27  150 1    
    57   28  151 1    
    58   28  152 1    
    59   28  153 1    
    60   29   30 am   BACKBONE|DICT|INTERRES
    61   29  154 1    
    62   30   31 2    
    63   30   32 1    
    64   32   33 1    
    65   32   34 1    
    66   32  155 1    
    67   33  156 1    
    68   33  157 1    
    69   33  158 1    
    70   34   35 am   BACKBONE|DICT|INTERRES
    71   34  159 1    
    72   35   36 2    
    73   35   37 1    
    74   37   38 1    
    75   37   39 1    
    76   37  160 1    
    77   38  161 1    
    78   38  162 1    
    79   38  163 1    
    80   39   40 am   BACKBONE|DICT|INTERRES
    81   39  164 1    
    82   40   41 2    
    83   40   42 1    
    84   42   43 1    
    85   42   44 1    
    86   42  165 1    
    87   43  166 1    
    88   43  167 1    
    89   43  168 1    
    90   44   45 am   BACKBONE|DICT|INTERRES
    91   44  169 1    
    92   45   46 2    
    93   45   47 1    
    94   47   48 1    
    95   47   49 1    
    96   47  170 1    
    97   48  171 1    
    98   48  172 1    
    99   48  173 1    
   100   49   50 am   BACKBONE|DICT|INTERRES
   101   49  174 1    
   102   50   51 2    
   103   50   52 1    
   104   52   53 1    
   105   52   54 1    
   106   52  175 1    
   107   53  176 1    
   108   53  177 1    
   109   53  178 1    
   110   54   55 am   BACKBONE|DICT|INTERRES
   111   54  179 1    
   112   55   56 2    
   113   55   57 1    
   114   57   58 1    
   115   57   59 1    
   116   57  180 1    
   117   58  181 1    
   118   58  182 1    
   119   58  183 1    
   120   59   60 am   BACKBONE|DICT|INTERRES
   121   59  184 1    
   122   60   61 2    
   123   60   62 1    
   124   62   63 1    
   125   62   64 1    
   126   62  185 1    
   127   63  186 1    
   128   63  187 1    
   129   63  188 1    
   130   64   65 am   BACKBONE|DICT|INTERRES
   131   64  189 1    
   132   65   66 2    
   133   67   68 2    
   134   67   69 am   BACKBONE|DICT|INTERRES
   135   69   70 1    
   136   69  190 1    
   137   70   71 1    
   138   70   72 1    
   139   70  191 1    
   140   71  192 1    
   141   71  193 1    
   142   71  194 1    
   143   72   73 2    
   144   72   74 am   BACKBONE|DICT|INTERRES
   145   74   75 1    
   146   74  195 1    
   147   75   76 1    
   148   75   77 1    
   149   75  196 1    
   150   76  197 1    
   151   76  198 1    
   152   76  199 1    
   153   77   78 2    
   154   77   79 am   BACKBONE|DICT|INTERRES
   155   79   80 1    
   156   79  200 1    
   157   80   81 1    
   158   80   82 1    
   159   80  201 1    
   160   81  202 1    
   161   81  203 1    
   162   81  204 1    
   163   82   83 2    
   164   82   84 am   BACKBONE|DICT|INTERRES
   165   84   85 1    
   166   84  205 1    
   167   85   86 1    
   168   85   87 1    
   169   85  206 1    
   170   86  207 1    
   171   86  208 1    
   172   86  209 1    
   173   87   88 2    
   174   87   89 am   BACKBONE|DICT|INTERRES
   175   89   90 1    
   176   89  210 1    
   177   90   91 1    
   178   90   92 1    
   179   90  211 1    
   180   91  212 1    
   181   91  213 1    
   182   91  214 1    
   183   92   93 2    
   184   92   94 am   BACKBONE|DICT|INTERRES
   185   94   95 1    
   186   94  215 1    
   187   95   96 1    
   188   95   97 1    
   189   95  216 1    
   190   96  217 1    
   191   96  218 1    
   192   96  219 1    
   193   97   98 2    
   194   97   99 am   BACKBONE|DICT|INTERRES
   195   99  100 1    
   196   99  220 1    
   197  100  101 1    
   198  100  102 1    
   199  100  221 1    
   200  101  222 1    
   201  101  223 1    
   202  101  224 1    
   203  102  103 2    
   204  102  104 am   BACKBONE|DICT|INTERRES
   205  104  105 1    
   206  104  225 1    
   207  105  106 1    
   208  105  107 1    
   209  105  226 1    
   210  106  227 1    
   211  106  228 1    
   212  106  229 1    
   213  107  108 2    
   214  107  109 am   BACKBONE|DICT|INTERRES
   215  109  110 1    
   216  109  230 1    
   217  110  111 1    
   218  110  112 1    
   219  110  231 1    
   220  111  232 1    
   221  111  233 1    
   222  111  234 1    
   223  112  113 2    
   224  112  114 am   BACKBONE|DICT|INTERRES
   225  114  115 1    
   226  114  235 1    
   227  115  116 1    
   228  115  117 1    
   229  115  236 1    
   230  116  237 1    
   231  116  238 1    
   232  116  239 1    
   233  117  118 2    
   234  117  119 am   BACKBONE|DICT|INTERRES
   235  119  120 1    
   236  119  240 1    
   237  120  121 1    
   238  120  124 1    
   239  120  241 1    
   240  121  122 am   BACKBONE|DICT|INTERRES
   241  121  123 2    
   242  122  242 1    
   243  122  243 1    
   244  124  125 1    
   245  124  244 1    
   246  124  245 1    
   247  125  126 1    
   248  126  246 1    
   249  126  247 1    
@<TRIPOS>SUBSTRUCTURE
     1 UNK         1 GROUP             0       ****    0 ROOT    
