@<TRIPOS>MOLECULE
3R540
247   249    1
SMALL
USER_CHARGES


@<TRIPOS>ATOM
      1 CA         -4.0257  -17.1929  -47.1139 C.3       0 UNK        -0.1800 
      2 C          -2.7650  -16.5201  -47.6374 C.2       0 UNK         0.5000 
      3 O          -1.8568  -16.2668  -46.8511 O.2       0 UNK        -0.5000 
      4 N          -2.7297  -16.2184  -48.9440 N.am      1 UNK        -0.5000 
      5 CA         -1.6594  -15.6090  -49.7592 C.3       1 UNK         0.1400 
      6 C6         -0.4661  -16.5657  -50.0539 C.3       23 UNK        -0.0398 
      7 S7          0.7627  -16.7737  -48.7113 S.3       23 UNK        -0.2404 
      8 C8          2.2966  -17.1527  -49.6160 C.3       23 UNK        -0.0205 
      9 C9          2.4444  -18.6432  -49.8852 C.ar      23 UNK        -0.0193 
     10 C10         1.6827  -19.2469  -50.8854 C.ar      23 UNK        -0.1150 
     11 C11         1.8025  -20.6149  -51.1592 C.ar      23 UNK        -0.0193 
     12 C12         2.7352  -21.3664  -50.4368 C.ar      23 UNK        -0.1150 
     13 C13         3.5193  -20.7746  -49.4408 C.ar      23 UNK        -0.0193 
     14 C14         3.3572  -19.4140  -49.1595 C.ar      23 UNK        -0.1150 
     15 C15         4.5814  -21.5873  -48.7077 C.3       23 UNK        -0.0205 
     16 S16         3.9122  -23.0242  -47.8080 S.3       23 UNK        -0.2404 
     17 C17         2.9246  -22.2129  -46.5071 C.3       23 UNK        -0.0398 
     18 CA          1.5947  -22.9425  -46.2005 C.3       11 UNK         0.1400 
     19 N           0.9713  -22.4187  -44.9826 N.am      11 UNK        -0.5000 
     20 C          -0.0948  -22.9526  -44.3710 C.2       10 UNK         0.5000 
     21 O          -0.6517  -23.9837  -44.7429 O.2       10 UNK        -0.5000 
     22 CA         -0.6680  -22.1805  -43.1692 C.3       10 UNK         0.1400 
     23 CB          0.1386  -22.4729  -41.8955 C.3       10 UNK        -0.1800 
     24 N          -0.7202  -20.7374  -43.4012 N.am      10 UNK        -0.5000 
     25 C          -1.4441  -20.1499  -44.3648 C.2       9 UNK         0.5000 
     26 O          -2.1934  -20.7590  -45.1270 O.2       9 UNK        -0.5000 
     27 CA         -1.2568  -18.6365  -44.5496 C.3       9 UNK         0.1400 
     28 CB         -2.0583  -17.8471  -43.5051 C.3       9 UNK        -0.1800 
     29 N           0.1472  -18.2307  -44.5089 N.am      9 UNK        -0.5000 
     30 C           1.0876  -18.6578  -45.3642 C.2       8 UNK         0.5000 
     31 O           0.8699  -19.4309  -46.2956 O.2       8 UNK        -0.5000 
     32 CA          2.5314  -18.2164  -45.0720 C.3       8 UNK         0.1400 
     33 CB          2.7936  -16.7839  -45.5589 C.3       8 UNK        -0.1800 
     34 N           2.8312  -18.3117  -43.6442 N.am      8 UNK        -0.5000 
     35 C           2.9582  -19.4667  -42.9763 C.2       7 UNK         0.5000 
     36 O           2.8841  -20.5752  -43.5073 O.2       7 UNK        -0.5000 
     37 CA          3.1647  -19.3623  -41.4539 C.3       7 UNK         0.1400 
     38 CB          4.6497  -19.1540  -41.1218 C.3       7 UNK        -0.1800 
     39 N           2.3765  -18.2845  -40.8521 N.am      7 UNK        -0.5000 
     40 C           1.0384  -18.2847  -40.7720 C.2       6 UNK         0.5000 
     41 O           0.3333  -19.2131  -41.1652 O.2       6 UNK        -0.5000 
     42 CA          0.3737  -17.0208  -40.1936 C.3       6 UNK         0.1400 
     43 CB          0.2619  -17.1221  -38.6653 C.3       6 UNK        -0.1800 
     44 N           1.0566  -15.7725  -40.5486 N.am      6 UNK        -0.5000 
     45 C           1.2336  -15.3302  -41.8001 C.2       5 UNK         0.5000 
     46 O           0.8802  -15.9571  -42.8002 O.2       5 UNK        -0.5000 
     47 CA          1.8996  -13.9549  -41.9545 C.3       5 UNK         0.1400 
     48 CB          2.9466  -13.9488  -43.0804 C.3       5 UNK        -0.1800 
     49 N           0.8643  -12.9754  -42.2583 N.am      5 UNK        -0.5000 
     50 C           0.2108  -12.2451  -41.3443 C.2       4 UNK         0.5000 
     51 O           0.4975  -12.2382  -40.1462 O.2       4 UNK        -0.5000 
     52 CA         -0.9760  -11.3914  -41.8409 C.3       4 UNK         0.1400 
     53 CB         -0.5107   -9.9666  -42.1778 C.3       4 UNK        -0.1800 
     54 N          -1.6476  -11.9623  -43.0098 N.am      4 UNK        -0.5000 
     55 C          -2.3048  -13.1297  -43.0194 C.2       3 UNK         0.5000 
     56 O          -2.5352  -13.7854  -42.0025 O.2       3 UNK        -0.5000 
     57 CA         -2.7750  -13.6752  -44.3837 C.3       3 UNK         0.1400 
     58 CB         -4.3003  -13.5475  -44.5200 C.3       3 UNK        -0.1800 
     59 N          -2.1494  -13.1056  -45.5839 N.am      3 UNK        -0.5000 
     60 C          -0.8394  -13.0606  -45.8680 C.2       2 UNK         0.5000 
     61 O           0.0561  -13.2849  -45.0533 O.2       2 UNK        -0.5000 
     62 CA         -0.5031  -12.8129  -47.3448 C.3       2 UNK         0.1400 
     63 CB          0.9991  -12.5798  -47.5984 C.3       2 UNK        -0.1800 
     64 N          -0.9520  -14.0084  -48.0390 N.am      2 UNK        -0.5000 
     65 C          -1.2125  -14.1865  -49.3327 C.2       1 UNK         0.5000 
     66 O          -1.1269  -13.2919  -50.1752 O.2       1 UNK        -0.5000 
     67 C           0.6190  -22.9271  -47.3983 C.2       11 UNK         0.5000 
     68 O           0.4499  -23.9523  -48.0594 O.2       11 UNK        -0.5000 
     69 N          -0.0431  -21.7860  -47.6267 N.am      12 UNK        -0.5000 
     70 CA         -1.0179  -21.6043  -48.7011 C.3       12 UNK         0.1400 
     71 CB         -1.3531  -20.1138  -48.8234 C.3       12 UNK        -0.1800 
     72 C          -2.2898  -22.4550  -48.5129 C.2       12 UNK         0.5000 
     73 O          -2.8413  -22.9480  -49.4991 O.2       12 UNK        -0.5000 
     74 N          -2.7175  -22.6400  -47.2560 N.am      13 UNK        -0.5000 
     75 CA         -3.8103  -23.5334  -46.8749 C.3       13 UNK         0.1400 
     76 CB         -4.2310  -23.2586  -45.4242 C.3       13 UNK        -0.1800 
     77 C          -3.4482  -25.0161  -47.0699 C.2       13 UNK         0.5000 
     78 O          -4.2656  -25.7662  -47.6019 O.2       13 UNK        -0.5000 
     79 N          -2.2243  -25.4104  -46.6866 N.am      14 UNK        -0.5000 
     80 CA         -1.6796  -26.7581  -46.8898 C.3       14 UNK         0.1400 
     81 CB         -0.3478  -26.9010  -46.1380 C.3       14 UNK        -0.1800 
     82 C          -1.5069  -27.1189  -48.3777 C.2       14 UNK         0.5000 
     83 O          -1.6984  -28.2768  -48.7501 O.2       14 UNK        -0.5000 
     84 N          -1.2031  -26.1111  -49.2066 N.am      15 UNK        -0.5000 
     85 CA         -1.1785  -26.1929  -50.6682 C.3       15 UNK         0.1400 
     86 CB         -0.4115  -24.9783  -51.2168 C.3       15 UNK        -0.1800 
     87 C          -2.5822  -26.2836  -51.3094 C.2       15 UNK         0.5000 
     88 O          -2.6683  -26.5038  -52.5180 O.2       15 UNK        -0.5000 
     89 N          -3.6451  -26.1072  -50.5065 N.am      16 UNK        -0.5000 
     90 CA         -5.0643  -26.0992  -50.8779 C.3       16 UNK         0.1400 
     91 CB         -5.5097  -27.4843  -51.3918 C.3       16 UNK        -0.1800 
     92 C          -5.4211  -24.9464  -51.8381 C.2       16 UNK         0.5000 
     93 O          -6.2625  -25.1144  -52.7233 O.2       16 UNK        -0.5000 
     94 N          -4.7615  -23.7988  -51.6453 N.am      17 UNK        -0.5000 
     95 CA         -4.8904  -22.6048  -52.4672 C.3       17 UNK         0.1400 
     96 CB         -3.4971  -22.2406  -53.0065 C.3       17 UNK        -0.1800 
     97 C          -5.5257  -21.4889  -51.6266 C.2       17 UNK         0.5000 
     98 O          -6.7409  -21.3005  -51.6948 O.2       17 UNK        -0.5000 
     99 N          -4.6952  -20.7837  -50.8449 N.am      18 UNK        -0.5000 
    100 CA        -5.0045  -19.6857  -49.9190 C.3       18 UNK         0.1400 
    101 CB        -5.9245  -20.1546  -48.7764 C.3       18 UNK        -0.1800 
    102 C         -5.5366  -18.4052  -50.5905 C.2       18 UNK         0.5000 
    103 O         -4.9341  -17.3420  -50.4291 O.2       18 UNK        -0.5000 
    104 N         -6.6383  -18.5189  -51.3388 N.am      19 UNK        -0.5000 
    105 CA        -7.3717  -17.4294  -51.9871 C.3       19 UNK         0.1400 
    106 CB        -8.8174  -17.8972  -52.2334 C.3       19 UNK        -0.1800 
    107 C         -6.6818  -16.9242  -53.2731 C.2       19 UNK         0.5000 
    108 O         -7.2905  -16.9210  -54.3438 O.2       19 UNK        -0.5000 
    109 N         -5.4060  -16.5347  -53.1429 N.am      20 UNK        -0.5000 
    110 CA        -4.5031  -15.9807  -54.1638 C.3       20 UNK         0.1400 
    111 CB        -5.0535  -14.6532  -54.7227 C.3       20 UNK        -0.1800 
    112 C         -4.1076  -16.9549  -55.2962 C.2       20 UNK         0.5000 
    113 O         -3.3401  -16.5708  -56.1808 O.2       20 UNK        -0.5000 
    114 N         -4.5813  -18.2077  -55.2371 N.am      21 UNK        -0.5000 
    115 CA        -4.3342  -19.2657  -56.2233 C.3       21 UNK         0.1400 
    116 CB        -5.2797  -20.4433  -55.9391 C.3       21 UNK        -0.1800 
    117 C         -2.8623  -19.7243  -56.3121 C.2       21 UNK         0.5000 
    118 O         -2.4879  -20.3654  -57.2948 O.2       21 UNK        -0.5000 
    119 N         -2.0505  -19.3562  -55.3125 N.am      22 UNK        -0.5000 
    120 CA        -0.5825  -19.4572  -55.3298 C.3       22 UNK         0.1400 
    121 C          0.1092  -18.5047  -56.3527 C.2       22 UNK         0.5000 
    122 N         -0.5541  -17.4756  -56.8706 N.am      22 UNK        -0.7600 
    123 O          1.2738  -18.7069  -56.6846 O.2       22 UNK        -0.5000 
    124 C124        0.0182  -19.2381  -53.9181 C.3       23 UNK        -0.0398 
    125 S125       -0.5795  -20.4556  -52.6960 S.3       23 UNK        -0.2404 
    126 C126        0.9649  -21.3147  -52.2313 C.3       23 UNK        -0.0205 
    127 H127       -3.8700  -18.2683  -47.0296 H         1 UNK         0.0600 
    128 H128       -4.8800  -17.0133  -47.7656 H         1 UNK         0.0600 
    129 H129       -4.2738  -16.8070  -46.1250 H         1 UNK         0.0600 
    130 H130       -3.5522  -16.4690  -49.4876 H         1 UNK         0.3000 
    131 H131       -2.1528  -15.4606  -50.7214 H         1 UNK         0.0600 
    132 H132       -0.8483  -17.5504  -50.3229 H         1 UNK         0.0800 
    133 H133        0.0571  -16.2054  -50.9406 H         1 UNK         0.0800 
    134 H134        2.3324  -16.5977  -50.5540 H         1 UNK         0.0800 
    135 H135        3.1423  -16.7948  -49.0279 H         1 UNK         0.0800 
    136 H136        0.9910  -18.6338  -51.4390 H         1 UNK         0.1150 
    137 H137        2.8569  -22.4190  -50.6516 H         1 UNK         0.1150 
    138 H138        3.9582  -18.9476  -48.3918 H         1 UNK         0.1150 
    139 H139        5.3092  -21.9434  -49.4379 H         1 UNK         0.0800 
    140 H140        5.1362  -20.9611  -48.0071 H         1 UNK         0.0800 
    141 H141        2.7380  -21.1735  -46.7760 H         1 UNK         0.0800 
    142 H142        3.5434  -22.1819  -45.6095 H         1 UNK         0.0800 
    143 H143        1.8337  -23.9888  -45.9978 H         1 UNK         0.0600 
    144 H144        1.3834  -21.5789  -44.5918 H         1 UNK         0.3000 
    145 H145       -1.6909  -22.5273  -43.0096 H         1 UNK         0.0600 
    146 H146       -0.3127  -21.9952  -41.0257 H         1 UNK         0.0600 
    147 H147        0.1773  -23.5443  -41.6950 H         1 UNK         0.0600 
    148 H148        1.1654  -22.1160  -41.9770 H         1 UNK         0.0600 
    149 H149       -0.1719  -20.1543  -42.7752 H         1 UNK         0.3000 
    150 H150       -1.6383  -18.3908  -45.5392 H         1 UNK         0.0600 
    151 H151       -3.1274  -18.0314  -43.6157 H         1 UNK         0.0600 
    152 H152       -1.8960  -16.7761  -43.6141 H         1 UNK         0.0600 
    153 H153       -1.7801  -18.1221  -42.4882 H         1 UNK         0.0600 
    154 H154        0.4102  -17.5546  -43.7976 H         1 UNK         0.3000 
    155 H155        3.2096  -18.8851  -45.6064 H         1 UNK         0.0600 
    156 H156        2.0202  -16.0923  -45.2244 H         1 UNK         0.0600 
    157 H157        3.7571  -16.4110  -45.2117 H         1 UNK         0.0600 
    158 H158        2.8097  -16.7473  -46.6462 H         1 UNK         0.0600 
    159 H159        2.8337  -17.4467  -43.1246 H         1 UNK         0.3000 
    160 H160        2.8451  -20.3074  -41.0096 H         1 UNK         0.0600 
    161 H161        5.0246  -18.2102  -41.5197 H         1 UNK         0.0600 
    162 H162        5.2592  -19.9539  -41.5444 H         1 UNK         0.0600 
    163 H163        4.8165  -19.1547  -40.0445 H         1 UNK         0.0600 
    164 H164        2.8817  -17.4838  -40.5023 H         1 UNK         0.3000 
    165 H165       -0.6367  -16.9674  -40.6039 H         1 UNK         0.0600 
    166 H166       -0.2961  -16.2807  -38.2539 H         1 UNK         0.0600 
    167 H167       -0.2627  -18.0324  -38.3717 H         1 UNK         0.0600 
    168 H168        1.2432  -17.1404  -38.1895 H         1 UNK         0.0600 
    169 H169        1.3506  -15.1867  -39.7799 H         1 UNK         0.3000 
    170 H170        2.4107  -13.6979  -41.0243 H         1 UNK         0.0600 
    171 H171        2.4919  -14.1100  -44.0578 H         1 UNK         0.0600 
    172 H172        3.4739  -12.9956  -43.1169 H         1 UNK         0.0600 
    173 H173        3.6928  -14.7294  -42.9286 H         1 UNK         0.0600 
    174 H174        0.5271  -12.9814  -43.2185 H         1 UNK         0.3000 
    175 H175       -1.7036  -11.3322  -41.0288 H         1 UNK         0.0600 
    176 H176       -1.3518   -9.3324  -42.4587 H         1 UNK         0.0600 
    177 H177        0.2050   -9.9617  -43.0009 H         1 UNK         0.0600 
    178 H178       -0.0264   -9.5008  -41.3185 H         1 UNK         0.0600 
    179 H179       -1.4938  -11.5008  -43.8940 H         1 UNK         0.3000 
    180 H180       -2.5296  -14.7373  -44.3900 H         1 UNK         0.0600 
    181 H181       -4.6108  -12.5035  -44.5773 H         1 UNK         0.0600 
    182 H182       -4.8110  -13.9961  -43.6668 H         1 UNK         0.0600 
    183 H183       -4.6611  -14.0571  -45.4138 H         1 UNK         0.0600 
    184 H184       -2.7878  -12.8966  -46.3375 H         1 UNK         0.3000 
    185 H185       -1.0696  -11.9475  -47.6936 H         1 UNK         0.0600 
    186 H186        1.3603  -11.7188  -47.0350 H         1 UNK         0.0600 
    187 H187        1.5948  -13.4441  -47.3009 H         1 UNK         0.0600 
    188 H188        1.1970  -12.3861  -48.6525 H         1 UNK         0.0600 
    189 H189       -1.0982  -14.8234  -47.4391 H         1 UNK         0.3000 
    190 H190        0.1731  -20.9669  -47.0610 H         1 UNK         0.3000 
    191 H191       -0.5414  -21.9189  -49.6312 H         1 UNK         0.0600 
    192 H192       -0.4442  -19.5139  -48.8468 H         1 UNK         0.0600 
    193 H193       -1.8879  -19.9135  -49.7505 H         1 UNK         0.0600 
    194 H194       -1.9594  -19.7615  -47.9881 H         1 UNK         0.0600 
    195 H195       -2.2601  -22.1349  -46.5022 H         1 UNK         0.3000 
    196 H196       -4.6642  -23.3141  -47.5193 H         1 UNK         0.0600 
    197 H197       -5.0514  -23.9116  -45.1242 H         1 UNK         0.0600 
    198 H198       -4.5727  -22.2306  -45.3027 H         1 UNK         0.0600 
    199 H199       -3.4082  -23.4220  -44.7278 H         1 UNK         0.0600 
    200 H200       -1.6205  -24.7497  -46.2042 H         1 UNK         0.3000 
    201 H201       -2.3877  -27.4699  -46.4606 H         1 UNK         0.0600 
    202 H202       -0.4813  -26.7430  -45.0677 H         1 UNK         0.0600 
    203 H203        0.3939  -26.1849  -46.4921 H         1 UNK         0.0600 
    204 H204        0.0705  -27.8997  -46.2688 H         1 UNK         0.0600 
    205 H205       -0.9717  -25.2102  -48.7999 H         1 UNK         0.3000 
    206 H206       -0.6333  -27.0957  -50.9504 H         1 UNK         0.0600 
    207 H207        0.5911  -24.9175  -50.7927 H         1 UNK         0.0600 
    208 H208       -0.3028  -25.0386  -52.3003 H         1 UNK         0.0600 
    209 H209       -0.9265  -24.0445  -50.9932 H         1 UNK         0.0600 
    210 H210       -3.4695  -25.9345  -49.5239 H         1 UNK         0.3000 
    211 H211       -5.6172  -25.9016  -49.9590 H         1 UNK         0.0600 
    212 H212       -5.0547  -27.7280  -52.3521 H         1 UNK         0.0600 
    213 H213       -6.5915  -27.5219  -51.5250 H         1 UNK         0.0600 
    214 H214       -5.2436  -28.2701  -50.6848 H         1 UNK         0.0600 
    215 H215       -4.1111  -23.7300  -50.8677 H         1 UNK         0.3000 
    216 H216       -5.5477  -22.7784  -53.3217 H         1 UNK         0.0600 
    217 H217       -3.4732  -21.2360  -53.4281 H         1 UNK         0.0600 
    218 H218       -3.1940  -22.9309  -53.7938 H         1 UNK         0.0600 
    219 H219       -2.7395  -22.2915  -52.2245 H         1 UNK         0.0600 
    220 H220       -3.7220  -21.0544  -50.8707 H         1 UNK         0.3000 
    221 H221       -4.0590  -19.4064  -49.4578 H         1 UNK         0.0600 
    222 H222       -6.8978  -20.4849  -49.1394 H         1 UNK         0.0600 
    223 H223       -5.4739  -20.9816  -48.2276 H         1 UNK         0.0600 
    224 H224       -6.1013  -19.3504  -48.0614 H         1 UNK         0.0600 
    225 H225       -7.0045  -19.4583  -51.4734 H         1 UNK         0.3000 
    226 H226       -7.4121  -16.5836  -51.2976 H         1 UNK         0.0600 
    227 H227       -9.3014  -18.1871  -51.3007 H         1 UNK         0.0600 
    228 H228       -9.4190  -17.1017  -52.6751 H         1 UNK         0.0600 
    229 H229       -8.8528  -18.7531  -52.9088 H         1 UNK         0.0600 
    230 H230       -5.0091  -16.6257  -52.2115 H         1 UNK         0.3000 
    231 H231       -3.5750  -15.7510  -53.6384 H         1 UNK         0.0600 
    232 H232       -5.9558  -14.8043  -55.3157 H         1 UNK         0.0600 
    233 H233       -4.3207  -14.1653  -55.3665 H         1 UNK         0.0600 
    234 H234       -5.2918  -13.9557  -53.9196 H         1 UNK         0.0600 
    235 H235       -5.2198  -18.4287  -54.4880 H         1 UNK         0.3000 
    236 H236       -4.5906  -18.8637  -57.2056 H         1 UNK         0.0600 
    237 H237       -6.3208  -20.1469  -56.0687 H         1 UNK         0.0600 
    238 H238       -5.0937  -21.2744  -56.6207 H         1 UNK         0.0600 
    239 H239       -5.1686  -20.8177  -54.9236 H         1 UNK         0.0600 
    240 H240       -2.4505  -18.8483  -54.5394 H         1 UNK         0.3000 
    241 H241       -0.3311  -20.4722  -55.6433 H         1 UNK         0.0600 
    242 H242       -1.5148  -17.2777  -56.6108 H         1 UNK         0.3800 
    243 H243       -0.0890  -16.8750  -57.5325 H         1 UNK         0.3800 
    244 H244        1.1083  -19.2800  -53.9553 H         1 UNK         0.0800 
    245 H245       -0.2305  -18.2400  -53.5538 H         1 UNK         0.0800 
    246 H246        0.6876  -22.3041  -51.8666 H         1 UNK         0.0800 
    247 H247        1.5773  -21.4794  -53.1186 H         1 UNK         0.0800 
@<TRIPOS>BOND
     1    1    2 1    
     2    1  127 1    
     3    1  128 1    
     4    1  129 1    
     5    2    3 2    
     6    2    4 am   BACKBONE|DICT|INTERRES
     7    4    5 1    
     8    4  130 1    
     9    5    6 1    
    10    5   65 1    
    11    5  131 1    
    12    6    7 1    
    13    6  132 1    
    14    6  133 1    
    15    7    8 1    
    16    8    9 1    
    17    8  134 1    
    18    8  135 1    
    19    9   10 ar   
    20    9   14 ar   
    21   10   11 ar   
    22   10  136 1    
    23   11   12 ar   
    24   11  126 1    
    25   12   13 ar   
    26   12  137 1    
    27   13   14 ar   
    28   13   15 1    
    29   14  138 1    
    30   15   16 1    
    31   15  139 1    
    32   15  140 1    
    33   16   17 1    
    34   17   18 1    
    35   17  141 1    
    36   17  142 1    
    37   18   19 1    
    38   18   67 1    
    39   18  143 1    
    40   19   20 am   BACKBONE|DICT|INTERRES
    41   19  144 1    
    42   20   21 2    
    43   20   22 1    
    44   22   23 1    
    45   22   24 1    
    46   22  145 1    
    47   23  146 1    
    48   23  147 1    
    49   23  148 1    
    50   24   25 am   BACKBONE|DICT|INTERRES
    51   24  149 1    
    52   25   26 2    
    53   25   27 1    
    54   27   28 1    
    55   27   29 1    
    56   27  150 1    
    57   28  151 1    
    58   28  152 1    
    59   28  153 1    
    60   29   30 am   BACKBONE|DICT|INTERRES
    61   29  154 1    
    62   30   31 2    
    63   30   32 1    
    64   32   33 1    
    65   32   34 1    
    66   32  155 1    
    67   33  156 1    
    68   33  157 1    
    69   33  158 1    
    70   34   35 am   BACKBONE|DICT|INTERRES
    71   34  159 1    
    72   35   36 2    
    73   35   37 1    
    74   37   38 1    
    75   37   39 1    
    76   37  160 1    
    77   38  161 1    
    78   38  162 1    
    79   38  163 1    
    80   39   40 am   BACKBONE|DICT|INTERRES
    81   39  164 1    
    82   40   41 2    
    83   40   42 1    
    84   42   43 1    
    85   42   44 1    
    86   42  165 1    
    87   43  166 1    
    88   43  167 1    
    89   43  168 1    
    90   44   45 am   BACKBONE|DICT|INTERRES
    91   44  169 1    
    92   45   46 2    
    93   45   47 1    
    94   47   48 1    
    95   47   49 1    
    96   47  170 1    
    97   48  171 1    
    98   48  172 1    
    99   48  173 1    
   100   49   50 am   BACKBONE|DICT|INTERRES
   101   49  174 1    
   102   50   51 2    
   103   50   52 1    
   104   52   53 1    
   105   52   54 1    
   106   52  175 1    
   107   53  176 1    
   108   53  177 1    
   109   53  178 1    
   110   54   55 am   BACKBONE|DICT|INTERRES
   111   54  179 1    
   112   55   56 2    
   113   55   57 1    
   114   57   58 1    
   115   57   59 1    
   116   57  180 1    
   117   58  181 1    
   118   58  182 1    
   119   58  183 1    
   120   59   60 am   BACKBONE|DICT|INTERRES
   121   59  184 1    
   122   60   61 2    
   123   60   62 1    
   124   62   63 1    
   125   62   64 1    
   126   62  185 1    
   127   63  186 1    
   128   63  187 1    
   129   63  188 1    
   130   64   65 am   BACKBONE|DICT|INTERRES
   131   64  189 1    
   132   65   66 2    
   133   67   68 2    
   134   67   69 am   BACKBONE|DICT|INTERRES
   135   69   70 1    
   136   69  190 1    
   137   70   71 1    
   138   70   72 1    
   139   70  191 1    
   140   71  192 1    
   141   71  193 1    
   142   71  194 1    
   143   72   73 2    
   144   72   74 am   BACKBONE|DICT|INTERRES
   145   74   75 1    
   146   74  195 1    
   147   75   76 1    
   148   75   77 1    
   149   75  196 1    
   150   76  197 1    
   151   76  198 1    
   152   76  199 1    
   153   77   78 2    
   154   77   79 am   BACKBONE|DICT|INTERRES
   155   79   80 1    
   156   79  200 1    
   157   80   81 1    
   158   80   82 1    
   159   80  201 1    
   160   81  202 1    
   161   81  203 1    
   162   81  204 1    
   163   82   83 2    
   164   82   84 am   BACKBONE|DICT|INTERRES
   165   84   85 1    
   166   84  205 1    
   167   85   86 1    
   168   85   87 1    
   169   85  206 1    
   170   86  207 1    
   171   86  208 1    
   172   86  209 1    
   173   87   88 2    
   174   87   89 am   BACKBONE|DICT|INTERRES
   175   89   90 1    
   176   89  210 1    
   177   90   91 1    
   178   90   92 1    
   179   90  211 1    
   180   91  212 1    
   181   91  213 1    
   182   91  214 1    
   183   92   93 2    
   184   92   94 am   BACKBONE|DICT|INTERRES
   185   94   95 1    
   186   94  215 1    
   187   95   96 1    
   188   95   97 1    
   189   95  216 1    
   190   96  217 1    
   191   96  218 1    
   192   96  219 1    
   193   97   98 2    
   194   97   99 am   BACKBONE|DICT|INTERRES
   195   99  100 1    
   196   99  220 1    
   197  100  101 1    
   198  100  102 1    
   199  100  221 1    
   200  101  222 1    
   201  101  223 1    
   202  101  224 1    
   203  102  103 2    
   204  102  104 am   BACKBONE|DICT|INTERRES
   205  104  105 1    
   206  104  225 1    
   207  105  106 1    
   208  105  107 1    
   209  105  226 1    
   210  106  227 1    
   211  106  228 1    
   212  106  229 1    
   213  107  108 2    
   214  107  109 am   BACKBONE|DICT|INTERRES
   215  109  110 1    
   216  109  230 1    
   217  110  111 1    
   218  110  112 1    
   219  110  231 1    
   220  111  232 1    
   221  111  233 1    
   222  111  234 1    
   223  112  113 2    
   224  112  114 am   BACKBONE|DICT|INTERRES
   225  114  115 1    
   226  114  235 1    
   227  115  116 1    
   228  115  117 1    
   229  115  236 1    
   230  116  237 1    
   231  116  238 1    
   232  116  239 1    
   233  117  118 2    
   234  117  119 am   BACKBONE|DICT|INTERRES
   235  119  120 1    
   236  119  240 1    
   237  120  121 1    
   238  120  124 1    
   239  120  241 1    
   240  121  122 am   BACKBONE|DICT|INTERRES
   241  121  123 2    
   242  122  242 1    
   243  122  243 1    
   244  124  125 1    
   245  124  244 1    
   246  124  245 1    
   247  125  126 1    
   248  126  246 1    
   249  126  247 1    
@<TRIPOS>SUBSTRUCTURE
     1 UNK         1 GROUP             0       ****    0 ROOT    
