@<TRIPOS>MOLECULE
3R540
247   249    1
SMALL
USER_CHARGES


@<TRIPOS>ATOM
      1 CA         -0.6157  -10.8035  -50.8216 C.3       0 UNK        -0.1800 
      2 C          -0.5307  -11.3321  -49.3969 C.2       0 UNK         0.5000 
      3 O          -1.2716  -10.8724  -48.5282 O.2       0 UNK        -0.5000 
      4 N           0.3715  -12.2923  -49.1563 N.am      1 UNK        -0.5000 
      5 CA          0.5773  -12.9643  -47.8666 C.3       1 UNK         0.1400 
      6 C6          1.9162  -13.7450  -47.8128 C.3       23 UNK        -0.0398 
      7 S7          2.2864  -14.7372  -49.3040 S.3       23 UNK        -0.2404 
      8 C8          1.9018  -16.4184  -48.7388 C.3       23 UNK        -0.0205 
      9 C9          2.2261  -17.4402  -49.8155 C.ar      23 UNK        -0.0193 
     10 C10         1.3621  -17.6227  -50.8990 C.ar      23 UNK        -0.1150 
     11 C11         1.6511  -18.5704  -51.8861 C.ar      23 UNK        -0.0193 
     12 C12         2.8076  -19.3475  -51.7744 C.ar      23 UNK        -0.1150 
     13 C13         3.6808  -19.1706  -50.6981 C.ar      23 UNK        -0.0193 
     14 C14         3.3883  -18.2099  -49.7258 C.ar      23 UNK        -0.1150 
     15 C15         4.9425  -20.0137  -50.5904 C.3       23 UNK        -0.0205 
     16 S16         4.5899  -21.7230  -50.0696 S.3       23 UNK        -0.2404 
     17 C17         3.9781  -21.4764  -48.3673 C.3       23 UNK        -0.0398 
     18 CA          2.8366  -22.4434  -47.9748 C.3       11 UNK         0.1400 
     19 N           2.6070  -22.3929  -46.5294 N.am      11 UNK        -0.5000 
     20 C           2.7327  -23.4268  -45.6862 C.2       10 UNK         0.5000 
     21 O           3.0576  -24.5611  -46.0390 O.2       10 UNK        -0.5000 
     22 CA          2.4536  -23.1615  -44.1895 C.3       10 UNK         0.1400 
     23 CB          3.7735  -22.9651  -43.4280 C.3       10 UNK        -0.1800 
     24 N           1.5898  -22.0065  -43.9379 N.am      10 UNK        -0.5000 
     25 C           0.3217  -21.8923  -44.3522 C.2       9 UNK         0.5000 
     26 O          -0.2873  -22.7972  -44.9180 O.2       9 UNK        -0.5000 
     27 CA         -0.3643  -20.5270  -44.1637 C.3       9 UNK         0.1400 
     28 CB         -1.2385  -20.5305  -42.9027 C.3       9 UNK        -0.1800 
     29 N           0.5627  -19.3915  -44.1079 N.am      9 UNK        -0.5000 
     30 C           1.4107  -19.0191  -45.0783 C.2       8 UNK         0.5000 
     31 O           1.5539  -19.6309  -46.1358 O.2       8 UNK        -0.5000 
     32 CA          2.2679  -17.7765  -44.8012 C.3       8 UNK         0.1400 
     33 CB          1.4307  -16.4907  -44.9098 C.3       8 UNK        -0.1800 
     34 N           2.8847  -17.8615  -43.4801 N.am      8 UNK        -0.5000 
     35 C           3.9706  -18.5976  -43.2034 C.2       7 UNK         0.5000 
     36 O           4.6191  -19.2068  -44.0541 O.2       7 UNK        -0.5000 
     37 CA          4.3929  -18.6866  -41.7240 C.3       7 UNK         0.1400 
     38 CB          5.3891  -17.5689  -41.3808 C.3       7 UNK        -0.1800 
     39 N           3.2608  -18.6201  -40.7977 N.am      7 UNK        -0.5000 
     40 C           2.3120  -19.5603  -40.6841 C.2       6 UNK         0.5000 
     41 O           2.3014  -20.6050  -41.3345 O.2       6 UNK        -0.5000 
     42 CA          1.1516  -19.2516  -39.7178 C.3       6 UNK         0.1400 
     43 CB          1.5097  -19.6891  -38.2897 C.3       6 UNK        -0.1800 
     44 N           0.7494  -17.8399  -39.7076 N.am      6 UNK        -0.5000 
     45 C           0.3214  -17.1597  -40.7788 C.2       5 UNK         0.5000 
     46 O           0.2600  -17.6409  -41.9139 O.2       5 UNK        -0.5000 
     47 CA         -0.0550  -15.6893  -40.5599 C.3       5 UNK         0.1400 
     48 CB          1.2032  -14.8128  -40.4429 C.3       5 UNK        -0.1800 
     49 N          -0.8412  -15.2484  -41.7048 N.am      5 UNK        -0.5000 
     50 C          -1.8837  -14.4142  -41.6762 C.2       4 UNK         0.5000 
     51 O          -2.2690  -13.8395  -40.6569 O.2       4 UNK        -0.5000 
     52 CA         -2.6253  -14.1740  -43.0078 C.3       4 UNK         0.1400 
     53 CB         -2.3144  -12.7688  -43.5459 C.3       4 UNK        -0.1800 
     54 N          -2.3263  -15.1607  -44.0533 N.am      4 UNK        -0.5000 
     55 C          -2.7584  -16.4313  -44.0514 C.2       3 UNK         0.5000 
     56 O          -3.4064  -16.9164  -43.1227 O.2       3 UNK        -0.5000 
     57 CA         -2.4052  -17.3078  -45.2778 C.3       3 UNK         0.1400 
     58 CB         -3.4199  -18.4515  -45.4913 C.3       3 UNK        -0.1800 
     59 N          -2.2023  -16.5578  -46.5263 N.am      3 UNK        -0.5000 
     60 C          -3.0976  -15.7710  -47.1423 C.2       2 UNK         0.5000 
     61 O          -4.2425  -15.5881  -46.7257 O.2       2 UNK        -0.5000 
     62 CA         -2.6272  -15.0630  -48.4361 C.3       2 UNK         0.1400 
     63 CB         -3.6202  -13.9785  -48.8989 C.3       2 UNK        -0.1800 
     64 N          -1.2746  -14.4802  -48.4312 N.am      2 UNK        -0.5000 
     65 C          -0.6328  -13.8278  -47.4466 C.2       1 UNK         0.5000 
     66 O          -0.9633  -13.8500  -46.2620 O.2       1 UNK        -0.5000 
     67 C           1.5234  -22.1655  -48.7403 C.2       11 UNK         0.5000 
     68 O           1.2301  -22.8600  -49.7140 O.2       11 UNK        -0.5000 
     69 N           0.7325  -21.1906  -48.2691 N.am      12 UNK        -0.5000 
     70 CA         -0.5551  -20.7910  -48.8443 C.3       12 UNK         0.1400 
     71 CB         -0.9335  -19.4151  -48.2733 C.3       12 UNK        -0.1800 
     72 C          -1.7000  -21.7939  -48.5999 C.2       12 UNK         0.5000 
     73 O          -2.7211  -21.7109  -49.2874 O.2       12 UNK        -0.5000 
     74 N          -1.5065  -22.7016  -47.6328 N.am      13 UNK        -0.5000 
     75 CA         -2.4551  -23.6647  -47.0682 C.3       13 UNK         0.1400 
     76 CB         -3.0989  -24.5466  -48.1550 C.3       13 UNK        -0.1800 
     77 C          -3.5127  -22.9921  -46.1729 C.2       13 UNK         0.5000 
     78 O          -3.6552  -21.7656  -46.1654 O.2       13 UNK        -0.5000 
     79 N          -4.2429  -23.8241  -45.4185 N.am      14 UNK        -0.5000 
     80 CA         -5.3440  -23.4137  -44.5475 C.3       14 UNK         0.1400 
     81 CB         -5.8928  -24.6431  -43.8082 C.3       14 UNK        -0.1800 
     82 C          -6.4561  -22.7158  -45.3491 C.2       14 UNK         0.5000 
     83 O          -6.8797  -23.2404  -46.3810 O.2       14 UNK        -0.5000 
     84 N          -6.8625  -21.5271  -44.8839 N.am      15 UNK        -0.5000 
     85 CA         -7.8322  -20.6241  -45.5171 C.3       15 UNK         0.1400 
     86 CB         -9.2467  -21.2415  -45.4883 C.3       15 UNK        -0.1800 
     87 C          -7.4183  -20.1510  -46.9310 C.2       15 UNK         0.5000 
     88 O          -8.2874  -19.7935  -47.7277 O.2       15 UNK        -0.5000 
     89 N          -6.1038  -20.1541  -47.2129 N.am      16 UNK        -0.5000 
     90 CA         -5.4687  -19.7765  -48.4806 C.3       16 UNK         0.1400 
     91 CB         -5.7174  -18.2840  -48.7910 C.3       16 UNK        -0.1800 
     92 C          -5.8505  -20.7058  -49.6542 C.2       16 UNK         0.5000 
     93 O          -5.8964  -20.2566  -50.8001 O.2       16 UNK        -0.5000 
     94 N          -6.1240  -21.9851  -49.3548 N.am      17 UNK        -0.5000 
     95 CA         -6.6231  -22.9790  -50.3083 C.3       17 UNK         0.1400 
     96 CB         -6.9800  -24.2718  -49.5597 C.3       17 UNK        -0.1800 
     97 C          -5.6827  -23.2789  -51.4921 C.2       17 UNK         0.5000 
     98 O          -6.1761  -23.5392  -52.5900 O.2       17 UNK        -0.5000 
     99 N          -4.3619  -23.2271  -51.2691 N.am      18 UNK        -0.5000 
    100 CA        -3.3591  -23.3885  -52.3239 C.3       18 UNK         0.1400 
    101 CB        -2.0916  -24.0467  -51.7598 C.3       18 UNK        -0.1800 
    102 C         -3.0312  -22.0388  -52.9775 C.2       18 UNK         0.5000 
    103 O         -2.8249  -21.9870  -54.1905 O.2       18 UNK        -0.5000 
    104 N         -3.0331  -20.9605  -52.1799 N.am      19 UNK        -0.5000 
    105 CA        -2.7960  -19.5836  -52.6225 C.3       19 UNK         0.1400 
    106 CB        -2.5556  -18.6777  -51.4077 C.3       19 UNK        -0.1800 
    107 C         -3.8651  -19.0039  -53.5643 C.2       19 UNK         0.5000 
    108 O         -3.5899  -18.0161  -54.2456 O.2       19 UNK        -0.5000 
    109 N         -5.0287  -19.6606  -53.6452 N.am      20 UNK        -0.5000 
    110 CA        -6.0481  -19.4484  -54.6727 C.3       20 UNK         0.1400 
    111 CB        -7.2560  -20.3443  -54.3602 C.3       20 UNK        -0.1800 
    112 C         -5.5336  -19.7101  -56.1068 C.2       20 UNK         0.5000 
    113 O         -6.0624  -19.1189  -57.0492 O.2       20 UNK        -0.5000 
    114 N         -4.5089  -20.5650  -56.2417 N.am      21 UNK        -0.5000 
    115 CA        -3.7829  -20.8206  -57.4832 C.3       21 UNK         0.1400 
    116 CB        -3.7794  -22.3319  -57.7667 C.3       21 UNK        -0.1800 
    117 C         -2.3465  -20.2761  -57.3928 C.2       21 UNK         0.5000 
    118 O         -1.9239  -19.5371  -58.2825 O.2       21 UNK        -0.5000 
    119 N         -1.6250  -20.6487  -56.3244 N.am      22 UNK        -0.5000 
    120 CA        -0.2057  -20.3310  -56.0771 C.3       22 UNK         0.1400 
    121 C          0.7824  -20.9326  -57.1291 C.2       22 UNK         0.5000 
    122 N          0.4353  -22.0289  -57.7934 N.am      22 UNK        -0.7600 
    123 O          1.8790  -20.4237  -57.3431 O.2       22 UNK        -0.5000 
    124 C124        0.0184  -18.8193  -55.7771 C.3       23 UNK        -0.0398 
    125 S125        1.4408  -18.4923  -54.6715 S.3       23 UNK        -0.2404 
    126 C126        0.6883  -18.7887  -53.0421 C.3       23 UNK        -0.0205 
    127 H127       -0.4190   -9.7315  -50.8368 H         1 UNK         0.0600 
    128 H128       -1.6137  -10.9742  -51.2253 H         1 UNK         0.0600 
    129 H129        0.1049  -11.2909  -51.4789 H         1 UNK         0.0600 
    130 H130        0.9608  -12.6222  -49.9085 H         1 UNK         0.3000 
    131 H131        0.6479  -12.1759  -47.1137 H         1 UNK         0.0600 
    132 H132        1.9796  -14.3648  -46.9180 H         1 UNK         0.0800 
    133 H133        2.7300  -13.0256  -47.7129 H         1 UNK         0.0800 
    134 H134        2.4693  -16.6345  -47.8329 H         1 UNK         0.0800 
    135 H135        0.8469  -16.4844  -48.4735 H         1 UNK         0.0800 
    136 H136        0.4637  -17.0258  -50.9687 H         1 UNK         0.1150 
    137 H137        3.0277  -20.0929  -52.5258 H         1 UNK         0.1150 
    138 H138        4.0619  -18.0668  -48.8925 H         1 UNK         0.1150 
    139 H139        5.4415  -20.0370  -51.5602 H         1 UNK         0.0800 
    140 H140        5.6521  -19.5636  -49.8942 H         1 UNK         0.0800 
    141 H141        3.6677  -20.4444  -48.2080 H         1 UNK         0.0800 
    142 H142        4.8299  -21.6303  -47.7033 H         1 UNK         0.0800 
    143 H143        3.1508  -23.4502  -48.2580 H         1 UNK         0.0600 
    144 H144        2.3248  -21.4944  -46.1540 H         1 UNK         0.3000 
    145 H145        1.9535  -24.0454  -43.7887 H         1 UNK         0.0600 
    146 H146        3.6004  -22.8739  -42.3556 H         1 UNK         0.0600 
    147 H147        4.4432  -23.8131  -43.5768 H         1 UNK         0.0600 
    148 H148        4.2982  -22.0683  -43.7601 H         1 UNK         0.0600 
    149 H149        1.9911  -21.2458  -43.4029 H         1 UNK         0.3000 
    150 H150       -1.0184  -20.3765  -45.0240 H         1 UNK         0.0600 
    151 H151       -2.0050  -21.3043  -42.9633 H         1 UNK         0.0600 
    152 H152       -1.7489  -19.5763  -42.7692 H         1 UNK         0.0600 
    153 H153       -0.6461  -20.7227  -42.0086 H         1 UNK         0.0600 
    154 H154        0.5170  -18.8227  -43.2646 H         1 UNK         0.3000 
    155 H155        3.0523  -17.7327  -45.5600 H         1 UNK         0.0600 
    156 H156        0.6386  -16.4479  -44.1646 H         1 UNK         0.0600 
    157 H157        0.9546  -16.4139  -45.8867 H         1 UNK         0.0600 
    158 H158        2.0542  -15.6065  -44.7783 H         1 UNK         0.0600 
    159 H159        2.3751  -17.4448  -42.7140 H         1 UNK         0.3000 
    160 H160        4.8919  -19.6474  -41.5805 H         1 UNK         0.0600 
    161 H161        4.9381  -16.5811  -41.4840 H         1 UNK         0.0600 
    162 H162        6.2575  -17.6040  -42.0402 H         1 UNK         0.0600 
    163 H163        5.7550  -17.6667  -40.3586 H         1 UNK         0.0600 
    164 H164        3.1883  -17.7931  -40.2239 H         1 UNK         0.3000 
    165 H165        0.2893  -19.8359  -40.0426 H         1 UNK         0.0600 
    166 H166        0.6620  -19.5670  -37.6153 H         1 UNK         0.0600 
    167 H167        1.7942  -20.7419  -38.2637 H         1 UNK         0.0600 
    168 H168        2.3446  -19.1132  -37.8887 H         1 UNK         0.0600 
    169 H169        0.7839  -17.3718  -38.8133 H         1 UNK         0.3000 
    170 H170       -0.6464  -15.6183  -39.6447 H         1 UNK         0.0600 
    171 H171        1.8140  -15.1093  -39.5896 H         1 UNK         0.0600 
    172 H172        1.8263  -14.8823  -41.3357 H         1 UNK         0.0600 
    173 H173        0.9390  -13.7646  -40.3022 H         1 UNK         0.0600 
    174 H174       -0.6419  -15.7422  -42.5635 H         1 UNK         0.3000 
    175 H175       -3.6950  -14.2239  -42.7947 H         1 UNK         0.0600 
    176 H176       -1.2532  -12.6513  -43.7688 H         1 UNK         0.0600 
    177 H177       -2.8732  -12.5633  -44.4593 H         1 UNK         0.0600 
    178 H178       -2.5847  -12.0010  -42.8199 H         1 UNK         0.0600 
    179 H179       -1.8203  -14.8111  -44.8642 H         1 UNK         0.3000 
    180 H180       -1.4446  -17.7640  -45.0457 H         1 UNK         0.0600 
    181 H181       -3.1648  -19.0537  -46.3612 H         1 UNK         0.0600 
    182 H182       -4.4319  -18.0724  -45.6343 H         1 UNK         0.0600 
    183 H183       -3.4437  -19.1246  -44.6338 H         1 UNK         0.0600 
    184 H184       -1.2782  -16.6073  -46.9266 H         1 UNK         0.3000 
    185 H185       -2.6164  -15.8402  -49.2019 H         1 UNK         0.0600 
    186 H186       -4.6234  -14.3859  -49.0305 H         1 UNK         0.0600 
    187 H187       -3.6839  -13.1643  -48.1758 H         1 UNK         0.0600 
    188 H188       -3.3205  -13.5506  -49.8556 H         1 UNK         0.0600 
    189 H189       -0.8553  -14.4032  -49.3469 H         1 UNK         0.3000 
    190 H190        1.0522  -20.6339  -47.4785 H         1 UNK         0.3000 
    191 H191       -0.4321  -20.6985  -49.9251 H         1 UNK         0.0600 
    192 H192       -1.9184  -19.0936  -48.6113 H         1 UNK         0.0600 
    193 H193       -0.2172  -18.6551  -48.5795 H         1 UNK         0.0600 
    194 H194       -0.9586  -19.4299  -47.1851 H         1 UNK         0.0600 
    195 H195       -0.6465  -22.6280  -47.1058 H         1 UNK         0.3000 
    196 H196       -1.8621  -24.3167  -46.4258 H         1 UNK         0.0600 
    197 H197       -3.8397  -23.9965  -48.7305 H         1 UNK         0.0600 
    198 H198       -2.3500  -24.9372  -48.8433 H         1 UNK         0.0600 
    199 H199       -3.6095  -25.4031  -47.7143 H         1 UNK         0.0600 
    200 H200       -4.0823  -24.8175  -45.4924 H         1 UNK         0.3000 
    201 H201       -4.9415  -22.7170  -43.8092 H         1 UNK         0.0600 
    202 H202       -6.2835  -25.3887  -44.5021 H         1 UNK         0.0600 
    203 H203       -6.7051  -24.3631  -43.1362 H         1 UNK         0.0600 
    204 H204       -5.1204  -25.1183  -43.2032 H         1 UNK         0.0600 
    205 H205       -6.4363  -21.1740  -44.0382 H         1 UNK         0.3000 
    206 H206       -7.8553  -19.7252  -44.8995 H         1 UNK         0.0600 
    207 H207       -9.5168  -21.5626  -44.4824 H         1 UNK         0.0600 
    208 H208       -9.9975  -20.5180  -45.8077 H         1 UNK         0.0600 
    209 H209       -9.3251  -22.1055  -46.1489 H         1 UNK         0.0600 
    210 H210       -5.4667  -20.5159  -46.5126 H         1 UNK         0.3000 
    211 H211       -4.3973  -19.9042  -48.3286 H         1 UNK         0.0600 
    212 H212       -5.1124  -17.9405  -49.6285 H         1 UNK         0.0600 
    213 H213       -5.4687  -17.6590  -47.9350 H         1 UNK         0.0600 
    214 H214       -6.7582  -18.0916  -49.0514 H         1 UNK         0.0600 
    215 H215       -6.0913  -22.2692  -48.3842 H         1 UNK         0.3000 
    216 H216       -7.5452  -22.5767  -50.7329 H         1 UNK         0.0600 
    217 H217       -6.1213  -24.6851  -49.0305 H         1 UNK         0.0600 
    218 H218       -7.3425  -25.0372  -50.2471 H         1 UNK         0.0600 
    219 H219       -7.7698  -24.0962  -48.8291 H         1 UNK         0.0600 
    220 H220       -4.0224  -22.9395  -50.3578 H         1 UNK         0.3000 
    221 H221       -3.7477  -24.0477  -53.1031 H         1 UNK         0.0600 
    222 H222       -1.3597  -24.2162  -52.5505 H         1 UNK         0.0600 
    223 H223       -2.3172  -25.0159  -51.3155 H         1 UNK         0.0600 
    224 H224       -1.6090  -23.4322  -51.0013 H         1 UNK         0.0600 
    225 H225       -3.2036  -21.0982  -51.1900 H         1 UNK         0.3000 
    226 H226       -1.8905  -19.6028  -53.2237 H         1 UNK         0.0600 
    227 H227       -1.5856  -18.8862  -50.9619 H         1 UNK         0.0600 
    228 H228       -2.5578  -17.6220  -51.6825 H         1 UNK         0.0600 
    229 H229       -3.3172  -18.8250  -50.6451 H         1 UNK         0.0600 
    230 H230       -5.2057  -20.3935  -52.9701 H         1 UNK         0.3000 
    231 H231       -6.3657  -18.4053  -54.6184 H         1 UNK         0.0600 
    232 H232       -6.9888  -21.4016  -54.3878 H         1 UNK         0.0600 
    233 H233       -8.0573  -20.1877  -55.0834 H         1 UNK         0.0600 
    234 H234       -7.6621  -20.1281  -53.3716 H         1 UNK         0.0600 
    235 H235       -4.1272  -20.9953  -55.4071 H         1 UNK         0.3000 
    236 H236       -4.2706  -20.3239  -58.3245 H         1 UNK         0.0600 
    237 H237       -4.7941  -22.7042  -57.9085 H         1 UNK         0.0600 
    238 H238       -3.2205  -22.5582  -58.6755 H         1 UNK         0.0600 
    239 H239       -3.3291  -22.8989  -56.9510 H         1 UNK         0.0600 
    240 H240       -2.0572  -21.2545  -55.6296 H         1 UNK         0.3000 
    241 H241        0.0227  -20.8765  -55.1614 H         1 UNK         0.0600 
    242 H242        1.0727  -22.4203  -58.4691 H         1 UNK         0.3800 
    243 H243       -0.4540  -22.4719  -57.6283 H         1 UNK         0.3800 
    244 H244       -0.8698  -18.3906  -55.3109 H         1 UNK         0.0800 
    245 H245        0.1555  -18.2617  -56.7049 H         1 UNK         0.0800 
    246 H246       -0.1721  -18.1272  -52.9414 H         1 UNK         0.0800 
    247 H247        0.3274  -19.8161  -52.9916 H         1 UNK         0.0800 
@<TRIPOS>BOND
     1    1    2 1    
     2    1  127 1    
     3    1  128 1    
     4    1  129 1    
     5    2    3 2    
     6    2    4 am   BACKBONE|DICT|INTERRES
     7    4    5 1    
     8    4  130 1    
     9    5    6 1    
    10    5   65 1    
    11    5  131 1    
    12    6    7 1    
    13    6  132 1    
    14    6  133 1    
    15    7    8 1    
    16    8    9 1    
    17    8  134 1    
    18    8  135 1    
    19    9   10 ar   
    20    9   14 ar   
    21   10   11 ar   
    22   10  136 1    
    23   11   12 ar   
    24   11  126 1    
    25   12   13 ar   
    26   12  137 1    
    27   13   14 ar   
    28   13   15 1    
    29   14  138 1    
    30   15   16 1    
    31   15  139 1    
    32   15  140 1    
    33   16   17 1    
    34   17   18 1    
    35   17  141 1    
    36   17  142 1    
    37   18   19 1    
    38   18   67 1    
    39   18  143 1    
    40   19   20 am   BACKBONE|DICT|INTERRES
    41   19  144 1    
    42   20   21 2    
    43   20   22 1    
    44   22   23 1    
    45   22   24 1    
    46   22  145 1    
    47   23  146 1    
    48   23  147 1    
    49   23  148 1    
    50   24   25 am   BACKBONE|DICT|INTERRES
    51   24  149 1    
    52   25   26 2    
    53   25   27 1    
    54   27   28 1    
    55   27   29 1    
    56   27  150 1    
    57   28  151 1    
    58   28  152 1    
    59   28  153 1    
    60   29   30 am   BACKBONE|DICT|INTERRES
    61   29  154 1    
    62   30   31 2    
    63   30   32 1    
    64   32   33 1    
    65   32   34 1    
    66   32  155 1    
    67   33  156 1    
    68   33  157 1    
    69   33  158 1    
    70   34   35 am   BACKBONE|DICT|INTERRES
    71   34  159 1    
    72   35   36 2    
    73   35   37 1    
    74   37   38 1    
    75   37   39 1    
    76   37  160 1    
    77   38  161 1    
    78   38  162 1    
    79   38  163 1    
    80   39   40 am   BACKBONE|DICT|INTERRES
    81   39  164 1    
    82   40   41 2    
    83   40   42 1    
    84   42   43 1    
    85   42   44 1    
    86   42  165 1    
    87   43  166 1    
    88   43  167 1    
    89   43  168 1    
    90   44   45 am   BACKBONE|DICT|INTERRES
    91   44  169 1    
    92   45   46 2    
    93   45   47 1    
    94   47   48 1    
    95   47   49 1    
    96   47  170 1    
    97   48  171 1    
    98   48  172 1    
    99   48  173 1    
   100   49   50 am   BACKBONE|DICT|INTERRES
   101   49  174 1    
   102   50   51 2    
   103   50   52 1    
   104   52   53 1    
   105   52   54 1    
   106   52  175 1    
   107   53  176 1    
   108   53  177 1    
   109   53  178 1    
   110   54   55 am   BACKBONE|DICT|INTERRES
   111   54  179 1    
   112   55   56 2    
   113   55   57 1    
   114   57   58 1    
   115   57   59 1    
   116   57  180 1    
   117   58  181 1    
   118   58  182 1    
   119   58  183 1    
   120   59   60 am   BACKBONE|DICT|INTERRES
   121   59  184 1    
   122   60   61 2    
   123   60   62 1    
   124   62   63 1    
   125   62   64 1    
   126   62  185 1    
   127   63  186 1    
   128   63  187 1    
   129   63  188 1    
   130   64   65 am   BACKBONE|DICT|INTERRES
   131   64  189 1    
   132   65   66 2    
   133   67   68 2    
   134   67   69 am   BACKBONE|DICT|INTERRES
   135   69   70 1    
   136   69  190 1    
   137   70   71 1    
   138   70   72 1    
   139   70  191 1    
   140   71  192 1    
   141   71  193 1    
   142   71  194 1    
   143   72   73 2    
   144   72   74 am   BACKBONE|DICT|INTERRES
   145   74   75 1    
   146   74  195 1    
   147   75   76 1    
   148   75   77 1    
   149   75  196 1    
   150   76  197 1    
   151   76  198 1    
   152   76  199 1    
   153   77   78 2    
   154   77   79 am   BACKBONE|DICT|INTERRES
   155   79   80 1    
   156   79  200 1    
   157   80   81 1    
   158   80   82 1    
   159   80  201 1    
   160   81  202 1    
   161   81  203 1    
   162   81  204 1    
   163   82   83 2    
   164   82   84 am   BACKBONE|DICT|INTERRES
   165   84   85 1    
   166   84  205 1    
   167   85   86 1    
   168   85   87 1    
   169   85  206 1    
   170   86  207 1    
   171   86  208 1    
   172   86  209 1    
   173   87   88 2    
   174   87   89 am   BACKBONE|DICT|INTERRES
   175   89   90 1    
   176   89  210 1    
   177   90   91 1    
   178   90   92 1    
   179   90  211 1    
   180   91  212 1    
   181   91  213 1    
   182   91  214 1    
   183   92   93 2    
   184   92   94 am   BACKBONE|DICT|INTERRES
   185   94   95 1    
   186   94  215 1    
   187   95   96 1    
   188   95   97 1    
   189   95  216 1    
   190   96  217 1    
   191   96  218 1    
   192   96  219 1    
   193   97   98 2    
   194   97   99 am   BACKBONE|DICT|INTERRES
   195   99  100 1    
   196   99  220 1    
   197  100  101 1    
   198  100  102 1    
   199  100  221 1    
   200  101  222 1    
   201  101  223 1    
   202  101  224 1    
   203  102  103 2    
   204  102  104 am   BACKBONE|DICT|INTERRES
   205  104  105 1    
   206  104  225 1    
   207  105  106 1    
   208  105  107 1    
   209  105  226 1    
   210  106  227 1    
   211  106  228 1    
   212  106  229 1    
   213  107  108 2    
   214  107  109 am   BACKBONE|DICT|INTERRES
   215  109  110 1    
   216  109  230 1    
   217  110  111 1    
   218  110  112 1    
   219  110  231 1    
   220  111  232 1    
   221  111  233 1    
   222  111  234 1    
   223  112  113 2    
   224  112  114 am   BACKBONE|DICT|INTERRES
   225  114  115 1    
   226  114  235 1    
   227  115  116 1    
   228  115  117 1    
   229  115  236 1    
   230  116  237 1    
   231  116  238 1    
   232  116  239 1    
   233  117  118 2    
   234  117  119 am   BACKBONE|DICT|INTERRES
   235  119  120 1    
   236  119  240 1    
   237  120  121 1    
   238  120  124 1    
   239  120  241 1    
   240  121  122 am   BACKBONE|DICT|INTERRES
   241  121  123 2    
   242  122  242 1    
   243  122  243 1    
   244  124  125 1    
   245  124  244 1    
   246  124  245 1    
   247  125  126 1    
   248  126  246 1    
   249  126  247 1    
@<TRIPOS>SUBSTRUCTURE
     1 UNK         1 GROUP             0       ****    0 ROOT    
