@<TRIPOS>MOLECULE
3R540
247   249    1
SMALL
USER_CHARGES


@<TRIPOS>ATOM
      1 CA         -2.3273  -17.1955  -42.0377 C.3       0 UNK        -0.1800 
      2 C          -1.6817  -15.8251  -41.8876 C.2       0 UNK         0.5000 
      3 O          -1.1847  -15.4907  -40.8116 O.2       0 UNK        -0.5000 
      4 N          -1.6763  -15.0357  -42.9676 N.am      1 UNK        -0.5000 
      5 CA         -1.1039  -13.6876  -43.0783 C.3       1 UNK         0.1400 
      6 C6         -1.7409  -12.8975  -44.2530 C.3       23 UNK        -0.0398 
      7 S7         -3.5626  -12.8211  -44.1273 S.3       23 UNK        -0.2404 
      8 C8         -4.0872  -12.7759  -45.8746 C.3       23 UNK        -0.0205 
      9 C9         -3.6900  -14.0131  -46.6740 C.ar      23 UNK        -0.0193 
     10 C10        -2.9493  -13.8688  -47.8503 C.ar      23 UNK        -0.1150 
     11 C11        -2.5923  -14.9874  -48.6055 C.ar      23 UNK        -0.0193 
     12 C12        -2.9837  -16.2587  -48.1785 C.ar      23 UNK        -0.1150 
     13 C13        -3.7165  -16.4294  -46.9963 C.ar      23 UNK        -0.0193 
     14 C14        -4.0745  -15.2938  -46.2593 C.ar      23 UNK        -0.1150 
     15 C15        -4.1158  -17.8061  -46.4546 C.3       23 UNK        -0.0205 
     16 S16        -3.4444  -19.2516  -47.3553 S.3       23 UNK        -0.2404 
     17 C17        -3.6923  -20.5615  -46.1121 C.3       23 UNK        -0.0398 
     18 CA         -3.0565  -21.9096  -46.5284 C.3       11 UNK         0.1400 
     19 N          -1.6020  -21.8312  -46.7391 N.am      11 UNK        -0.5000 
     20 C          -0.8607  -22.8112  -47.2843 C.2       10 UNK         0.5000 
     21 O          -1.3306  -23.9027  -47.6049 O.2       10 UNK        -0.5000 
     22 CA          0.6461  -22.5657  -47.4966 C.3       10 UNK         0.1400 
     23 CB          0.9324  -22.2625  -48.9747 C.3       10 UNK        -0.1800 
     24 N           1.1871  -21.4858  -46.6734 N.am      10 UNK        -0.5000 
     25 C           1.3724  -21.5565  -45.3458 C.2       9 UNK         0.5000 
     26 O           1.1512  -22.5699  -44.6822 O.2       9 UNK        -0.5000 
     27 CA          1.8373  -20.2678  -44.6315 C.3       9 UNK         0.1400 
     28 CB          3.3630  -20.2657  -44.4581 C.3       9 UNK        -0.1800 
     29 N           1.4378  -19.0423  -45.3276 N.am      9 UNK        -0.5000 
     30 C           0.1700  -18.7025  -45.6016 C.2       8 UNK         0.5000 
     31 O          -0.7991  -19.3305  -45.1787 O.2       8 UNK        -0.5000 
     32 CA         -0.0688  -17.5001  -46.5337 C.3       8 UNK         0.1400 
     33 CB         -0.5561  -16.3049  -45.7147 C.3       8 UNK        -0.1800 
     34 N           1.0929  -17.0741  -47.3092 N.am      8 UNK        -0.5000 
     35 C           1.7987  -17.8079  -48.1799 C.2       7 UNK         0.5000 
     36 O           1.5153  -18.9661  -48.4855 O.2       7 UNK        -0.5000 
     37 CA          3.0633  -17.1427  -48.7620 C.3       7 UNK         0.1400 
     38 CB          2.8061  -16.6805  -50.2039 C.3       7 UNK        -0.1800 
     39 N           3.5322  -15.9964  -47.9728 N.am      7 UNK        -0.5000 
     40 C           3.9674  -16.0342  -46.7062 C.2       6 UNK         0.5000 
     41 O           4.0830  -17.0772  -46.0618 O.2       6 UNK        -0.5000 
     42 CA          4.2384  -14.6843  -46.0117 C.3       6 UNK         0.1400 
     43 CB          5.6512  -14.1594  -46.3263 C.3       6 UNK        -0.1800 
     44 N           3.2117  -13.6559  -46.2490 N.am      6 UNK        -0.5000 
     45 C           2.9157  -13.0051  -47.3872 C.2       5 UNK         0.5000 
     46 O           3.4688  -13.2193  -48.4659 O.2       5 UNK        -0.5000 
     47 CA          1.8035  -11.9480  -47.3128 C.3       5 UNK         0.1400 
     48 CB          0.4341  -12.6087  -47.5252 C.3       5 UNK        -0.1800 
     49 N           1.8234  -11.2713  -46.0166 N.am      5 UNK        -0.5000 
     50 C           2.2444  -10.0160  -45.8199 C.2       4 UNK         0.5000 
     51 O           2.5541   -9.2392  -46.7245 O.2       4 UNK        -0.5000 
     52 CA          2.3758   -9.5662  -44.3547 C.3       4 UNK         0.1400 
     53 CB          0.9973   -9.4274  -43.6888 C.3       4 UNK        -0.1800 
     54 N           3.2018  -10.4829  -43.5699 N.am      4 UNK        -0.5000 
     55 C           4.5112  -10.7062  -43.7418 C.2       3 UNK         0.5000 
     56 O           5.1965  -10.1206  -44.5803 O.2       3 UNK        -0.5000 
     57 CA          5.1785  -11.7689  -42.8407 C.3       3 UNK         0.1400 
     58 CB          5.6724  -11.1477  -41.5202 C.3       3 UNK        -0.1800 
     59 N           4.3658  -12.9725  -42.6028 N.am      3 UNK        -0.5000 
     60 C           3.2089  -13.0835  -41.9367 C.2       2 UNK         0.5000 
     61 O           2.6626  -12.1542  -41.3372 O.2       2 UNK        -0.5000 
     62 CA          2.5227  -14.4599  -41.9919 C.3       2 UNK         0.1400 
     63 CB          2.8203  -15.2692  -40.7218 C.3       2 UNK        -0.1800 
     64 N           1.0748  -14.3353  -42.1515 N.am      2 UNK        -0.5000 
     65 C           0.4419  -13.7347  -43.1672 C.2       1 UNK         0.5000 
     66 O           1.0322  -13.2677  -44.1471 O.2       1 UNK        -0.5000 
     67 C          -3.4677  -23.0238  -45.5411 C.2       11 UNK         0.5000 
     68 O          -4.5953  -23.5131  -45.6220 O.2       11 UNK        -0.5000 
     69 N          -2.5395  -23.4416  -44.6679 N.am      12 UNK        -0.5000 
     70 CA         -2.6872  -24.5817  -43.7630 C.3       12 UNK         0.1400 
     71 CB         -1.4721  -24.6321  -42.8251 C.3       12 UNK        -0.1800 
     72 C          -2.8603  -25.9289  -44.4948 C.2       12 UNK         0.5000 
     73 O          -3.5126  -26.8256  -43.9590 O.2       12 UNK        -0.5000 
     74 N          -2.3185  -26.0447  -45.7162 N.am      13 UNK        -0.5000 
     75 CA         -2.4482  -27.2126  -46.5868 C.3       13 UNK         0.1400 
     76 CB         -1.1851  -27.3298  -47.4596 C.3       13 UNK        -0.1800 
     77 C          -3.7431  -27.1314  -47.4195 C.2       13 UNK         0.5000 
     78 O          -3.6877  -27.1434  -48.6501 O.2       13 UNK        -0.5000 
     79 N          -4.8865  -27.0189  -46.7272 N.am      14 UNK        -0.5000 
     80 CA         -6.2515  -26.9577  -47.2652 C.3       14 UNK         0.1400 
     81 CB         -6.6607  -28.3353  -47.8273 C.3       14 UNK        -0.1800 
     82 C          -6.4411  -25.8163  -48.2864 C.2       14 UNK         0.5000 
     83 O          -6.8408  -26.0642  -49.4254 O.2       14 UNK        -0.5000 
     84 N          -6.0993  -24.5890  -47.8643 N.am      15 UNK        -0.5000 
     85 CA         -6.0885  -23.3584  -48.6659 C.3       15 UNK         0.1400 
     86 CB         -7.5107  -22.9810  -49.1332 C.3       15 UNK        -0.1800 
     87 C          -5.0715  -23.4246  -49.8246 C.2       15 UNK         0.5000 
     88 O          -5.3467  -22.9198  -50.9131 O.2       15 UNK        -0.5000 
     89 N          -3.9281  -24.0837  -49.5744 N.am      16 UNK        -0.5000 
     90 CA         -2.8560  -24.3931  -50.5278 C.3       16 UNK         0.1400 
     91 CB         -2.1466  -23.1010  -50.9651 C.3       16 UNK        -0.1800 
     92 C          -3.3915  -25.2294  -51.7082 C.2       16 UNK         0.5000 
     93 O          -3.2657  -24.8413  -52.8739 O.2       16 UNK        -0.5000 
     94 N          -4.0829  -26.3218  -51.3521 N.am      17 UNK        -0.5000 
     95 CA         -4.8475  -27.2349  -52.2105 C.3       17 UNK         0.1400 
     96 CB         -3.8920  -28.0170  -53.1350 C.3       17 UNK        -0.1800 
     97 C          -5.9922  -26.5597  -53.0025 C.2       17 UNK         0.5000 
     98 O          -6.5082  -27.1600  -53.9465 O.2       17 UNK        -0.5000 
     99 N          -6.3446  -25.3186  -52.6297 N.am      18 UNK        -0.5000 
    100 CA        -7.2319  -24.3848  -53.3284 C.3       18 UNK         0.1400 
    101 CB        -8.6898  -24.8873  -53.2938 C.3       18 UNK        -0.1800 
    102 C         -6.7402  -24.0398  -54.7532 C.2       18 UNK         0.5000 
    103 O         -7.5599  -23.7367  -55.6226 O.2       18 UNK        -0.5000 
    104 N         -5.4184  -24.1072  -54.9748 N.am      19 UNK        -0.5000 
    105 CA        -4.7949  -23.9773  -56.2925 C.3       19 UNK         0.1400 
    106 CB        -4.5123  -25.3793  -56.8574 C.3       19 UNK        -0.1800 
    107 C         -3.5098  -23.1377  -56.2591 C.2       19 UNK         0.5000 
    108 O         -3.2773  -22.3654  -57.1896 O.2       19 UNK        -0.5000 
    109 N         -2.7014  -23.2852  -55.2015 N.am      20 UNK        -0.5000 
    110 CA        -1.4147  -22.6026  -55.0335 C.3       20 UNK         0.1400 
    111 CB        -0.3712  -23.6363  -54.5736 C.3       20 UNK        -0.1800 
    112 C         -1.5097  -21.4058  -54.0653 C.2       20 UNK         0.5000 
    113 O         -0.4795  -20.9350  -53.5780 O.2       20 UNK        -0.5000 
    114 N         -2.7387  -20.9465  -53.7846 N.am      21 UNK        -0.5000 
    115 CA        -3.0701  -19.8631  -52.8585 C.3       21 UNK         0.1400 
    116 CB        -4.5928  -19.6574  -52.8468 C.3       21 UNK        -0.1800 
    117 C         -2.3276  -18.5570  -53.1933 C.2       21 UNK         0.5000 
    118 O         -2.5259  -17.9985  -54.2745 O.2       21 UNK        -0.5000 
    119 N         -1.4674  -18.1308  -52.2617 N.am      22 UNK        -0.5000 
    120 CA        -0.5700  -16.9676  -52.3653 C.3       22 UNK         0.1400 
    121 C          0.5999  -17.1376  -53.3834 C.2       22 UNK         0.5000 
    122 N          0.8937  -18.3375  -53.8717 N.am      22 UNK        -0.7600 
    123 O          1.2801  -16.1704  -53.7141 O.2       22 UNK        -0.5000 
    124 C124       -1.3120  -15.6075  -52.5329 C.3       23 UNK        -0.0398 
    125 S125       -2.6742  -15.3637  -51.3416 S.3       23 UNK        -0.2404 
    126 C126       -1.7531  -14.8385  -49.8644 C.3       23 UNK        -0.0205 
    127 H127       -3.1223  -17.3191  -41.3025 H         1 UNK         0.0600 
    128 H128       -1.5860  -17.9782  -41.8766 H         1 UNK         0.0600 
    129 H129       -2.7570  -17.3362  -43.0299 H         1 UNK         0.0600 
    130 H130       -2.1196  -15.3688  -43.8104 H         1 UNK         0.3000 
    131 H131       -1.3416  -13.1470  -42.1597 H         1 UNK         0.0600 
    132 H132       -1.4685  -13.3529  -45.2041 H         1 UNK         0.0800 
    133 H133       -1.3607  -11.8755  -44.2824 H         1 UNK         0.0800 
    134 H134       -3.6835  -11.8717  -46.3329 H         1 UNK         0.0800 
    135 H135       -5.1727  -12.6758  -45.9093 H         1 UNK         0.0800 
    136 H136       -2.6481  -12.8842  -48.1789 H         1 UNK         0.1150 
    137 H137       -2.6932  -17.1090  -48.7767 H         1 UNK         0.1150 
    138 H138       -4.6462  -15.4058  -45.3485 H         1 UNK         0.1150 
    139 H139       -3.7866  -17.8664  -45.4163 H         1 UNK         0.0800 
    140 H140       -5.2040  -17.8791  -46.4419 H         1 UNK         0.0800 
    141 H141       -4.7686  -20.6734  -45.9662 H         1 UNK         0.0800 
    142 H142       -3.2856  -20.2300  -45.1554 H         1 UNK         0.0800 
    143 H143       -3.4846  -22.1831  -47.4927 H         1 UNK         0.0600 
    144 H144       -1.1588  -20.9667  -46.4503 H         1 UNK         0.3000 
    145 H145        1.1671  -23.4885  -47.2331 H         1 UNK         0.0600 
    146 H146        0.4044  -21.3698  -49.3124 H         1 UNK         0.0600 
    147 H147        1.9973  -22.1070  -49.1481 H         1 UNK         0.0600 
    148 H148        0.6185  -23.0910  -49.6108 H         1 UNK         0.0600 
    149 H149        1.3784  -20.6117  -47.1512 H         1 UNK         0.3000 
    150 H150        1.3762  -20.2554  -43.6418 H         1 UNK         0.0600 
    151 H151        3.6977  -21.1544  -43.9215 H         1 UNK         0.0600 
    152 H152        3.6939  -19.3974  -43.8876 H         1 UNK         0.0600 
    153 H153        3.8762  -20.2482  -45.4205 H         1 UNK         0.0600 
    154 H154        2.1846  -18.4677  -45.6960 H         1 UNK         0.3000 
    155 H155       -0.8443  -17.7903  -47.2419 H         1 UNK         0.0600 
    156 H156       -1.4641  -16.5658  -45.1732 H         1 UNK         0.0600 
    157 H157       -0.7907  -15.4542  -46.3517 H         1 UNK         0.0600 
    158 H158        0.1937  -15.9912  -44.9887 H         1 UNK         0.0600 
    159 H159        1.4246  -16.1393  -47.1285 H         1 UNK         0.3000 
    160 H160        3.8550  -17.8943  -48.7717 H         1 UNK         0.0600 
    161 H161        3.7106  -16.2710  -50.6540 H         1 UNK         0.0600 
    162 H162        2.0332  -15.9122  -50.2489 H         1 UNK         0.0600 
    163 H163        2.4827  -17.5133  -50.8299 H         1 UNK         0.0600 
    164 H164        3.4815  -15.0808  -48.4134 H         1 UNK         0.3000 
    165 H165        4.2032  -14.8847  -44.9410 H         1 UNK         0.0600 
    166 H166        5.7907  -13.9716  -47.3911 H         1 UNK         0.0600 
    167 H167        5.8543  -13.2303  -45.7938 H         1 UNK         0.0600 
    168 H168        6.4099  -14.8819  -46.0231 H         1 UNK         0.0600 
    169 H169        2.6261  -13.4492  -45.4477 H         1 UNK         0.3000 
    170 H170        1.9651  -11.2352  -48.1239 H         1 UNK         0.0600 
    171 H171       -0.3722  -11.8783  -47.4582 H         1 UNK         0.0600 
    172 H172        0.3771  -13.0712  -48.5106 H         1 UNK         0.0600 
    173 H173        0.2454  -13.3872  -46.7880 H         1 UNK         0.0600 
    174 H174        1.5741  -11.8389  -45.2113 H         1 UNK         0.3000 
    175 H175        2.8577   -8.5863  -44.3469 H         1 UNK         0.0600 
    176 H176        0.4944  -10.3900  -43.5941 H         1 UNK         0.0600 
    177 H177        1.0862   -9.0000  -42.6900 H         1 UNK         0.0600 
    178 H178        0.3469   -8.7700  -44.2671 H         1 UNK         0.0600 
    179 H179        2.7416  -10.9970  -42.8239 H         1 UNK         0.3000 
    180 H180        6.0600  -12.1180  -43.3809 H         1 UNK         0.0600 
    181 H181        4.8547  -10.7345  -40.9294 H         1 UNK         0.0600 
    182 H182        6.3736  -10.3350  -41.7135 H         1 UNK         0.0600 
    183 H183        6.1907  -11.8850  -40.9072 H         1 UNK         0.0600 
    184 H184        4.7297  -13.8055  -43.0416 H         1 UNK         0.3000 
    185 H185        2.9007  -15.0138  -42.8531 H         1 UNK         0.0600 
    186 H186        2.3714  -16.2615  -40.7722 H         1 UNK         0.0600 
    187 H187        3.8940  -15.4045  -40.5856 H         1 UNK         0.0600 
    188 H188        2.4354  -14.7721  -39.8302 H         1 UNK         0.0600 
    189 H189        0.4981  -14.7099  -41.4044 H         1 UNK         0.3000 
    190 H190       -1.6352  -22.9906  -44.6800 H         1 UNK         0.3000 
    191 H191       -3.5823  -24.4174  -43.1596 H         1 UNK         0.0600 
    192 H192       -0.5419  -24.7647  -43.3796 H         1 UNK         0.0600 
    193 H193       -1.3859  -23.7156  -42.2412 H         1 UNK         0.0600 
    194 H194       -1.5559  -25.4597  -42.1194 H         1 UNK         0.0600 
    195 H195       -1.8573  -25.2406  -46.1278 H         1 UNK         0.3000 
    196 H196       -2.5100  -28.1170  -45.9780 H         1 UNK         0.0600 
    197 H197       -0.2866  -27.3944  -46.8460 H         1 UNK         0.0600 
    198 H198       -1.0720  -26.4772  -48.1293 H         1 UNK         0.0600 
    199 H199       -1.2210  -28.2276  -48.0778 H         1 UNK         0.0600 
    200 H200       -4.8090  -26.9869  -45.7173 H         1 UNK         0.3000 
    201 H201       -6.9104  -26.7338  -46.4251 H         1 UNK         0.0600 
    202 H202       -7.7016  -28.3308  -48.1529 H         1 UNK         0.0600 
    203 H203       -6.5611  -29.1144  -47.0717 H         1 UNK         0.0600 
    204 H204       -6.0510  -28.6212  -48.6853 H         1 UNK         0.0600 
    205 H205       -5.7410  -24.4817  -46.9192 H         1 UNK         0.3000 
    206 H206       -5.7497  -22.5615  -48.0042 H         1 UNK         0.0600 
    207 H207       -8.2078  -22.9571  -48.2957 H         1 UNK         0.0600 
    208 H208       -7.8980  -23.6816  -49.8736 H         1 UNK         0.0600 
    209 H209       -7.5195  -21.9907  -49.5900 H         1 UNK         0.0600 
    210 H210       -3.8138  -24.4998  -48.6616 H         1 UNK         0.3000 
    211 H211       -2.1307  -25.0140  -50.0004 H         1 UNK         0.0600 
    212 H212       -1.8588  -22.4945  -50.1078 H         1 UNK         0.0600 
    213 H213       -1.2418  -23.3194  -51.5302 H         1 UNK         0.0600 
    214 H214       -2.7969  -22.4961  -51.5915 H         1 UNK         0.0600 
    215 H215       -4.1125  -26.5486  -50.3592 H         1 UNK         0.3000 
    216 H216       -5.3250  -27.9489  -51.5380 H         1 UNK         0.0600 
    217 H217       -4.4210  -28.8050  -53.6719 H         1 UNK         0.0600 
    218 H218       -3.4294  -27.3686  -53.8798 H         1 UNK         0.0600 
    219 H219       -3.0955  -28.4948  -52.5646 H         1 UNK         0.0600 
    220 H220       -5.8625  -24.9222  -51.8331 H         1 UNK         0.3000 
    221 H221       -7.1962  -23.4514  -52.7659 H         1 UNK         0.0600 
    222 H222       -8.8252  -25.7827  -53.9008 H         1 UNK         0.0600 
    223 H223       -8.9999  -25.1217  -52.2752 H         1 UNK         0.0600 
    224 H224       -9.3747  -24.1284  -53.6735 H         1 UNK         0.0600 
    225 H225       -4.8116  -24.3549  -54.2013 H         1 UNK         0.3000 
    226 H226       -5.4754  -23.4676  -56.9779 H         1 UNK         0.0600 
    227 H227       -5.4343  -25.9495  -56.9727 H         1 UNK         0.0600 
    228 H228       -4.0407  -25.3200  -57.8392 H         1 UNK         0.0600 
    229 H229       -3.8486  -25.9482  -56.2049 H         1 UNK         0.0600 
    230 H230       -2.9529  -23.9232  -54.4497 H         1 UNK         0.3000 
    231 H231       -1.0724  -22.1981  -55.9880 H         1 UNK         0.0600 
    232 H232        0.6120  -23.1817  -54.4469 H         1 UNK         0.0600 
    233 H233       -0.2634  -24.4338  -55.3089 H         1 UNK         0.0600 
    234 H234       -0.6476  -24.0972  -53.6261 H         1 UNK         0.0600 
    235 H235       -3.5160  -21.3908  -54.2486 H         1 UNK         0.3000 
    236 H236       -2.7728  -20.1836  -51.8584 H         1 UNK         0.0600 
    237 H237       -5.1101  -20.5617  -52.5245 H         1 UNK         0.0600 
    238 H238       -4.8723  -18.8601  -52.1569 H         1 UNK         0.0600 
    239 H239       -4.9704  -19.3866  -53.8336 H         1 UNK         0.0600 
    240 H240       -1.3565  -18.6824  -51.4238 H         1 UNK         0.3000 
    241 H241       -0.0659  -16.9318  -51.4001 H         1 UNK         0.0600 
    242 H242        1.6608  -18.4291  -54.5179 H         1 UNK         0.3800 
    243 H243        0.3524  -19.1603  -53.6228 H         1 UNK         0.3800 
    244 H244       -0.6141  -14.7746  -52.4316 H         1 UNK         0.0800 
    245 H245       -1.7285  -15.5271  -53.5379 H         1 UNK         0.0800 
    246 H246       -0.8502  -15.4388  -49.7488 H         1 UNK         0.0800 
    247 H247       -1.4274  -13.8064  -50.0002 H         1 UNK         0.0800 
@<TRIPOS>BOND
     1    1    2 1    
     2    1  127 1    
     3    1  128 1    
     4    1  129 1    
     5    2    3 2    
     6    2    4 am   BACKBONE|DICT|INTERRES
     7    4    5 1    
     8    4  130 1    
     9    5    6 1    
    10    5   65 1    
    11    5  131 1    
    12    6    7 1    
    13    6  132 1    
    14    6  133 1    
    15    7    8 1    
    16    8    9 1    
    17    8  134 1    
    18    8  135 1    
    19    9   10 ar   
    20    9   14 ar   
    21   10   11 ar   
    22   10  136 1    
    23   11   12 ar   
    24   11  126 1    
    25   12   13 ar   
    26   12  137 1    
    27   13   14 ar   
    28   13   15 1    
    29   14  138 1    
    30   15   16 1    
    31   15  139 1    
    32   15  140 1    
    33   16   17 1    
    34   17   18 1    
    35   17  141 1    
    36   17  142 1    
    37   18   19 1    
    38   18   67 1    
    39   18  143 1    
    40   19   20 am   BACKBONE|DICT|INTERRES
    41   19  144 1    
    42   20   21 2    
    43   20   22 1    
    44   22   23 1    
    45   22   24 1    
    46   22  145 1    
    47   23  146 1    
    48   23  147 1    
    49   23  148 1    
    50   24   25 am   BACKBONE|DICT|INTERRES
    51   24  149 1    
    52   25   26 2    
    53   25   27 1    
    54   27   28 1    
    55   27   29 1    
    56   27  150 1    
    57   28  151 1    
    58   28  152 1    
    59   28  153 1    
    60   29   30 am   BACKBONE|DICT|INTERRES
    61   29  154 1    
    62   30   31 2    
    63   30   32 1    
    64   32   33 1    
    65   32   34 1    
    66   32  155 1    
    67   33  156 1    
    68   33  157 1    
    69   33  158 1    
    70   34   35 am   BACKBONE|DICT|INTERRES
    71   34  159 1    
    72   35   36 2    
    73   35   37 1    
    74   37   38 1    
    75   37   39 1    
    76   37  160 1    
    77   38  161 1    
    78   38  162 1    
    79   38  163 1    
    80   39   40 am   BACKBONE|DICT|INTERRES
    81   39  164 1    
    82   40   41 2    
    83   40   42 1    
    84   42   43 1    
    85   42   44 1    
    86   42  165 1    
    87   43  166 1    
    88   43  167 1    
    89   43  168 1    
    90   44   45 am   BACKBONE|DICT|INTERRES
    91   44  169 1    
    92   45   46 2    
    93   45   47 1    
    94   47   48 1    
    95   47   49 1    
    96   47  170 1    
    97   48  171 1    
    98   48  172 1    
    99   48  173 1    
   100   49   50 am   BACKBONE|DICT|INTERRES
   101   49  174 1    
   102   50   51 2    
   103   50   52 1    
   104   52   53 1    
   105   52   54 1    
   106   52  175 1    
   107   53  176 1    
   108   53  177 1    
   109   53  178 1    
   110   54   55 am   BACKBONE|DICT|INTERRES
   111   54  179 1    
   112   55   56 2    
   113   55   57 1    
   114   57   58 1    
   115   57   59 1    
   116   57  180 1    
   117   58  181 1    
   118   58  182 1    
   119   58  183 1    
   120   59   60 am   BACKBONE|DICT|INTERRES
   121   59  184 1    
   122   60   61 2    
   123   60   62 1    
   124   62   63 1    
   125   62   64 1    
   126   62  185 1    
   127   63  186 1    
   128   63  187 1    
   129   63  188 1    
   130   64   65 am   BACKBONE|DICT|INTERRES
   131   64  189 1    
   132   65   66 2    
   133   67   68 2    
   134   67   69 am   BACKBONE|DICT|INTERRES
   135   69   70 1    
   136   69  190 1    
   137   70   71 1    
   138   70   72 1    
   139   70  191 1    
   140   71  192 1    
   141   71  193 1    
   142   71  194 1    
   143   72   73 2    
   144   72   74 am   BACKBONE|DICT|INTERRES
   145   74   75 1    
   146   74  195 1    
   147   75   76 1    
   148   75   77 1    
   149   75  196 1    
   150   76  197 1    
   151   76  198 1    
   152   76  199 1    
   153   77   78 2    
   154   77   79 am   BACKBONE|DICT|INTERRES
   155   79   80 1    
   156   79  200 1    
   157   80   81 1    
   158   80   82 1    
   159   80  201 1    
   160   81  202 1    
   161   81  203 1    
   162   81  204 1    
   163   82   83 2    
   164   82   84 am   BACKBONE|DICT|INTERRES
   165   84   85 1    
   166   84  205 1    
   167   85   86 1    
   168   85   87 1    
   169   85  206 1    
   170   86  207 1    
   171   86  208 1    
   172   86  209 1    
   173   87   88 2    
   174   87   89 am   BACKBONE|DICT|INTERRES
   175   89   90 1    
   176   89  210 1    
   177   90   91 1    
   178   90   92 1    
   179   90  211 1    
   180   91  212 1    
   181   91  213 1    
   182   91  214 1    
   183   92   93 2    
   184   92   94 am   BACKBONE|DICT|INTERRES
   185   94   95 1    
   186   94  215 1    
   187   95   96 1    
   188   95   97 1    
   189   95  216 1    
   190   96  217 1    
   191   96  218 1    
   192   96  219 1    
   193   97   98 2    
   194   97   99 am   BACKBONE|DICT|INTERRES
   195   99  100 1    
   196   99  220 1    
   197  100  101 1    
   198  100  102 1    
   199  100  221 1    
   200  101  222 1    
   201  101  223 1    
   202  101  224 1    
   203  102  103 2    
   204  102  104 am   BACKBONE|DICT|INTERRES
   205  104  105 1    
   206  104  225 1    
   207  105  106 1    
   208  105  107 1    
   209  105  226 1    
   210  106  227 1    
   211  106  228 1    
   212  106  229 1    
   213  107  108 2    
   214  107  109 am   BACKBONE|DICT|INTERRES
   215  109  110 1    
   216  109  230 1    
   217  110  111 1    
   218  110  112 1    
   219  110  231 1    
   220  111  232 1    
   221  111  233 1    
   222  111  234 1    
   223  112  113 2    
   224  112  114 am   BACKBONE|DICT|INTERRES
   225  114  115 1    
   226  114  235 1    
   227  115  116 1    
   228  115  117 1    
   229  115  236 1    
   230  116  237 1    
   231  116  238 1    
   232  116  239 1    
   233  117  118 2    
   234  117  119 am   BACKBONE|DICT|INTERRES
   235  119  120 1    
   236  119  240 1    
   237  120  121 1    
   238  120  124 1    
   239  120  241 1    
   240  121  122 am   BACKBONE|DICT|INTERRES
   241  121  123 2    
   242  122  242 1    
   243  122  243 1    
   244  124  125 1    
   245  124  244 1    
   246  124  245 1    
   247  125  126 1    
   248  126  246 1    
   249  126  247 1    
@<TRIPOS>SUBSTRUCTURE
     1 UNK         1 GROUP             0       ****    0 ROOT    
