@<TRIPOS>MOLECULE
3R540
247   249    1
SMALL
USER_CHARGES


@<TRIPOS>ATOM
      1 CA         -7.5948  -15.3365  -48.1636 C.3       0 UNK        -0.1800 
      2 C          -6.1470  -15.4719  -47.7159 C.2       0 UNK         0.5000 
      3 O          -5.2970  -14.6953  -48.1493 O.2       0 UNK        -0.5000 
      4 N          -5.8677  -16.4339  -46.8255 N.am      1 UNK        -0.5000 
      5 CA         -4.5281  -16.8005  -46.3376 C.3       1 UNK         0.1400 
      6 C6         -4.5435  -18.1482  -45.5697 C.3       23 UNK        -0.0398 
      7 S7         -5.0995  -19.5578  -46.5934 S.3       23 UNK        -0.2404 
      8 C8         -3.8042  -20.8176  -46.2883 C.3       23 UNK        -0.0205 
      9 C9         -2.5933  -20.7618  -47.2229 C.ar      23 UNK        -0.0193 
     10 C10        -2.1299  -19.5542  -47.7494 C.ar      23 UNK        -0.1150 
     11 C11        -1.0315  -19.5154  -48.6065 C.ar      23 UNK        -0.0193 
     12 C12        -0.3759  -20.6994  -48.9418 C.ar      23 UNK        -0.1150 
     13 C13        -0.8160  -21.9190  -48.4260 C.ar      23 UNK        -0.0193 
     14 C14        -1.9145  -21.9414  -47.5557 C.ar      23 UNK        -0.1150 
     15 C15        -0.1259  -23.2050  -48.8587 C.3       23 UNK        -0.0205 
     16 S16         1.3826  -23.5391  -47.8988 S.3       23 UNK        -0.2404 
     17 C17         0.6341  -24.0490  -46.3231 C.3       23 UNK        -0.0398 
     18 CA          1.6226  -24.7453  -45.3597 C.3       11 UNK         0.1400 
     19 N           2.6635  -23.8235  -44.8889 N.am      11 UNK        -0.5000 
     20 C           3.7838  -24.1792  -44.2459 C.2       10 UNK         0.5000 
     21 O           4.1083  -25.3481  -44.0348 O.2       10 UNK        -0.5000 
     22 CA          4.6667  -23.0361  -43.7075 C.3       10 UNK         0.1400 
     23 CB          5.6651  -22.5580  -44.7731 C.3       10 UNK        -0.1800 
     24 N           3.8794  -21.8989  -43.2231 N.am      10 UNK        -0.5000 
     25 C           3.1256  -21.9163  -42.1140 C.2       9 UNK         0.5000 
     26 O           3.0403  -22.8870  -41.3618 O.2       9 UNK        -0.5000 
     27 CA          2.2917  -20.6562  -41.8144 C.3       9 UNK         0.1400 
     28 CB          3.1441  -19.5953  -41.1026 C.3       9 UNK        -0.1800 
     29 N           1.6943  -20.0700  -43.0125 N.am      9 UNK        -0.5000 
     30 C           0.7933  -20.6768  -43.7973 C.2       8 UNK         0.5000 
     31 O           0.3168  -21.7894  -43.5679 O.2       8 UNK        -0.5000 
     32 CA          0.3945  -19.9283  -45.0811 C.3       8 UNK         0.1400 
     33 CB         -0.6816  -18.8835  -44.7590 C.3       8 UNK        -0.1800 
     34 N           1.5317  -19.2922  -45.7544 N.am      8 UNK        -0.5000 
     35 C           2.6210  -19.9490  -46.1833 C.2       7 UNK         0.5000 
     36 O           2.7755  -21.1622  -46.0633 O.2       7 UNK        -0.5000 
     37 CA          3.7642  -19.1090  -46.7730 C.3       7 UNK         0.1400 
     38 CB          3.5426  -18.8241  -48.2653 C.3       7 UNK        -0.1800 
     39 N           3.9299  -17.8560  -46.0398 N.am      7 UNK        -0.5000 
     40 C           4.5276  -17.7660  -44.8428 C.2       6 UNK         0.5000 
     41 O           5.0745  -18.7150  -44.2797 O.2       6 UNK        -0.5000 
     42 CA          4.4722  -16.3954  -44.1398 C.3       6 UNK         0.1400 
     43 CB          5.6389  -15.5061  -44.5945 C.3       6 UNK        -0.1800 
     44 N           3.2090  -15.6907  -44.3689 N.am      6 UNK        -0.5000 
     45 C           2.0158  -16.1145  -43.9289 C.2       5 UNK         0.5000 
     46 O           1.8717  -17.1116  -43.2213 O.2       5 UNK        -0.5000 
     47 CA          0.7738  -15.3207  -44.3847 C.3       5 UNK         0.1400 
     48 CB          0.3674  -14.2971  -43.3149 C.3       5 UNK        -0.1800 
     49 N           0.9201  -14.6380  -45.6748 N.am      5 UNK        -0.5000 
     50 C           1.1930  -15.2340  -46.8452 C.2       4 UNK         0.5000 
     51 O           1.4219  -16.4403  -46.9548 O.2       4 UNK        -0.5000 
     52 CA          1.2320  -14.3041  -48.0790 C.3       4 UNK         0.1400 
     53 CB          1.4098  -15.0522  -49.4167 C.3       4 UNK        -0.1800 
     54 N           0.0827  -13.3913  -48.1324 N.am      4 UNK        -0.5000 
     55 C          -1.2108  -13.7401  -48.1968 C.2       3 UNK         0.5000 
     56 O          -1.6175  -14.8985  -48.2960 O.2       3 UNK        -0.5000 
     57 CA         -2.2331  -12.5957  -48.1151 C.3       3 UNK         0.1400 
     58 CB         -2.9932  -12.4372  -49.4412 C.3       3 UNK        -0.1800 
     59 N          -3.1768  -12.8920  -47.0421 N.am      3 UNK        -0.5000 
     60 C          -2.9127  -12.7079  -45.7394 C.2       2 UNK         0.5000 
     61 O          -1.9312  -12.0895  -45.3257 O.2       2 UNK        -0.5000 
     62 CA         -3.8841  -13.3498  -44.7261 C.3       2 UNK         0.1400 
     63 CB         -4.9953  -12.3624  -44.3396 C.3       2 UNK        -0.1800 
     64 N          -4.4907  -14.5787  -45.2389 N.am      2 UNK        -0.5000 
     65 C          -3.8149  -15.7053  -45.5071 C.2       1 UNK         0.5000 
     66 O          -2.6555  -15.8926  -45.1391 O.2       1 UNK        -0.5000 
     67 C           0.8155  -25.3895  -44.2099 C.2       11 UNK         0.5000 
     68 O           0.1349  -26.3874  -44.4489 O.2       11 UNK        -0.5000 
     69 N           0.8619  -24.7890  -43.0112 N.am      12 UNK        -0.5000 
     70 CA          0.0286  -25.0834  -41.8407 C.3       12 UNK         0.1400 
     71 CB          0.2703  -26.5133  -41.3129 C.3       12 UNK        -0.1800 
     72 C          -1.4613  -24.7594  -42.0911 C.2       12 UNK         0.5000 
     73 O          -2.3435  -25.4713  -41.6086 O.2       12 UNK        -0.5000 
     74 N          -1.6968  -23.6633  -42.8278 N.am      13 UNK        -0.5000 
     75 CA         -2.9850  -23.0355  -43.1241 C.3       13 UNK         0.1400 
     76 CB         -3.5683  -22.3889  -41.8510 C.3       13 UNK        -0.1800 
     77 C          -3.9943  -23.9432  -43.8623 C.2       13 UNK         0.5000 
     78 O          -5.1758  -23.9611  -43.5114 O.2       13 UNK        -0.5000 
     79 N          -3.5253  -24.6633  -44.8881 N.am      14 UNK        -0.5000 
     80 CA         -4.3448  -25.5103  -45.7546 C.3       14 UNK         0.1400 
     81 CB         -4.4185  -26.9287  -45.1639 C.3       14 UNK        -0.1800 
     82 C          -3.7452  -25.5353  -47.1678 C.2       14 UNK         0.5000 
     83 O          -2.5318  -25.3810  -47.3042 O.2       14 UNK        -0.5000 
     84 N          -4.5995  -25.7549  -48.1791 N.am      15 UNK        -0.5000 
     85 CA         -4.2745  -25.8456  -49.6112 C.3       15 UNK         0.1400 
     86 CB         -3.3833  -27.0739  -49.8957 C.3       15 UNK        -0.1800 
     87 C          -3.6950  -24.5309  -50.1786 C.2       15 UNK         0.5000 
     88 O          -2.5967  -24.5209  -50.7371 O.2       15 UNK        -0.5000 
     89 N          -4.4521  -23.4400  -49.9980 N.am      16 UNK        -0.5000 
     90 CA         -4.1045  -22.0758  -50.4015 C.3       16 UNK         0.1400 
     91 CB         -5.2345  -21.1314  -49.9662 C.3       16 UNK        -0.1800 
     92 C          -3.8386  -21.9183  -51.9086 C.2       16 UNK         0.5000 
     93 O          -4.6525  -22.3570  -52.7251 O.2       16 UNK        -0.5000 
     94 N          -2.7393  -21.2339  -52.2494 N.am      17 UNK        -0.5000 
     95 CA         -2.3705  -20.8589  -53.6146 C.3       17 UNK         0.1400 
     96 CB         -0.8396  -20.7407  -53.7055 C.3       17 UNK        -0.1800 
     97 C          -3.0974  -19.5636  -54.0277 C.2       17 UNK         0.5000 
     98 O          -2.4648  -18.5323  -54.2719 O.2       17 UNK        -0.5000 
     99 N          -4.4344  -19.6271  -54.0604 N.am      18 UNK        -0.5000 
    100 CA        -5.3283  -18.4990  -54.3376 C.3       18 UNK         0.1400 
    101 CB        -6.7784  -18.9278  -54.0738 C.3       18 UNK        -0.1800 
    102 C         -5.1733  -17.9098  -55.7509 C.2       18 UNK         0.5000 
    103 O         -5.4069  -16.7163  -55.9415 O.2       18 UNK        -0.5000 
    104 N         -4.7471  -18.7476  -56.7050 N.am      19 UNK        -0.5000 
    105 CA        -4.4025  -18.3456  -58.0680 C.3       19 UNK         0.1400 
    106 CB        -4.3365  -19.5994  -58.9537 C.3       19 UNK        -0.1800 
    107 C         -3.0779  -17.5597  -58.1476 C.2       19 UNK         0.5000 
    108 O         -2.8930  -16.7961  -59.0962 O.2       19 UNK        -0.5000 
    109 N         -2.1817  -17.7619  -57.1703 N.am      20 UNK        -0.5000 
    110 CA        -0.8931  -17.0807  -57.0837 C.3       20 UNK         0.1400 
    111 CB         0.1440  -17.9989  -56.4157 C.3       20 UNK        -0.1800 
    112 C         -1.0222  -15.7502  -56.3277 C.2       20 UNK         0.5000 
    113 O         -0.6005  -14.7198  -56.8553 O.2       20 UNK        -0.5000 
    114 N         -1.6031  -15.7885  -55.1193 N.am      21 UNK        -0.5000 
    115 CA        -1.7479  -14.6161  -54.2489 C.3       21 UNK         0.1400 
    116 CB        -0.3744  -14.1777  -53.6971 C.3       21 UNK        -0.1800 
    117 C         -2.7108  -14.8336  -53.0720 C.2       21 UNK         0.5000 
    118 O         -3.3245  -13.8655  -52.6222 O.2       21 UNK        -0.5000 
    119 N         -2.8022  -16.0681  -52.5645 N.am      22 UNK        -0.5000 
    120 CA        -3.4196  -16.4348  -51.2738 C.3       22 UNK         0.1400 
    121 C         -4.9789  -16.3533  -51.2266 C.2       22 UNK         0.5000 
    122 N         -5.6006  -15.3809  -51.8769 N.am      22 UNK        -0.7600 
    123 O         -5.6403  -17.1931  -50.6230 O.2       22 UNK        -0.5000 
    124 C124       -2.8916  -17.8050  -50.7707 C.3       23 UNK        -0.0398 
    125 S125       -1.0766  -17.9951  -50.9085 S.3       23 UNK        -0.2404 
    126 C126       -0.5632  -18.1918  -49.1772 C.3       23 UNK        -0.0205 
    127 H127       -8.2411  -16.0648  -47.6732 H         1 UNK         0.0600 
    128 H128       -7.6661  -15.4895  -49.2404 H         1 UNK         0.0600 
    129 H129       -7.9680  -14.3386  -47.9339 H         1 UNK         0.0600 
    130 H130       -6.6150  -17.0349  -46.5083 H         1 UNK         0.3000 
    131 H131       -3.9105  -16.9199  -47.2286 H         1 UNK         0.0600 
    132 H132       -3.5508  -18.3741  -45.1826 H         1 UNK         0.0800 
    133 H133       -5.1949  -18.0803  -44.6969 H         1 UNK         0.0800 
    134 H134       -3.4637  -20.7286  -45.2594 H         1 UNK         0.0800 
    135 H135       -4.2773  -21.7971  -46.3739 H         1 UNK         0.0800 
    136 H136       -2.6168  -18.6301  -47.4942 H         1 UNK         0.1150 
    137 H137        0.4704  -20.6719  -49.6139 H         1 UNK         0.1150 
    138 H138       -2.2572  -22.8831  -47.1572 H         1 UNK         0.1150 
    139 H139       -0.8074  -24.0518  -48.7800 H         1 UNK         0.0800 
    140 H140        0.1381  -23.1358  -49.9150 H         1 UNK         0.0800 
    141 H141        0.1833  -23.1753  -45.8519 H         1 UNK         0.0800 
    142 H142       -0.1862  -24.7239  -46.5677 H         1 UNK         0.0800 
    143 H143        2.1125  -25.5593  -45.8980 H         1 UNK         0.0600 
    144 H144        2.5264  -22.8406  -45.1097 H         1 UNK         0.3000 
    145 H145        5.2399  -23.4301  -42.8655 H         1 UNK         0.0600 
    146 H146        6.3060  -21.7654  -44.3863 H         1 UNK         0.0600 
    147 H147        5.1620  -22.1773  -45.6616 H         1 UNK         0.0600 
    148 H148        6.3131  -23.3754  -45.0913 H         1 UNK         0.0600 
    149 H149        3.8716  -21.0715  -43.8040 H         1 UNK         0.3000 
    150 H150        1.4786  -20.9468  -41.1459 H         1 UNK         0.0600 
    151 H151        3.5881  -19.9967  -40.1908 H         1 UNK         0.0600 
    152 H152        2.5417  -18.7320  -40.8190 H         1 UNK         0.0600 
    153 H153        3.9571  -19.2401  -41.7369 H         1 UNK         0.0600 
    154 H154        1.9757  -19.1229  -43.2464 H         1 UNK         0.3000 
    155 H155       -0.0234  -20.6558  -45.7775 H         1 UNK         0.0600 
    156 H156       -1.6046  -19.3762  -44.4568 H         1 UNK         0.0600 
    157 H157       -0.9039  -18.2497  -45.6172 H         1 UNK         0.0600 
    158 H158       -0.3878  -18.2368  -43.9340 H         1 UNK         0.0600 
    159 H159        1.4711  -18.2952  -45.9251 H         1 UNK         0.3000 
    160 H160        4.6825  -19.6936  -46.6828 H         1 UNK         0.0600 
    161 H161        2.6810  -18.1814  -48.4323 H         1 UNK         0.0600 
    162 H162        3.3749  -19.7491  -48.8189 H         1 UNK         0.0600 
    163 H163        4.4118  -18.3341  -48.7037 H         1 UNK         0.0600 
    164 H164        3.4299  -17.0544  -46.4024 H         1 UNK         0.3000 
    165 H165        4.5724  -16.5695  -43.0662 H         1 UNK         0.0600 
    166 H166        5.6532  -14.5635  -44.0470 H         1 UNK         0.0600 
    167 H167        6.5962  -15.9982  -44.4172 H         1 UNK         0.0600 
    168 H168        5.5801  -15.2762  -45.6591 H         1 UNK         0.0600 
    169 H169        3.2435  -14.8587  -44.9388 H         1 UNK         0.3000 
    170 H170       -0.0437  -16.0329  -44.4943 H         1 UNK         0.0600 
    171 H171        1.1195  -13.5160  -43.1979 H         1 UNK         0.0600 
    172 H172       -0.5792  -13.8199  -43.5680 H         1 UNK         0.0600 
    173 H173        0.2361  -14.7771  -42.3441 H         1 UNK         0.0600 
    174 H174        0.7244  -13.6475  -45.6777 H         1 UNK         0.3000 
    175 H175        2.1150  -13.6777  -47.9452 H         1 UNK         0.0600 
    176 H176        2.2798  -15.7092  -49.3902 H         1 UNK         0.0600 
    177 H177        0.5437  -15.6646  -49.6600 H         1 UNK         0.0600 
    178 H178        1.5578  -14.3525  -50.2390 H         1 UNK         0.0600 
    179 H179        0.3071  -12.4095  -48.0482 H         1 UNK         0.3000 
    180 H180       -1.7210  -11.6555  -47.8997 H         1 UNK         0.0600 
    181 H181       -2.3089  -12.2027  -50.2575 H         1 UNK         0.0600 
    182 H182       -3.7236  -11.6303  -49.3840 H         1 UNK         0.0600 
    183 H183       -3.5247  -13.3491  -49.7156 H         1 UNK         0.0600 
    184 H184       -3.9648  -13.4768  -47.3053 H         1 UNK         0.3000 
    185 H185       -3.3145  -13.5978  -43.8280 H         1 UNK         0.0600 
    186 H186       -4.5743  -11.4421  -43.9325 H         1 UNK         0.0600 
    187 H187       -5.6095  -12.0908  -45.1991 H         1 UNK         0.0600 
    188 H188       -5.6505  -12.7842  -43.5772 H         1 UNK         0.0600 
    189 H189       -5.4389  -14.5094  -45.5776 H         1 UNK         0.3000 
    190 H190        1.4440  -23.9658  -42.9296 H         1 UNK         0.3000 
    191 H191        0.3575  -24.3923  -41.0632 H         1 UNK         0.0600 
    192 H192       -0.2203  -26.6591  -40.3500 H         1 UNK         0.0600 
    193 H193        1.3334  -26.7049  -41.1672 H         1 UNK         0.0600 
    194 H194       -0.1188  -27.2722  -41.9919 H         1 UNK         0.0600 
    195 H195       -0.8875  -23.1360  -43.1501 H         1 UNK         0.3000 
    196 H196       -2.7478  -22.2278  -43.8132 H         1 UNK         0.0600 
    197 H197       -3.8492  -23.1384  -41.1104 H         1 UNK         0.0600 
    198 H198       -2.8492  -21.7128  -41.3883 H         1 UNK         0.0600 
    199 H199       -4.4594  -21.8034  -42.0806 H         1 UNK         0.0600 
    200 H200       -2.5487  -24.6116  -45.1458 H         1 UNK         0.3000 
    201 H201       -5.3527  -25.0957  -45.8258 H         1 UNK         0.0600 
    202 H202       -5.0151  -27.5879  -45.7955 H         1 UNK         0.0600 
    203 H203       -4.8784  -26.9212  -44.1756 H         1 UNK         0.0600 
    204 H204       -3.4266  -27.3723  -45.0670 H         1 UNK         0.0600 
    205 H205       -5.5780  -25.8721  -47.9551 H         1 UNK         0.3000 
    206 H206       -5.2199  -26.0089  -50.1309 H         1 UNK         0.0600 
    207 H207       -3.8389  -27.9880  -49.5154 H         1 UNK         0.0600 
    208 H208       -3.2355  -27.2067  -50.9680 H         1 UNK         0.0600 
    209 H209       -2.3966  -26.9774  -49.4417 H         1 UNK         0.0600 
    210 H210       -5.3456  -23.5512  -49.5430 H         1 UNK         0.3000 
    211 H211       -3.1995  -21.7957  -49.8681 H         1 UNK         0.0600 
    212 H212       -6.1530  -21.3158  -50.5248 H         1 UNK         0.0600 
    213 H213       -4.9585  -20.0879  -50.1219 H         1 UNK         0.0600 
    214 H214       -5.4618  -21.2526  -48.9085 H         1 UNK         0.0600 
    215 H215       -2.1352  -20.8828  -51.5196 H         1 UNK         0.3000 
    216 H216       -2.6816  -21.6465  -54.3042 H         1 UNK         0.0600 
    217 H217       -0.3548  -21.6697  -53.4051 H         1 UNK         0.0600 
    218 H218       -0.4523  -19.9426  -53.0721 H         1 UNK         0.0600 
    219 H219       -0.5270  -20.5305  -54.7286 H         1 UNK         0.0600 
    220 H220       -4.8715  -20.5092  -53.8191 H         1 UNK         0.3000 
    221 H221       -5.0767  -17.7020  -53.6402 H         1 UNK         0.0600 
    222 H222       -6.9111  -19.2445  -53.0388 H         1 UNK         0.0600 
    223 H223       -7.4684  -18.1015  -54.2498 H         1 UNK         0.0600 
    224 H224       -7.0785  -19.7527  -54.7210 H         1 UNK         0.0600 
    225 H225       -4.5954  -19.7153  -56.4616 H         1 UNK         0.3000 
    226 H226       -5.1953  -17.6987  -58.4497 H         1 UNK         0.0600 
    227 H227       -5.2884  -20.1307  -58.9574 H         1 UNK         0.0600 
    228 H228       -4.1093  -19.3356  -59.9875 H         1 UNK         0.0600 
    229 H229       -3.5652  -20.2922  -58.6148 H         1 UNK         0.0600 
    230 H230       -2.4311  -18.3512  -56.3872 H         1 UNK         0.3000 
    231 H231       -0.5319  -16.8634  -58.0914 H         1 UNK         0.0600 
    232 H232        1.1314  -17.5360  -56.4261 H         1 UNK         0.0600 
    233 H233        0.2257  -18.9505  -56.9409 H         1 UNK         0.0600 
    234 H234       -0.1016  -18.2094  -55.3752 H         1 UNK         0.0600 
    235 H235       -1.9627  -16.6745  -54.7796 H         1 UNK         0.3000 
    236 H236       -2.1618  -13.8000  -54.8450 H         1 UNK         0.0600 
    237 H237       -0.4774  -13.3403  -53.0054 H         1 UNK         0.0600 
    238 H238        0.1145  -14.9893  -53.1565 H         1 UNK         0.0600 
    239 H239        0.2977  -13.8513  -54.4901 H         1 UNK         0.0600 
    240 H240       -2.2864  -16.8197  -53.0027 H         1 UNK         0.3000 
    241 H241       -3.0819  -15.6951  -50.5458 H         1 UNK         0.0600 
    242 H242       -5.0427  -14.6592  -52.3219 H         1 UNK         0.3800 
    243 H243       -6.6050  -15.3188  -51.8607 H         1 UNK         0.3800 
    244 H244       -3.1973  -17.9510  -49.7349 H         1 UNK         0.0800 
    245 H245       -3.3555  -18.6138  -51.3324 H         1 UNK         0.0800 
    246 H246       -0.9350  -17.3592  -48.5802 H         1 UNK         0.0800 
    247 H247        0.5231  -18.1410  -49.1247 H         1 UNK         0.0800 
@<TRIPOS>BOND
     1    1    2 1    
     2    1  127 1    
     3    1  128 1    
     4    1  129 1    
     5    2    3 2    
     6    2    4 am   BACKBONE|DICT|INTERRES
     7    4    5 1    
     8    4  130 1    
     9    5    6 1    
    10    5   65 1    
    11    5  131 1    
    12    6    7 1    
    13    6  132 1    
    14    6  133 1    
    15    7    8 1    
    16    8    9 1    
    17    8  134 1    
    18    8  135 1    
    19    9   10 ar   
    20    9   14 ar   
    21   10   11 ar   
    22   10  136 1    
    23   11   12 ar   
    24   11  126 1    
    25   12   13 ar   
    26   12  137 1    
    27   13   14 ar   
    28   13   15 1    
    29   14  138 1    
    30   15   16 1    
    31   15  139 1    
    32   15  140 1    
    33   16   17 1    
    34   17   18 1    
    35   17  141 1    
    36   17  142 1    
    37   18   19 1    
    38   18   67 1    
    39   18  143 1    
    40   19   20 am   BACKBONE|DICT|INTERRES
    41   19  144 1    
    42   20   21 2    
    43   20   22 1    
    44   22   23 1    
    45   22   24 1    
    46   22  145 1    
    47   23  146 1    
    48   23  147 1    
    49   23  148 1    
    50   24   25 am   BACKBONE|DICT|INTERRES
    51   24  149 1    
    52   25   26 2    
    53   25   27 1    
    54   27   28 1    
    55   27   29 1    
    56   27  150 1    
    57   28  151 1    
    58   28  152 1    
    59   28  153 1    
    60   29   30 am   BACKBONE|DICT|INTERRES
    61   29  154 1    
    62   30   31 2    
    63   30   32 1    
    64   32   33 1    
    65   32   34 1    
    66   32  155 1    
    67   33  156 1    
    68   33  157 1    
    69   33  158 1    
    70   34   35 am   BACKBONE|DICT|INTERRES
    71   34  159 1    
    72   35   36 2    
    73   35   37 1    
    74   37   38 1    
    75   37   39 1    
    76   37  160 1    
    77   38  161 1    
    78   38  162 1    
    79   38  163 1    
    80   39   40 am   BACKBONE|DICT|INTERRES
    81   39  164 1    
    82   40   41 2    
    83   40   42 1    
    84   42   43 1    
    85   42   44 1    
    86   42  165 1    
    87   43  166 1    
    88   43  167 1    
    89   43  168 1    
    90   44   45 am   BACKBONE|DICT|INTERRES
    91   44  169 1    
    92   45   46 2    
    93   45   47 1    
    94   47   48 1    
    95   47   49 1    
    96   47  170 1    
    97   48  171 1    
    98   48  172 1    
    99   48  173 1    
   100   49   50 am   BACKBONE|DICT|INTERRES
   101   49  174 1    
   102   50   51 2    
   103   50   52 1    
   104   52   53 1    
   105   52   54 1    
   106   52  175 1    
   107   53  176 1    
   108   53  177 1    
   109   53  178 1    
   110   54   55 am   BACKBONE|DICT|INTERRES
   111   54  179 1    
   112   55   56 2    
   113   55   57 1    
   114   57   58 1    
   115   57   59 1    
   116   57  180 1    
   117   58  181 1    
   118   58  182 1    
   119   58  183 1    
   120   59   60 am   BACKBONE|DICT|INTERRES
   121   59  184 1    
   122   60   61 2    
   123   60   62 1    
   124   62   63 1    
   125   62   64 1    
   126   62  185 1    
   127   63  186 1    
   128   63  187 1    
   129   63  188 1    
   130   64   65 am   BACKBONE|DICT|INTERRES
   131   64  189 1    
   132   65   66 2    
   133   67   68 2    
   134   67   69 am   BACKBONE|DICT|INTERRES
   135   69   70 1    
   136   69  190 1    
   137   70   71 1    
   138   70   72 1    
   139   70  191 1    
   140   71  192 1    
   141   71  193 1    
   142   71  194 1    
   143   72   73 2    
   144   72   74 am   BACKBONE|DICT|INTERRES
   145   74   75 1    
   146   74  195 1    
   147   75   76 1    
   148   75   77 1    
   149   75  196 1    
   150   76  197 1    
   151   76  198 1    
   152   76  199 1    
   153   77   78 2    
   154   77   79 am   BACKBONE|DICT|INTERRES
   155   79   80 1    
   156   79  200 1    
   157   80   81 1    
   158   80   82 1    
   159   80  201 1    
   160   81  202 1    
   161   81  203 1    
   162   81  204 1    
   163   82   83 2    
   164   82   84 am   BACKBONE|DICT|INTERRES
   165   84   85 1    
   166   84  205 1    
   167   85   86 1    
   168   85   87 1    
   169   85  206 1    
   170   86  207 1    
   171   86  208 1    
   172   86  209 1    
   173   87   88 2    
   174   87   89 am   BACKBONE|DICT|INTERRES
   175   89   90 1    
   176   89  210 1    
   177   90   91 1    
   178   90   92 1    
   179   90  211 1    
   180   91  212 1    
   181   91  213 1    
   182   91  214 1    
   183   92   93 2    
   184   92   94 am   BACKBONE|DICT|INTERRES
   185   94   95 1    
   186   94  215 1    
   187   95   96 1    
   188   95   97 1    
   189   95  216 1    
   190   96  217 1    
   191   96  218 1    
   192   96  219 1    
   193   97   98 2    
   194   97   99 am   BACKBONE|DICT|INTERRES
   195   99  100 1    
   196   99  220 1    
   197  100  101 1    
   198  100  102 1    
   199  100  221 1    
   200  101  222 1    
   201  101  223 1    
   202  101  224 1    
   203  102  103 2    
   204  102  104 am   BACKBONE|DICT|INTERRES
   205  104  105 1    
   206  104  225 1    
   207  105  106 1    
   208  105  107 1    
   209  105  226 1    
   210  106  227 1    
   211  106  228 1    
   212  106  229 1    
   213  107  108 2    
   214  107  109 am   BACKBONE|DICT|INTERRES
   215  109  110 1    
   216  109  230 1    
   217  110  111 1    
   218  110  112 1    
   219  110  231 1    
   220  111  232 1    
   221  111  233 1    
   222  111  234 1    
   223  112  113 2    
   224  112  114 am   BACKBONE|DICT|INTERRES
   225  114  115 1    
   226  114  235 1    
   227  115  116 1    
   228  115  117 1    
   229  115  236 1    
   230  116  237 1    
   231  116  238 1    
   232  116  239 1    
   233  117  118 2    
   234  117  119 am   BACKBONE|DICT|INTERRES
   235  119  120 1    
   236  119  240 1    
   237  120  121 1    
   238  120  124 1    
   239  120  241 1    
   240  121  122 am   BACKBONE|DICT|INTERRES
   241  121  123 2    
   242  122  242 1    
   243  122  243 1    
   244  124  125 1    
   245  124  244 1    
   246  124  245 1    
   247  125  126 1    
   248  126  246 1    
   249  126  247 1    
@<TRIPOS>SUBSTRUCTURE
     1 UNK         1 GROUP             0       ****    0 ROOT    
