@<TRIPOS>MOLECULE
3R540
247   249    1
SMALL
USER_CHARGES


@<TRIPOS>ATOM
      1 CA          7.2595  -13.3894  -52.8651 C.3       0 UNK        -0.1800 
      2 C           6.5742  -12.9105  -51.5931 C.2       0 UNK         0.5000 
      3 O           7.2478  -12.4670  -50.6627 O.2       0 UNK        -0.5000 
      4 N           5.2424  -12.9959  -51.5502 N.am      1 UNK        -0.5000 
      5 CA          4.4010  -12.5969  -50.4246 C.3       1 UNK         0.1400 
      6 C6          4.3697  -13.6565  -49.2894 C.3       23 UNK        -0.0398 
      7 S7          3.9442  -15.3562  -49.8117 S.3       23 UNK        -0.2404 
      8 C8          2.3945  -15.6348  -48.9006 C.3       23 UNK        -0.0205 
      9 C9          1.7322  -16.9278  -49.3464 C.ar      23 UNK        -0.0193 
     10 C10         0.6632  -16.8967  -50.2456 C.ar      23 UNK        -0.1150 
     11 C11         0.0723  -18.0833  -50.6887 C.ar      23 UNK        -0.0193 
     12 C12         0.5648  -19.3092  -50.2304 C.ar      23 UNK        -0.1150 
     13 C13         1.6325  -19.3528  -49.3299 C.ar      23 UNK        -0.0193 
     14 C14         2.2029  -18.1583  -48.8800 C.ar      23 UNK        -0.1150 
     15 C15         2.1954  -20.6882  -48.8713 C.3       23 UNK        -0.0205 
     16 S16         1.1006  -21.5025  -47.6731 S.3       23 UNK        -0.2404 
     17 C17         2.2814  -22.6376  -46.8764 C.3       23 UNK        -0.0398 
     18 CA          1.7073  -23.4395  -45.6872 C.3       11 UNK         0.1400 
     19 N           1.3380  -22.5887  -44.5478 N.am      11 UNK        -0.5000 
     20 C           1.3319  -23.0248  -43.2787 C.2       10 UNK         0.5000 
     21 O           1.6530  -24.1676  -42.9487 O.2       10 UNK        -0.5000 
     22 CA          0.8938  -22.0313  -42.1892 C.3       10 UNK         0.1400 
     23 CB          2.0219  -21.0410  -41.8612 C.3       10 UNK        -0.1800 
     24 N          -0.3256  -21.3058  -42.5398 N.am      10 UNK        -0.5000 
     25 C          -1.5422  -21.8638  -42.6161 C.2       9 UNK         0.5000 
     26 O          -1.7672  -23.0508  -42.3797 O.2       9 UNK        -0.5000 
     27 CA         -2.7077  -20.9491  -43.0353 C.3       9 UNK         0.1400 
     28 CB         -3.3017  -20.2267  -41.8177 C.3       9 UNK        -0.1800 
     29 N          -2.3309  -19.9662  -44.0498 N.am      9 UNK        -0.5000 
     30 C          -1.9542  -20.2716  -45.2985 C.2       8 UNK         0.5000 
     31 O          -1.9480  -21.4174  -45.7451 O.2       8 UNK        -0.5000 
     32 CA         -1.4607  -19.1062  -46.1754 C.3       8 UNK         0.1400 
     33 CB         -2.6377  -18.3633  -46.8285 C.3       8 UNK        -0.1800 
     34 N          -0.6297  -18.1614  -45.4277 N.am      8 UNK        -0.5000 
     35 C           0.5576  -18.4581  -44.8775 C.2       7 UNK         0.5000 
     36 O           1.1046  -19.5576  -44.9615 O.2       7 UNK        -0.5000 
     37 CA          1.2108  -17.3507  -44.0336 C.3       7 UNK         0.1400 
     38 CB          1.8915  -16.3070  -44.9323 C.3       7 UNK        -0.1800 
     39 N           0.2390  -16.6971  -43.1541 N.am      7 UNK        -0.5000 
     40 C          -0.3232  -17.2934  -42.0901 C.2       6 UNK         0.5000 
     41 O          -0.0364  -18.4314  -41.7220 O.2       6 UNK        -0.5000 
     42 CA         -1.4169  -16.5168  -41.3281 C.3       6 UNK         0.1400 
     43 CB         -0.7935  -15.6759  -40.2045 C.3       6 UNK        -0.1800 
     44 N          -2.2174  -15.6461  -42.1877 N.am      6 UNK        -0.5000 
     45 C          -2.9435  -16.0509  -43.2388 C.2       5 UNK         0.5000 
     46 O          -3.1139  -17.2345  -43.5278 O.2       5 UNK        -0.5000 
     47 CA         -3.5294  -14.9560  -44.1553 C.3       5 UNK         0.1400 
     48 CB         -5.0353  -14.7947  -43.9011 C.3       5 UNK        -0.1800 
     49 N          -2.8793  -13.6434  -44.0373 N.am      5 UNK        -0.5000 
     50 C          -1.5801  -13.3927  -44.2534 C.2       4 UNK         0.5000 
     51 O          -0.7573  -14.2648  -44.5459 O.2       4 UNK        -0.5000 
     52 CA         -1.1237  -11.9388  -44.0233 C.3       4 UNK         0.1400 
     53 CB         -1.0622  -11.6322  -42.5175 C.3       4 UNK        -0.1800 
     54 N           0.1936  -11.6749  -44.6014 N.am      4 UNK        -0.5000 
     55 C           0.4543  -11.6139  -45.9115 C.2       3 UNK         0.5000 
     56 O          -0.4095  -11.6814  -46.7919 O.2       3 UNK        -0.5000 
     57 CA          1.9321  -11.4545  -46.2971 C.3       3 UNK         0.1400 
     58 CB          2.7281  -12.7377  -45.9971 C.3       3 UNK        -0.1800 
     59 N           2.0052  -11.1217  -47.7166 N.am      3 UNK        -0.5000 
     60 C           2.9729  -10.4150  -48.3066 C.2       2 UNK         0.5000 
     61 O           4.0233  -10.0910  -47.7516 O.2       2 UNK        -0.5000 
     62 CA          2.7082  -10.0202  -49.7717 C.3       2 UNK         0.1400 
     63 CB          3.8081   -9.1433  -50.4105 C.3       2 UNK        -0.1800 
     64 N           2.3374  -11.1483  -50.6366 N.am      2 UNK        -0.5000 
     65 C           3.0027  -12.2607  -50.9906 C.2       1 UNK         0.5000 
     66 O           2.5075  -13.0388  -51.8069 O.2       1 UNK        -0.5000 
     67 C           0.5777  -24.4111  -46.0987 C.2       11 UNK         0.5000 
     68 O           0.8758  -25.4815  -46.6311 O.2       11 UNK        -0.5000 
     69 N          -0.6796  -24.0415  -45.8084 N.am      12 UNK        -0.5000 
     70 CA         -1.9090  -24.8262  -45.9218 C.3       12 UNK         0.1400 
     71 CB         -1.9252  -25.9640  -44.8802 C.3       12 UNK        -0.1800 
     72 C          -2.1884  -25.3127  -47.3543 C.2       12 UNK         0.5000 
     73 O          -2.8345  -24.5954  -48.1197 O.2       12 UNK        -0.5000 
     74 N          -1.7201  -26.5209  -47.6948 N.am      13 UNK        -0.5000 
     75 CA         -1.9196  -27.1877  -48.9838 C.3       13 UNK         0.1400 
     76 CB         -1.2653  -28.5760  -48.9414 C.3       13 UNK        -0.1800 
     77 C          -1.3984  -26.3800  -50.1862 C.2       13 UNK         0.5000 
     78 O          -2.0502  -26.3627  -51.2303 O.2       13 UNK        -0.5000 
     79 N          -0.2742  -25.6743  -49.9991 N.am      14 UNK        -0.5000 
     80 CA          0.3256  -24.7848  -50.9992 C.3       14 UNK         0.1400 
     81 CB          1.7235  -24.3691  -50.5248 C.3       14 UNK        -0.1800 
     82 C          -0.5301  -23.5393  -51.3093 C.2       14 UNK         0.5000 
     83 O          -0.4091  -22.9788  -52.3975 O.2       14 UNK        -0.5000 
     84 N          -1.3970  -23.1522  -50.3653 N.am      15 UNK        -0.5000 
     85 CA         -2.3786  -22.0776  -50.4926 C.3       15 UNK         0.1400 
     86 CB         -2.4471  -21.3286  -49.1527 C.3       15 UNK        -0.1800 
     87 C          -3.7672  -22.6008  -50.9114 C.2       15 UNK         0.5000 
     88 O          -4.7411  -21.8539  -50.7994 O.2       15 UNK        -0.5000 
     89 N          -3.8397  -23.8622  -51.3646 N.am      16 UNK        -0.5000 
     90 CA         -5.0426  -24.6059  -51.7481 C.3       16 UNK         0.1400 
     91 CB         -5.7526  -23.9446  -52.9453 C.3       16 UNK        -0.1800 
     92 C          -5.9699  -24.8452  -50.5416 C.2       16 UNK         0.5000 
     93 O          -7.1538  -24.5104  -50.5858 O.2       16 UNK        -0.5000 
     94 N          -5.3844  -25.4087  -49.4756 N.am      17 UNK        -0.5000 
     95 CA         -5.9949  -25.7042  -48.1751 C.3       17 UNK         0.1400 
     96 CB         -7.1555  -26.7130  -48.3080 C.3       17 UNK        -0.1800 
     97 C          -6.3759  -24.4157  -47.4211 C.2       17 UNK         0.5000 
     98 O          -7.5006  -24.2826  -46.9365 O.2       17 UNK        -0.5000 
     99 N          -5.4080  -23.4888  -47.3526 N.am      18 UNK        -0.5000 
    100 CA        -5.4662  -22.1862  -46.6780 C.3       18 UNK         0.1400 
    101 CB        -5.6484  -22.3646  -45.1569 C.3       18 UNK        -0.1800 
    102 C         -6.4884  -21.2000  -47.2848 C.2       18 UNK         0.5000 
    103 O         -6.8972  -20.2535  -46.6109 O.2       18 UNK        -0.5000 
    104 N         -6.8647  -21.4106  -48.5536 N.am      19 UNK        -0.5000 
    105 CA        -7.7644  -20.5364  -49.3108 C.3       19 UNK         0.1400 
    106 CB        -8.3380  -21.3275  -50.4961 C.3       19 UNK        -0.1800 
    107 C         -7.0741  -19.2526  -49.8128 C.2       19 UNK         0.5000 
    108 O         -7.7649  -18.3095  -50.1993 O.2       19 UNK        -0.5000 
    109 N         -5.7324  -19.2611  -49.8216 N.am      20 UNK        -0.5000 
    110 CA        -4.8286  -18.2557  -50.3891 C.3       20 UNK         0.1400 
    111 CB        -5.0055  -16.8775  -49.7190 C.3       20 UNK        -0.1800 
    112 C         -4.9022  -18.2108  -51.9295 C.2       20 UNK         0.5000 
    113 O         -4.6441  -17.1676  -52.5301 O.2       20 UNK        -0.5000 
    114 N         -5.2209  -19.3593  -52.5416 N.am      21 UNK        -0.5000 
    115 CA        -5.3290  -19.5526  -53.9866 C.3       21 UNK         0.1400 
    116 CB        -6.6862  -20.2031  -54.3080 C.3       21 UNK        -0.1800 
    117 C         -4.1242  -20.3655  -54.4938 C.2       21 UNK         0.5000 
    118 O         -4.2880  -21.3766  -55.1781 O.2       21 UNK        -0.5000 
    119 N         -2.9260  -19.9038  -54.1220 N.am      22 UNK        -0.5000 
    120 CA        -1.6265  -20.4010  -54.5938 C.3       22 UNK         0.1400 
    121 C         -1.3782  -20.1359  -56.1074 C.2       22 UNK         0.5000 
    122 N         -0.5398  -20.9383  -56.7497 N.am      22 UNK        -0.7600 
    123 O         -1.9113  -19.1996  -56.7000 O.2       22 UNK        -0.5000 
    124 C124       -0.4620  -19.8617  -53.7177 C.3       23 UNK        -0.0398 
    125 S125       -0.5308  -18.0616  -53.3936 S.3       23 UNK        -0.2404 
    126 C126       -1.0942  -18.0278  -51.6620 C.3       23 UNK        -0.0205 
    127 H127        7.8228  -12.5737  -53.3183 H         1 UNK         0.0600 
    128 H128        7.9531  -14.1983  -52.6356 H         1 UNK         0.0600 
    129 H129        6.5413  -13.7559  -53.5991 H         1 UNK         0.0600 
    130 H130        4.7223  -13.3603  -52.3386 H         1 UNK         0.3000 
    131 H131        4.8388  -11.6997  -49.9976 H         1 UNK         0.0600 
    132 H132        3.6861  -13.3382  -48.5065 H         1 UNK         0.0800 
    133 H133        5.3505  -13.7000  -48.8143 H         1 UNK         0.0800 
    134 H134        1.7208  -14.7903  -49.0558 H         1 UNK         0.0800 
    135 H135        2.6052  -15.6770  -47.8318 H         1 UNK         0.0800 
    136 H136        0.2987  -15.9473  -50.6126 H         1 UNK         0.1150 
    137 H137        0.1264  -20.2347  -50.5730 H         1 UNK         0.1150 
    138 H138        3.0334  -18.1839  -48.1886 H         1 UNK         0.1150 
    139 H139        2.3385  -21.3419  -49.7326 H         1 UNK         0.0800 
    140 H140        3.1814  -20.5430  -48.4276 H         1 UNK         0.0800 
    141 H141        2.6865  -23.3177  -47.6259 H         1 UNK         0.0800 
    142 H142        3.1312  -22.0499  -46.5264 H         1 UNK         0.0800 
    143 H143        2.5271  -24.0794  -45.3526 H         1 UNK         0.0600 
    144 H144        1.0916  -21.6244  -44.7524 H         1 UNK         0.3000 
    145 H145        0.6886  -22.6069  -41.2841 H         1 UNK         0.0600 
    146 H146        1.7540  -20.4055  -41.0171 H         1 UNK         0.0600 
    147 H147        2.9377  -21.5682  -41.5911 H         1 UNK         0.0600 
    148 H148        2.2540  -20.3938  -42.7066 H         1 UNK         0.0600 
    149 H149       -0.2315  -20.3092  -42.6968 H         1 UNK         0.3000 
    150 H150       -3.4822  -21.5871  -43.4598 H         1 UNK         0.0600 
    151 H151       -3.6485  -20.9421  -41.0711 H         1 UNK         0.0600 
    152 H152       -4.1556  -19.6110  -42.1013 H         1 UNK         0.0600 
    153 H153       -2.5672  -19.5813  -41.3368 H         1 UNK         0.0600 
    154 H154       -2.3820  -18.9869  -43.7831 H         1 UNK         0.3000 
    155 H155       -0.8487  -19.5255  -46.9739 H         1 UNK         0.0600 
    156 H156       -3.2479  -17.8395  -46.0934 H         1 UNK         0.0600 
    157 H157       -3.2956  -19.0544  -47.3548 H         1 UNK         0.0600 
    158 H158       -2.2853  -17.6318  -47.5560 H         1 UNK         0.0600 
    159 H159       -1.0144  -17.2420  -45.2704 H         1 UNK         0.3000 
    160 H160        1.9799  -17.8120  -43.4103 H         1 UNK         0.0600 
    161 H161        2.3751  -15.5310  -44.3391 H         1 UNK         0.0600 
    162 H162        1.1806  -15.8225  -45.6025 H         1 UNK         0.0600 
    163 H163        2.6603  -16.7717  -45.5507 H         1 UNK         0.0600 
    164 H164       -0.0787  -15.7747  -43.4360 H         1 UNK         0.3000 
    165 H165       -2.0905  -17.2473  -40.8766 H         1 UNK         0.0600 
    166 H166       -1.5612  -15.1861  -39.6051 H         1 UNK         0.0600 
    167 H167       -0.2056  -16.3002  -39.5302 H         1 UNK         0.0600 
    168 H168       -0.1312  -14.9042  -40.5993 H         1 UNK         0.0600 
    169 H169       -2.1359  -14.6540  -42.0258 H         1 UNK         0.3000 
    170 H170       -3.3917  -15.2965  -45.1835 H         1 UNK         0.0600 
    171 H171       -5.5550  -15.7477  -44.0111 H         1 UNK         0.0600 
    172 H172       -5.2357  -14.4257  -42.8945 H         1 UNK         0.0600 
    173 H173       -5.4839  -14.0995  -44.6109 H         1 UNK         0.0600 
    174 H174       -3.4824  -12.8754  -43.7791 H         1 UNK         0.3000 
    175 H175       -1.8490  -11.2707  -44.4925 H         1 UNK         0.0600 
    176 H176       -0.3584  -12.2869  -42.0015 H         1 UNK         0.0600 
    177 H177       -0.7542  -10.6019  -42.3377 H         1 UNK         0.0600 
    178 H178       -2.0369  -11.7613  -42.0455 H         1 UNK         0.0600 
    179 H179        0.9642  -11.6399  -43.9506 H         1 UNK         0.3000 
    180 H180        2.3423  -10.6278  -45.7130 H         1 UNK         0.0600 
    181 H181        2.3297  -13.5912  -46.5453 H         1 UNK         0.0600 
    182 H182        2.6883  -12.9871  -44.9364 H         1 UNK         0.0600 
    183 H183        3.7804  -12.6226  -46.2562 H         1 UNK         0.0600 
    184 H184        1.1509  -11.3247  -48.2226 H         1 UNK         0.3000 
    185 H185        1.8160   -9.3931  -49.7313 H         1 UNK         0.0600 
    186 H186        4.7736   -9.6373  -50.4926 H         1 UNK         0.0600 
    187 H187        3.9654   -8.2389  -49.8215 H         1 UNK         0.0600 
    188 H188        3.5171   -8.8231  -51.4110 H         1 UNK         0.0600 
    189 H189        1.4238  -11.0400  -51.0533 H         1 UNK         0.3000 
    190 H190       -0.8255  -23.0897  -45.4875 H         1 UNK         0.3000 
    191 H191       -2.7232  -24.1455  -45.6690 H         1 UNK         0.0600 
    192 H192       -1.0819  -26.6457  -44.9933 H         1 UNK         0.0600 
    193 H193       -2.8407  -26.5522  -44.9552 H         1 UNK         0.0600 
    194 H194       -1.8845  -25.5598  -43.8684 H         1 UNK         0.0600 
    195 H195       -1.1490  -27.0096  -47.0198 H         1 UNK         0.3000 
    196 H196       -2.9940  -27.3240  -49.1202 H         1 UNK         0.0600 
    197 H197       -1.4120  -29.1068  -49.8831 H         1 UNK         0.0600 
    198 H198       -1.6974  -29.1918  -48.1524 H         1 UNK         0.0600 
    199 H199       -0.1909  -28.5093  -48.7652 H         1 UNK         0.0600 
    200 H200        0.1832  -25.7290  -49.0985 H         1 UNK         0.3000 
    201 H201        0.4336  -25.3466  -51.9294 H         1 UNK         0.0600 
    202 H202        2.3637  -25.2367  -50.3649 H         1 UNK         0.0600 
    203 H203        1.6691  -23.8129  -49.5914 H         1 UNK         0.0600 
    204 H204        2.2150  -23.7310  -51.2604 H         1 UNK         0.0600 
    205 H205       -1.4635  -23.6983  -49.5150 H         1 UNK         0.3000 
    206 H206       -2.0669  -21.3708  -51.2624 H         1 UNK         0.0600 
    207 H207       -3.2022  -20.5472  -49.1640 H         1 UNK         0.0600 
    208 H208       -1.4978  -20.8509  -48.9210 H         1 UNK         0.0600 
    209 H209       -2.6835  -21.9993  -48.3285 H         1 UNK         0.0600 
    210 H210       -2.9816  -24.3985  -51.4007 H         1 UNK         0.3000 
    211 H211       -4.7028  -25.5895  -52.0758 H         1 UNK         0.0600 
    212 H212       -6.1938  -22.9893  -52.6695 H         1 UNK         0.0600 
    213 H213       -6.5578  -24.5780  -53.3186 H         1 UNK         0.0600 
    214 H214       -5.0622  -23.7715  -53.7708 H         1 UNK         0.0600 
    215 H215       -4.3846  -25.5492  -49.5194 H         1 UNK         0.3000 
    216 H216       -5.2202  -26.1863  -47.5774 H         1 UNK         0.0600 
    217 H217       -7.5091  -27.0277  -47.3256 H         1 UNK         0.0600 
    218 H218       -6.8392  -27.6094  -48.8412 H         1 UNK         0.0600 
    219 H219       -8.0088  -26.2900  -48.8384 H         1 UNK         0.0600 
    220 H220       -4.5164  -23.7185  -47.7830 H         1 UNK         0.3000 
    221 H221       -4.4902  -21.7261  -46.8310 H         1 UNK         0.0600 
    222 H222       -6.6355  -22.7549  -44.9087 H         1 UNK         0.0600 
    223 H223       -4.9048  -23.0491  -44.7492 H         1 UNK         0.0600 
    224 H224       -5.5374  -21.4129  -44.6364 H         1 UNK         0.0600 
    225 H225       -6.4811  -22.2020  -49.0528 H         1 UNK         0.3000 
    226 H226       -8.5927  -20.2378  -48.6650 H         1 UNK         0.0600 
    227 H227       -8.8705  -22.2162  -50.1566 H         1 UNK         0.0600 
    228 H228       -9.0435  -20.7235  -51.0679 H         1 UNK         0.0600 
    229 H229       -7.5526  -21.6499  -51.1801 H         1 UNK         0.0600 
    230 H230       -5.2999  -20.1387  -49.5642 H         1 UNK         0.3000 
    231 H231       -3.8192  -18.5893  -50.1532 H         1 UNK         0.0600 
    232 H232       -4.9673  -16.9596  -48.6327 H         1 UNK         0.0600 
    233 H233       -5.9526  -16.4103  -49.9889 H         1 UNK         0.0600 
    234 H234       -4.2102  -16.1946  -50.0199 H         1 UNK         0.0600 
    235 H235       -5.3420  -20.1897  -51.9717 H         1 UNK         0.3000 
    236 H236       -5.2985  -18.5919  -54.5046 H         1 UNK         0.0600 
    237 H237       -6.8116  -20.3370  -55.3830 H         1 UNK         0.0600 
    238 H238       -6.7905  -21.1801  -53.8404 H         1 UNK         0.0600 
    239 H239       -7.5103  -19.5798  -53.9606 H         1 UNK         0.0600 
    240 H240       -2.8912  -19.0337  -53.6116 H         1 UNK         0.3000 
    241 H241       -1.6486  -21.4859  -54.4713 H         1 UNK         0.0600 
    242 H242       -0.3597  -20.7744  -57.7283 H         1 UNK         0.3800 
    243 H243       -0.0878  -21.7131  -56.2887 H         1 UNK         0.3800 
    244 H244       -0.4629  -20.3894  -52.7670 H         1 UNK         0.0800 
    245 H245        0.5059  -20.0968  -54.1636 H         1 UNK         0.0800 
    246 H246       -1.7836  -18.8505  -51.4725 H         1 UNK         0.0800 
    247 H247       -1.6652  -17.1121  -51.4994 H         1 UNK         0.0800 
@<TRIPOS>BOND
     1    1    2 1    
     2    1  127 1    
     3    1  128 1    
     4    1  129 1    
     5    2    3 2    
     6    2    4 am   BACKBONE|DICT|INTERRES
     7    4    5 1    
     8    4  130 1    
     9    5    6 1    
    10    5   65 1    
    11    5  131 1    
    12    6    7 1    
    13    6  132 1    
    14    6  133 1    
    15    7    8 1    
    16    8    9 1    
    17    8  134 1    
    18    8  135 1    
    19    9   10 ar   
    20    9   14 ar   
    21   10   11 ar   
    22   10  136 1    
    23   11   12 ar   
    24   11  126 1    
    25   12   13 ar   
    26   12  137 1    
    27   13   14 ar   
    28   13   15 1    
    29   14  138 1    
    30   15   16 1    
    31   15  139 1    
    32   15  140 1    
    33   16   17 1    
    34   17   18 1    
    35   17  141 1    
    36   17  142 1    
    37   18   19 1    
    38   18   67 1    
    39   18  143 1    
    40   19   20 am   BACKBONE|DICT|INTERRES
    41   19  144 1    
    42   20   21 2    
    43   20   22 1    
    44   22   23 1    
    45   22   24 1    
    46   22  145 1    
    47   23  146 1    
    48   23  147 1    
    49   23  148 1    
    50   24   25 am   BACKBONE|DICT|INTERRES
    51   24  149 1    
    52   25   26 2    
    53   25   27 1    
    54   27   28 1    
    55   27   29 1    
    56   27  150 1    
    57   28  151 1    
    58   28  152 1    
    59   28  153 1    
    60   29   30 am   BACKBONE|DICT|INTERRES
    61   29  154 1    
    62   30   31 2    
    63   30   32 1    
    64   32   33 1    
    65   32   34 1    
    66   32  155 1    
    67   33  156 1    
    68   33  157 1    
    69   33  158 1    
    70   34   35 am   BACKBONE|DICT|INTERRES
    71   34  159 1    
    72   35   36 2    
    73   35   37 1    
    74   37   38 1    
    75   37   39 1    
    76   37  160 1    
    77   38  161 1    
    78   38  162 1    
    79   38  163 1    
    80   39   40 am   BACKBONE|DICT|INTERRES
    81   39  164 1    
    82   40   41 2    
    83   40   42 1    
    84   42   43 1    
    85   42   44 1    
    86   42  165 1    
    87   43  166 1    
    88   43  167 1    
    89   43  168 1    
    90   44   45 am   BACKBONE|DICT|INTERRES
    91   44  169 1    
    92   45   46 2    
    93   45   47 1    
    94   47   48 1    
    95   47   49 1    
    96   47  170 1    
    97   48  171 1    
    98   48  172 1    
    99   48  173 1    
   100   49   50 am   BACKBONE|DICT|INTERRES
   101   49  174 1    
   102   50   51 2    
   103   50   52 1    
   104   52   53 1    
   105   52   54 1    
   106   52  175 1    
   107   53  176 1    
   108   53  177 1    
   109   53  178 1    
   110   54   55 am   BACKBONE|DICT|INTERRES
   111   54  179 1    
   112   55   56 2    
   113   55   57 1    
   114   57   58 1    
   115   57   59 1    
   116   57  180 1    
   117   58  181 1    
   118   58  182 1    
   119   58  183 1    
   120   59   60 am   BACKBONE|DICT|INTERRES
   121   59  184 1    
   122   60   61 2    
   123   60   62 1    
   124   62   63 1    
   125   62   64 1    
   126   62  185 1    
   127   63  186 1    
   128   63  187 1    
   129   63  188 1    
   130   64   65 am   BACKBONE|DICT|INTERRES
   131   64  189 1    
   132   65   66 2    
   133   67   68 2    
   134   67   69 am   BACKBONE|DICT|INTERRES
   135   69   70 1    
   136   69  190 1    
   137   70   71 1    
   138   70   72 1    
   139   70  191 1    
   140   71  192 1    
   141   71  193 1    
   142   71  194 1    
   143   72   73 2    
   144   72   74 am   BACKBONE|DICT|INTERRES
   145   74   75 1    
   146   74  195 1    
   147   75   76 1    
   148   75   77 1    
   149   75  196 1    
   150   76  197 1    
   151   76  198 1    
   152   76  199 1    
   153   77   78 2    
   154   77   79 am   BACKBONE|DICT|INTERRES
   155   79   80 1    
   156   79  200 1    
   157   80   81 1    
   158   80   82 1    
   159   80  201 1    
   160   81  202 1    
   161   81  203 1    
   162   81  204 1    
   163   82   83 2    
   164   82   84 am   BACKBONE|DICT|INTERRES
   165   84   85 1    
   166   84  205 1    
   167   85   86 1    
   168   85   87 1    
   169   85  206 1    
   170   86  207 1    
   171   86  208 1    
   172   86  209 1    
   173   87   88 2    
   174   87   89 am   BACKBONE|DICT|INTERRES
   175   89   90 1    
   176   89  210 1    
   177   90   91 1    
   178   90   92 1    
   179   90  211 1    
   180   91  212 1    
   181   91  213 1    
   182   91  214 1    
   183   92   93 2    
   184   92   94 am   BACKBONE|DICT|INTERRES
   185   94   95 1    
   186   94  215 1    
   187   95   96 1    
   188   95   97 1    
   189   95  216 1    
   190   96  217 1    
   191   96  218 1    
   192   96  219 1    
   193   97   98 2    
   194   97   99 am   BACKBONE|DICT|INTERRES
   195   99  100 1    
   196   99  220 1    
   197  100  101 1    
   198  100  102 1    
   199  100  221 1    
   200  101  222 1    
   201  101  223 1    
   202  101  224 1    
   203  102  103 2    
   204  102  104 am   BACKBONE|DICT|INTERRES
   205  104  105 1    
   206  104  225 1    
   207  105  106 1    
   208  105  107 1    
   209  105  226 1    
   210  106  227 1    
   211  106  228 1    
   212  106  229 1    
   213  107  108 2    
   214  107  109 am   BACKBONE|DICT|INTERRES
   215  109  110 1    
   216  109  230 1    
   217  110  111 1    
   218  110  112 1    
   219  110  231 1    
   220  111  232 1    
   221  111  233 1    
   222  111  234 1    
   223  112  113 2    
   224  112  114 am   BACKBONE|DICT|INTERRES
   225  114  115 1    
   226  114  235 1    
   227  115  116 1    
   228  115  117 1    
   229  115  236 1    
   230  116  237 1    
   231  116  238 1    
   232  116  239 1    
   233  117  118 2    
   234  117  119 am   BACKBONE|DICT|INTERRES
   235  119  120 1    
   236  119  240 1    
   237  120  121 1    
   238  120  124 1    
   239  120  241 1    
   240  121  122 am   BACKBONE|DICT|INTERRES
   241  121  123 2    
   242  122  242 1    
   243  122  243 1    
   244  124  125 1    
   245  124  244 1    
   246  124  245 1    
   247  125  126 1    
   248  126  246 1    
   249  126  247 1    
@<TRIPOS>SUBSTRUCTURE
     1 UNK         1 GROUP             0       ****    0 ROOT    
