@<TRIPOS>MOLECULE
3R540
247   249    1
SMALL
USER_CHARGES


@<TRIPOS>ATOM
      1 CA         -4.8374  -12.9334  -44.6755 C.3       0 UNK        -0.1800 
      2 C          -5.3584  -14.3012  -45.1175 C.2       0 UNK         0.5000 
      3 O          -6.5555  -14.5476  -44.9907 O.2       0 UNK        -0.5000 
      4 N          -4.5307  -15.2261  -45.6280 N.am      1 UNK        -0.5000 
      5 CA         -3.0789  -15.1351  -45.8567 C.3       1 UNK         0.1400 
      6 C6         -2.5819  -16.2421  -46.8230 C.3       23 UNK        -0.0398 
      7 S7         -3.4406  -16.1666  -48.4342 S.3       23 UNK        -0.2404 
      8 C8         -2.1207  -15.6331  -49.5686 C.3       23 UNK        -0.0205 
      9 C9         -1.5288  -16.8186  -50.3136 C.ar      23 UNK        -0.0193 
     10 C10        -2.1415  -17.2797  -51.4820 C.ar      23 UNK        -0.1150 
     11 C11        -1.6211  -18.3761  -52.1738 C.ar      23 UNK        -0.0193 
     12 C12        -0.4766  -19.0141  -51.6888 C.ar      23 UNK        -0.1150 
     13 C13         0.1388  -18.5705  -50.5145 C.ar      23 UNK        -0.0193 
     14 C14        -0.3854  -17.4644  -49.8361 C.ar      23 UNK        -0.1150 
     15 C15         1.3378  -19.3215  -49.9514 C.3       23 UNK        -0.0205 
     16 S16         0.8642  -20.9500  -49.2806 S.3       23 UNK        -0.2404 
     17 C17        -0.5181  -20.4814  -48.1905 C.3       23 UNK        -0.0398 
     18 CA         -0.8586  -21.5650  -47.1465 C.3       11 UNK         0.1400 
     19 N           0.1354  -21.6765  -46.0769 N.am      11 UNK        -0.5000 
     20 C           0.1276  -22.6246  -45.1279 C.2       10 UNK         0.5000 
     21 O          -0.6718  -23.5600  -45.1057 O.2       10 UNK        -0.5000 
     22 CA          1.1330  -22.4646  -43.9719 C.3       10 UNK         0.1400 
     23 CB          2.5284  -22.9650  -44.3725 C.3       10 UNK        -0.1800 
     24 N           1.2127  -21.0814  -43.4986 N.am      10 UNK        -0.5000 
     25 C           0.1938  -20.4180  -42.9325 C.2       9 UNK         0.5000 
     26 O          -0.8940  -20.9339  -42.6732 O.2       9 UNK        -0.5000 
     27 CA          0.4022  -18.9162  -42.6662 C.3       9 UNK         0.1400 
     28 CB          1.0824  -18.6737  -41.3111 C.3       9 UNK        -0.1800 
     29 N           1.1765  -18.2771  -43.7296 N.am      9 UNK        -0.5000 
     30 C           0.7015  -18.0308  -44.9577 C.2       8 UNK         0.5000 
     31 O          -0.4561  -18.2716  -45.3008 O.2       8 UNK        -0.5000 
     32 CA          1.7009  -17.4926  -45.9985 C.3       8 UNK         0.1400 
     33 CB          1.7935  -15.9664  -45.9525 C.3       8 UNK        -0.1800 
     34 N           3.0394  -18.0606  -45.8444 N.am      8 UNK        -0.5000 
     35 C           3.3326  -19.3381  -46.1184 C.2       7 UNK         0.5000 
     36 O           2.5035  -20.1489  -46.5223 O.2       7 UNK        -0.5000 
     37 CA          4.7742  -19.8057  -45.8556 C.3       7 UNK         0.1400 
     38 CB          5.6563  -19.5408  -47.0844 C.3       7 UNK        -0.1800 
     39 N           5.3894  -19.1957  -44.6763 N.am      7 UNK        -0.5000 
     40 C           4.9091  -19.2621  -43.4270 C.2       6 UNK         0.5000 
     41 O           3.8515  -19.8210  -43.1323 O.2       6 UNK        -0.5000 
     42 CA          5.7379  -18.5953  -42.3122 C.3       6 UNK         0.1400 
     43 CB          7.1395  -18.1205  -42.7598 C.3       6 UNK        -0.1800 
     44 N           5.0162  -17.4985  -41.6615 N.am      6 UNK        -0.5000 
     45 C           4.5404  -16.3826  -42.2331 C.2       5 UNK         0.5000 
     46 O           4.5591  -16.1647  -43.4480 O.2       5 UNK        -0.5000 
     47 CA          3.9982  -15.3242  -41.2511 C.3       5 UNK         0.1400 
     48 CB          5.1121  -14.8236  -40.3133 C.3       5 UNK        -0.1800 
     49 N           3.4287  -14.1610  -41.9295 N.am      5 UNK        -0.5000 
     50 C           2.1890  -14.0956  -42.4226 C.2       4 UNK         0.5000 
     51 O           1.3893  -15.0338  -42.3905 O.2       4 UNK        -0.5000 
     52 CA          1.7803  -12.7457  -43.0388 C.3       4 UNK         0.1400 
     53 CB          2.0982  -12.6891  -44.5402 C.3       4 UNK        -0.1800 
     54 N           0.3476  -12.5525  -42.8530 N.am      4 UNK        -0.5000 
     55 C          -0.2097  -11.7503  -41.9360 C.2       3 UNK         0.5000 
     56 O           0.4225  -10.9402  -41.2569 O.2       3 UNK        -0.5000 
     57 CA         -1.7310  -11.8932  -41.7174 C.3       3 UNK         0.1400 
     58 CB         -2.4968  -10.8460  -42.5405 C.3       3 UNK        -0.1800 
     59 N          -2.2254  -13.2262  -42.0646 N.am      3 UNK        -0.5000 
     60 C          -1.9005  -14.3572  -41.4234 C.2       2 UNK         0.5000 
     61 O          -1.2974  -14.3746  -40.3497 O.2       2 UNK        -0.5000 
     62 CA         -2.2991  -15.6924  -42.0890 C.3       2 UNK         0.1400 
     63 CB         -3.2774  -16.4663  -41.1899 C.3       2 UNK        -0.1800 
     64 N          -2.8821  -15.5807  -43.4339 N.am      2 UNK        -0.5000 
     65 C          -2.2654  -15.1358  -44.5410 C.2       1 UNK         0.5000 
     66 O          -1.1236  -14.6796  -44.5410 O.2       1 UNK        -0.5000 
     67 C          -2.2733  -21.3268  -46.5901 C.2       11 UNK         0.5000 
     68 O          -3.2046  -21.9747  -47.0597 O.2       11 UNK        -0.5000 
     69 N          -2.4237  -20.4407  -45.5943 N.am      12 UNK        -0.5000 
     70 CA         -3.7031  -20.1631  -44.9328 C.3       12 UNK         0.1400 
     71 CB         -3.5343  -19.0322  -43.9109 C.3       12 UNK        -0.1800 
     72 C          -4.3106  -21.4088  -44.2623 C.2       12 UNK         0.5000 
     73 O          -5.4981  -21.6786  -44.4452 O.2       12 UNK        -0.5000 
     74 N          -3.4695  -22.1800  -43.5584 N.am      13 UNK        -0.5000 
     75 CA         -3.8249  -23.4673  -42.9539 C.3       13 UNK         0.1400 
     76 CB         -2.6589  -23.9514  -42.0791 C.3       13 UNK        -0.1800 
     77 C          -4.2143  -24.5426  -43.9906 C.2       13 UNK         0.5000 
     78 O          -5.0471  -25.3998  -43.6952 O.2       13 UNK        -0.5000 
     79 N          -3.6331  -24.4539  -45.1931 N.am      14 UNK        -0.5000 
     80 CA         -3.9142  -25.3030  -46.3505 C.3       14 UNK         0.1400 
     81 CB         -2.6101  -25.4832  -47.1459 C.3       14 UNK        -0.1800 
     82 C          -5.0450  -24.7533  -47.2492 C.2       14 UNK         0.5000 
     83 O          -5.2110  -25.2502  -48.3637 O.2       14 UNK        -0.5000 
     84 N          -5.7880  -23.7374  -46.7802 N.am      15 UNK        -0.5000 
     85 CA         -6.9108  -23.0723  -47.4551 C.3       15 UNK         0.1400 
     86 CB         -8.1096  -24.0339  -47.5945 C.3       15 UNK        -0.1800 
     87 C          -6.5051  -22.4068  -48.7890 C.2       15 UNK         0.5000 
     88 O          -7.1794  -22.5799  -49.8049 O.2       15 UNK        -0.5000 
     89 N          -5.3862  -21.6720  -48.7418 N.am      16 UNK        -0.5000 
     90 CA         -4.6775  -20.9851  -49.8284 C.3       16 UNK         0.1400 
     91 CB         -5.6018  -20.0708  -50.6591 C.3       16 UNK        -0.1800 
     92 C          -3.8211  -21.9247  -50.7005 C.2       16 UNK         0.5000 
     93 O          -3.2420  -21.4592  -51.6809 O.2       16 UNK        -0.5000 
     94 N          -3.7151  -23.2067  -50.3134 N.am      17 UNK        -0.5000 
     95 CA         -2.9132  -24.2594  -50.9425 C.3       17 UNK         0.1400 
     96 CB         -1.4107  -24.0105  -50.6727 C.3       17 UNK        -0.1800 
     97 C          -3.2686  -24.4326  -52.4354 C.2       17 UNK         0.5000 
     98 O          -4.4360  -24.6681  -52.7560 O.2       17 UNK        -0.5000 
     99 N          -2.2772  -24.2912  -53.3244 N.am      18 UNK        -0.5000 
    100 CA        -2.4468  -24.2274  -54.7737 C.3       18 UNK         0.1400 
    101 CB        -1.1137  -24.5976  -55.4453 C.3       18 UNK        -0.1800 
    102 C         -2.9494  -22.8270  -55.1767 C.2       18 UNK         0.5000 
    103 O         -2.1791  -22.0063  -55.6789 O.2       18 UNK        -0.5000 
    104 N         -4.2378  -22.5747  -54.9140 N.am      19 UNK        -0.5000 
    105 CA        -4.9061  -21.2754  -55.0313 C.3       19 UNK         0.1400 
    106 CB        -6.3602  -21.4237  -54.5595 C.3       19 UNK        -0.1800 
    107 C         -4.8520  -20.6285  -56.4298 C.2       19 UNK         0.5000 
    108 O         -4.9176  -19.4038  -56.5325 O.2       19 UNK        -0.5000 
    109 N         -4.7325  -21.4550  -57.4756 N.am      20 UNK        -0.5000 
    110 CA        -4.6071  -21.0195  -58.8659 C.3       20 UNK         0.1400 
    111 CB        -5.2383  -22.0923  -59.7681 C.3       20 UNK        -0.1800 
    112 C         -3.1488  -20.7550  -59.2931 C.2       20 UNK         0.5000 
    113 O         -2.9424  -20.1404  -60.3406 O.2       20 UNK        -0.5000 
    114 N         -2.1664  -21.2452  -58.5223 N.am      21 UNK        -0.5000 
    115 CA        -0.7476  -21.1963  -58.8820 C.3       21 UNK         0.1400 
    116 CB        -0.0397  -22.4421  -58.3281 C.3       21 UNK        -0.1800 
    117 C         -0.0440  -19.9219  -58.3875 C.2       21 UNK         0.5000 
    118 O          0.9184  -19.4884  -59.0237 O.2       21 UNK        -0.5000 
    119 N         -0.5057  -19.3563  -57.2646 N.am      22 UNK        -0.5000 
    120 CA         0.0423  -18.1219  -56.6806 C.3       22 UNK         0.1400 
    121 C         -0.2715  -16.8388  -57.5072 C.2       22 UNK         0.5000 
    122 N          0.4977  -15.7739  -57.3197 N.am      22 UNK        -0.7600 
    123 O         -1.2092  -16.7861  -58.3009 O.2       22 UNK        -0.5000 
    124 C124       -0.3287  -17.9728  -55.1823 C.3       23 UNK        -0.0398 
    125 S125       -2.1181  -17.8118  -54.8550 S.3       23 UNK        -0.2404 
    126 C126       -2.3297  -18.8997  -53.4133 C.3       23 UNK        -0.0205 
    127 H127       -3.8808  -12.6621  -45.1166 H         1 UNK         0.0600 
    128 H128       -4.7397  -12.9086  -43.5907 H         1 UNK         0.0600 
    129 H129       -5.5508  -12.1599  -44.9599 H         1 UNK         0.0600 
    130 H130       -4.9425  -16.0958  -45.9345 H         1 UNK         0.3000 
    131 H131       -2.8745  -14.1833  -46.3495 H         1 UNK         0.0600 
    132 H132       -2.7544  -17.2330  -46.4038 H         1 UNK         0.0800 
    133 H133       -1.5044  -16.1685  -46.9781 H         1 UNK         0.0800 
    134 H134       -1.3458  -15.0823  -49.0337 H         1 UNK         0.0800 
    135 H135       -2.5444  -14.9296  -50.2869 H         1 UNK         0.0800 
    136 H136       -3.0340  -16.7921  -51.8487 H         1 UNK         0.1150 
    137 H137       -0.0838  -19.8797  -52.2035 H         1 UNK         0.1150 
    138 H138        0.0803  -17.1186  -48.9248 H         1 UNK         0.1150 
    139 H139        2.0811  -19.4623  -50.7372 H         1 UNK         0.0800 
    140 H140        1.8271  -18.7424  -49.1672 H         1 UNK         0.0800 
    141 H141       -1.3736  -20.2889  -48.8418 H         1 UNK         0.0800 
    142 H142       -0.2892  -19.5367  -47.6966 H         1 UNK         0.0800 
    143 H143       -0.8838  -22.5276  -47.6600 H         1 UNK         0.0600 
    144 H144        0.8866  -20.9908  -46.0832 H         1 UNK         0.3000 
    145 H145        0.7820  -23.0781  -43.1394 H         1 UNK         0.0600 
    146 H146        3.2396  -22.8514  -43.5541 H         1 UNK         0.0600 
    147 H147        2.4987  -24.0230  -44.6355 H         1 UNK         0.0600 
    148 H148        2.9204  -22.4273  -45.2345 H         1 UNK         0.0600 
    149 H149        2.0966  -20.5982  -43.6246 H         1 UNK         0.3000 
    150 H150       -0.5841  -18.4502  -42.6347 H         1 UNK         0.0600 
    151 H151        0.5005  -19.1137  -40.5005 H         1 UNK         0.0600 
    152 H152        1.1734  -17.6071  -41.1040 H         1 UNK         0.0600 
    153 H153        2.0807  -19.1095  -41.2723 H         1 UNK         0.0600 
    154 H154        2.1527  -18.1000  -43.5411 H         1 UNK         0.3000 
    155 H155        1.3261  -17.7725  -46.9839 H         1 UNK         0.0600 
    156 H156        2.1718  -15.6255  -44.9895 H         1 UNK         0.0600 
    157 H157        0.8157  -15.5122  -46.1095 H         1 UNK         0.0600 
    158 H158        2.4569  -15.5849  -46.7286 H         1 UNK         0.0600 
    159 H159        3.7583  -17.4593  -45.4635 H         1 UNK         0.3000 
    160 H160        4.7436  -20.8835  -45.6862 H         1 UNK         0.0600 
    161 H161        5.7603  -18.4734  -47.2830 H         1 UNK         0.0600 
    162 H162        5.2300  -20.0009  -47.9771 H         1 UNK         0.0600 
    163 H163        6.6549  -19.9575  -46.9514 H         1 UNK         0.0600 
    164 H164        6.2534  -18.6959  -44.8273 H         1 UNK         0.3000 
    165 H165        5.8822  -19.3629  -41.5506 H         1 UNK         0.0600 
    166 H166        7.0899  -17.3292  -43.5088 H         1 UNK         0.0600 
    167 H167        7.7044  -17.7318  -41.9124 H         1 UNK         0.0600 
    168 H168        7.7214  -18.9431  -43.1777 H         1 UNK         0.0600 
    169 H169        4.9161  -17.5955  -40.6610 H         1 UNK         0.3000 
    170 H170        3.2215  -15.7960  -40.6450 H         1 UNK         0.0600 
    171 H171        5.9393  -14.3831  -40.8716 H         1 UNK         0.0600 
    172 H172        4.7355  -14.0687  -39.6226 H         1 UNK         0.0600 
    173 H173        5.5206  -15.6323  -39.7065 H         1 UNK         0.0600 
    174 H174        4.0428  -13.3676  -42.0404 H         1 UNK         0.3000 
    175 H175        2.3444  -11.9548  -42.5398 H         1 UNK         0.0600 
    176 H176        3.1264  -12.9923  -44.7422 H         1 UNK         0.0600 
    177 H177        1.9749  -11.6766  -44.9243 H         1 UNK         0.0600 
    178 H178        1.4385  -13.3382  -45.1146 H         1 UNK         0.0600 
    179 H179       -0.2352  -13.2426  -43.3161 H         1 UNK         0.3000 
    180 H180       -1.9340  -11.7176  -40.6590 H         1 UNK         0.0600 
    181 H181       -3.5679  -10.8945  -42.3436 H         1 UNK         0.0600 
    182 H182       -2.3438  -10.9846  -43.6115 H         1 UNK         0.0600 
    183 H183       -2.1674   -9.8368  -42.2901 H         1 UNK         0.0600 
    184 H184       -2.7182  -13.3113  -42.9389 H         1 UNK         0.3000 
    185 H185       -1.3799  -16.2739  -42.1787 H         1 UNK         0.0600 
    186 H186       -3.4726  -17.4644  -41.5773 H         1 UNK         0.0600 
    187 H187       -2.8744  -16.5916  -40.1840 H         1 UNK         0.0600 
    188 H188       -4.2324  -15.9477  -41.0978 H         1 UNK         0.0600 
    189 H189       -3.8350  -15.9011  -43.5284 H         1 UNK         0.3000 
    190 H190       -1.6226  -19.8967  -45.2899 H         1 UNK         0.3000 
    191 H191       -4.3992  -19.8228  -45.7023 H         1 UNK         0.0600 
    192 H192       -4.5028  -18.7129  -43.5244 H         1 UNK         0.0600 
    193 H193       -3.0560  -18.1636  -44.3554 H         1 UNK         0.0600 
    194 H194       -2.9290  -19.3411  -43.0597 H         1 UNK         0.0600 
    195 H195       -2.5124  -21.8639  -43.4310 H         1 UNK         0.3000 
    196 H196       -4.6905  -23.3040  -42.3088 H         1 UNK         0.0600 
    197 H197       -1.7566  -24.1185  -42.6677 H         1 UNK         0.0600 
    198 H198       -2.4204  -23.2243  -41.3026 H         1 UNK         0.0600 
    199 H199       -2.9062  -24.8903  -41.5822 H         1 UNK         0.0600 
    200 H200       -2.9410  -23.7285  -45.3363 H         1 UNK         0.3000 
    201 H201       -4.2333  -26.2879  -46.0047 H         1 UNK         0.0600 
    202 H202       -2.7438  -26.1717  -47.9809 H         1 UNK         0.0600 
    203 H203       -2.2596  -24.5353  -47.5519 H         1 UNK         0.0600 
    204 H204       -1.8176  -25.8888  -46.5168 H         1 UNK         0.0600 
    205 H205       -5.5428  -23.3535  -45.8755 H         1 UNK         0.3000 
    206 H206       -7.2207  -22.2602  -46.7957 H         1 UNK         0.0600 
    207 H207       -8.3871  -24.4593  -46.6301 H         1 UNK         0.0600 
    208 H208       -8.9852  -23.5118  -47.9820 H         1 UNK         0.0600 
    209 H209       -7.8935  -24.8579  -48.2751 H         1 UNK         0.0600 
    210 H210       -4.8515  -21.7051  -47.8764 H         1 UNK         0.3000 
    211 H211       -3.9621  -20.3312  -49.3276 H         1 UNK         0.0600 
    212 H212       -5.0179  -19.4234  -51.3141 H         1 UNK         0.0600 
    213 H213       -6.2004  -19.4246  -50.0174 H         1 UNK         0.0600 
    214 H214       -6.2793  -20.6422  -51.2931 H         1 UNK         0.0600 
    215 H215       -4.2773  -23.5070  -49.5280 H         1 UNK         0.3000 
    216 H216       -3.1896  -25.1938  -50.4524 H         1 UNK         0.0600 
    217 H217       -0.7976  -24.8256  -51.0588 H         1 UNK         0.0600 
    218 H218       -1.2116  -23.9471  -49.6041 H         1 UNK         0.0600 
    219 H219       -1.0587  -23.0811  -51.1226 H         1 UNK         0.0600 
    220 H220       -1.3601  -24.0544  -52.9755 H         1 UNK         0.3000 
    221 H221       -3.1933  -24.9611  -55.0854 H         1 UNK         0.0600 
    222 H222       -0.7964  -25.6014  -55.1625 H         1 UNK         0.0600 
    223 H223       -0.3151  -23.9061  -55.1736 H         1 UNK         0.0600 
    224 H224       -1.2103  -24.5841  -56.5312 H         1 UNK         0.0600 
    225 H225       -4.7603  -23.3012  -54.4395 H         1 UNK         0.3000 
    226 H226       -4.4011  -20.5989  -54.3445 H         1 UNK         0.0600 
    227 H227       -6.4061  -21.7946  -53.5352 H         1 UNK         0.0600 
    228 H228       -6.8785  -20.4641  -54.5801 H         1 UNK         0.0600 
    229 H229       -6.9188  -22.1142  -55.1925 H         1 UNK         0.0600 
    230 H230       -4.6952  -22.4485  -57.3014 H         1 UNK         0.3000 
    231 H231       -5.1637  -20.0907  -59.0088 H         1 UNK         0.0600 
    232 H232       -4.7210  -23.0486  -59.6796 H         1 UNK         0.0600 
    233 H233       -5.2003  -21.7946  -60.8169 H         1 UNK         0.0600 
    234 H234       -6.2868  -22.2525  -59.5161 H         1 UNK         0.0600 
    235 H235       -2.3916  -21.6698  -57.6290 H         1 UNK         0.3000 
    236 H236       -0.6513  -21.2243  -59.9697 H         1 UNK         0.0600 
    237 H237       -0.0312  -22.4484  -57.2383 H         1 UNK         0.0600 
    238 H238       -0.5226  -23.3576  -58.6699 H         1 UNK         0.0600 
    239 H239        0.9985  -22.4788  -58.6606 H         1 UNK         0.0600 
    240 H240       -1.3123  -19.7560  -56.8062 H         1 UNK         0.3000 
    241 H241        1.1284  -18.2318  -56.7123 H         1 UNK         0.0600 
    242 H242        1.2753  -15.7850  -56.6778 H         1 UNK         0.3800 
    243 H243        0.3025  -14.9334  -57.8417 H         1 UNK         0.3800 
    244 H244        0.1743  -17.1080  -54.7468 H         1 UNK         0.0800 
    245 H245        0.0574  -18.8359  -54.6388 H         1 UNK         0.0800 
    246 H246       -1.9965  -19.9092  -53.6610 H         1 UNK         0.0800 
    247 H247       -3.3934  -18.9728  -53.1889 H         1 UNK         0.0800 
@<TRIPOS>BOND
     1    1    2 1    
     2    1  127 1    
     3    1  128 1    
     4    1  129 1    
     5    2    3 2    
     6    2    4 am   BACKBONE|DICT|INTERRES
     7    4    5 1    
     8    4  130 1    
     9    5    6 1    
    10    5   65 1    
    11    5  131 1    
    12    6    7 1    
    13    6  132 1    
    14    6  133 1    
    15    7    8 1    
    16    8    9 1    
    17    8  134 1    
    18    8  135 1    
    19    9   10 ar   
    20    9   14 ar   
    21   10   11 ar   
    22   10  136 1    
    23   11   12 ar   
    24   11  126 1    
    25   12   13 ar   
    26   12  137 1    
    27   13   14 ar   
    28   13   15 1    
    29   14  138 1    
    30   15   16 1    
    31   15  139 1    
    32   15  140 1    
    33   16   17 1    
    34   17   18 1    
    35   17  141 1    
    36   17  142 1    
    37   18   19 1    
    38   18   67 1    
    39   18  143 1    
    40   19   20 am   BACKBONE|DICT|INTERRES
    41   19  144 1    
    42   20   21 2    
    43   20   22 1    
    44   22   23 1    
    45   22   24 1    
    46   22  145 1    
    47   23  146 1    
    48   23  147 1    
    49   23  148 1    
    50   24   25 am   BACKBONE|DICT|INTERRES
    51   24  149 1    
    52   25   26 2    
    53   25   27 1    
    54   27   28 1    
    55   27   29 1    
    56   27  150 1    
    57   28  151 1    
    58   28  152 1    
    59   28  153 1    
    60   29   30 am   BACKBONE|DICT|INTERRES
    61   29  154 1    
    62   30   31 2    
    63   30   32 1    
    64   32   33 1    
    65   32   34 1    
    66   32  155 1    
    67   33  156 1    
    68   33  157 1    
    69   33  158 1    
    70   34   35 am   BACKBONE|DICT|INTERRES
    71   34  159 1    
    72   35   36 2    
    73   35   37 1    
    74   37   38 1    
    75   37   39 1    
    76   37  160 1    
    77   38  161 1    
    78   38  162 1    
    79   38  163 1    
    80   39   40 am   BACKBONE|DICT|INTERRES
    81   39  164 1    
    82   40   41 2    
    83   40   42 1    
    84   42   43 1    
    85   42   44 1    
    86   42  165 1    
    87   43  166 1    
    88   43  167 1    
    89   43  168 1    
    90   44   45 am   BACKBONE|DICT|INTERRES
    91   44  169 1    
    92   45   46 2    
    93   45   47 1    
    94   47   48 1    
    95   47   49 1    
    96   47  170 1    
    97   48  171 1    
    98   48  172 1    
    99   48  173 1    
   100   49   50 am   BACKBONE|DICT|INTERRES
   101   49  174 1    
   102   50   51 2    
   103   50   52 1    
   104   52   53 1    
   105   52   54 1    
   106   52  175 1    
   107   53  176 1    
   108   53  177 1    
   109   53  178 1    
   110   54   55 am   BACKBONE|DICT|INTERRES
   111   54  179 1    
   112   55   56 2    
   113   55   57 1    
   114   57   58 1    
   115   57   59 1    
   116   57  180 1    
   117   58  181 1    
   118   58  182 1    
   119   58  183 1    
   120   59   60 am   BACKBONE|DICT|INTERRES
   121   59  184 1    
   122   60   61 2    
   123   60   62 1    
   124   62   63 1    
   125   62   64 1    
   126   62  185 1    
   127   63  186 1    
   128   63  187 1    
   129   63  188 1    
   130   64   65 am   BACKBONE|DICT|INTERRES
   131   64  189 1    
   132   65   66 2    
   133   67   68 2    
   134   67   69 am   BACKBONE|DICT|INTERRES
   135   69   70 1    
   136   69  190 1    
   137   70   71 1    
   138   70   72 1    
   139   70  191 1    
   140   71  192 1    
   141   71  193 1    
   142   71  194 1    
   143   72   73 2    
   144   72   74 am   BACKBONE|DICT|INTERRES
   145   74   75 1    
   146   74  195 1    
   147   75   76 1    
   148   75   77 1    
   149   75  196 1    
   150   76  197 1    
   151   76  198 1    
   152   76  199 1    
   153   77   78 2    
   154   77   79 am   BACKBONE|DICT|INTERRES
   155   79   80 1    
   156   79  200 1    
   157   80   81 1    
   158   80   82 1    
   159   80  201 1    
   160   81  202 1    
   161   81  203 1    
   162   81  204 1    
   163   82   83 2    
   164   82   84 am   BACKBONE|DICT|INTERRES
   165   84   85 1    
   166   84  205 1    
   167   85   86 1    
   168   85   87 1    
   169   85  206 1    
   170   86  207 1    
   171   86  208 1    
   172   86  209 1    
   173   87   88 2    
   174   87   89 am   BACKBONE|DICT|INTERRES
   175   89   90 1    
   176   89  210 1    
   177   90   91 1    
   178   90   92 1    
   179   90  211 1    
   180   91  212 1    
   181   91  213 1    
   182   91  214 1    
   183   92   93 2    
   184   92   94 am   BACKBONE|DICT|INTERRES
   185   94   95 1    
   186   94  215 1    
   187   95   96 1    
   188   95   97 1    
   189   95  216 1    
   190   96  217 1    
   191   96  218 1    
   192   96  219 1    
   193   97   98 2    
   194   97   99 am   BACKBONE|DICT|INTERRES
   195   99  100 1    
   196   99  220 1    
   197  100  101 1    
   198  100  102 1    
   199  100  221 1    
   200  101  222 1    
   201  101  223 1    
   202  101  224 1    
   203  102  103 2    
   204  102  104 am   BACKBONE|DICT|INTERRES
   205  104  105 1    
   206  104  225 1    
   207  105  106 1    
   208  105  107 1    
   209  105  226 1    
   210  106  227 1    
   211  106  228 1    
   212  106  229 1    
   213  107  108 2    
   214  107  109 am   BACKBONE|DICT|INTERRES
   215  109  110 1    
   216  109  230 1    
   217  110  111 1    
   218  110  112 1    
   219  110  231 1    
   220  111  232 1    
   221  111  233 1    
   222  111  234 1    
   223  112  113 2    
   224  112  114 am   BACKBONE|DICT|INTERRES
   225  114  115 1    
   226  114  235 1    
   227  115  116 1    
   228  115  117 1    
   229  115  236 1    
   230  116  237 1    
   231  116  238 1    
   232  116  239 1    
   233  117  118 2    
   234  117  119 am   BACKBONE|DICT|INTERRES
   235  119  120 1    
   236  119  240 1    
   237  120  121 1    
   238  120  124 1    
   239  120  241 1    
   240  121  122 am   BACKBONE|DICT|INTERRES
   241  121  123 2    
   242  122  242 1    
   243  122  243 1    
   244  124  125 1    
   245  124  244 1    
   246  124  245 1    
   247  125  126 1    
   248  126  246 1    
   249  126  247 1    
@<TRIPOS>SUBSTRUCTURE
     1 UNK         1 GROUP             0       ****    0 ROOT    
