@<TRIPOS>MOLECULE
3R540
247   249    1
SMALL
USER_CHARGES


@<TRIPOS>ATOM
      1 CA         -5.0913  -13.7425  -44.6129 C.3       0 UNK        -0.1800 
      2 C          -4.3924  -12.4101  -44.8461 C.2       0 UNK         0.5000 
      3 O          -5.0525  -11.3731  -44.9081 O.2       0 UNK        -0.5000 
      4 N          -3.0598  -12.4371  -44.9678 N.am      1 UNK        -0.5000 
      5 CA         -2.2135  -11.2637  -45.2359 C.3       1 UNK         0.1400 
      6 C6         -1.0027  -11.6222  -46.1364 C.3       23 UNK        -0.0398 
      7 S7         -1.5348  -12.2203  -47.7775 S.3       23 UNK        -0.2404 
      8 C8         -1.2910  -14.0130  -47.6046 C.3       23 UNK        -0.0205 
      9 C9         -2.2671  -14.7860  -48.4740 C.ar      23 UNK        -0.0193 
     10 C10        -2.0133  -14.9623  -49.8359 C.ar      23 UNK        -0.1150 
     11 C11        -2.9158  -15.6634  -50.6413 C.ar      23 UNK        -0.0193 
     12 C12        -4.0807  -16.1889  -50.0734 C.ar      23 UNK        -0.1150 
     13 C13        -4.3378  -16.0310  -48.7078 C.ar      23 UNK        -0.0193 
     14 C14        -3.4283  -15.3257  -47.9149 C.ar      23 UNK        -0.1150 
     15 C15        -5.5893  -16.6306  -48.0798 C.3       23 UNK        -0.0205 
     16 S16        -5.5706  -18.4540  -48.0744 S.3       23 UNK        -0.2404 
     17 C17        -3.9426  -18.8047  -47.3315 C.3       23 UNK        -0.0398 
     18 CA         -3.7053  -20.3184  -47.1150 C.3       11 UNK         0.1400 
     19 N          -2.3023  -20.6876  -47.3184 N.am      11 UNK        -0.5000 
     20 C          -1.8592  -21.9454  -47.4413 C.2       10 UNK         0.5000 
     21 O          -2.5986  -22.9310  -47.4351 O.2       10 UNK        -0.5000 
     22 CA         -0.3356  -22.1346  -47.5549 C.3       10 UNK         0.1400 
     23 CB          0.1477  -21.8184  -48.9749 C.3       10 UNK        -0.1800 
     24 N           0.4125  -21.3143  -46.6046 N.am      10 UNK        -0.5000 
     25 C           0.3282  -21.4157  -45.2720 C.2       9 UNK         0.5000 
     26 O          -0.3553  -22.2598  -44.6939 O.2       9 UNK        -0.5000 
     27 CA          1.0925  -20.3622  -44.4493 C.3       9 UNK         0.1400 
     28 CB          2.5781  -20.7316  -44.3266 C.3       9 UNK        -0.1800 
     29 N           0.9695  -19.0154  -45.0083 N.am      9 UNK        -0.5000 
     30 C          -0.1836  -18.3435  -45.1384 C.2       8 UNK         0.5000 
     31 O          -1.2753  -18.7702  -44.7642 O.2       8 UNK        -0.5000 
     32 CA         -0.1109  -16.9906  -45.8642 C.3       8 UNK         0.1400 
     33 CB          0.4369  -15.8951  -44.9335 C.3       8 UNK        -0.1800 
     34 N           0.6990  -17.0726  -47.0813 N.am      8 UNK        -0.5000 
     35 C           0.3546  -17.7839  -48.1663 C.2       7 UNK         0.5000 
     36 O          -0.6958  -18.4157  -48.2581 O.2       7 UNK        -0.5000 
     37 CA          1.3769  -17.8429  -49.3165 C.3       7 UNK         0.1400 
     38 CB          1.2211  -16.6334  -50.2492 C.3       7 UNK        -0.1800 
     39 N           2.7565  -17.9111  -48.8335 N.am      7 UNK        -0.5000 
     40 C           3.2760  -18.9571  -48.1745 C.2       6 UNK         0.5000 
     41 O           2.6555  -19.9903  -47.9285 O.2       6 UNK        -0.5000 
     42 CA          4.7120  -18.7882  -47.6439 C.3       6 UNK         0.1400 
     43 CB          5.7390  -19.1055  -48.7410 C.3       6 UNK        -0.1800 
     44 N           4.9607  -17.4450  -47.1105 N.am      6 UNK        -0.5000 
     45 C           4.3108  -16.9244  -46.0623 C.2       5 UNK         0.5000 
     46 O           3.4523  -17.5352  -45.4182 O.2       5 UNK        -0.5000 
     47 CA          4.6258  -15.4657  -45.7095 C.3       5 UNK         0.1400 
     48 CB          3.9132  -14.5109  -46.6888 C.3       5 UNK        -0.1800 
     49 N           4.1658  -15.2292  -44.3468 N.am      5 UNK        -0.5000 
     50 C           4.4529  -14.1730  -43.5837 C.2       4 UNK         0.5000 
     51 O           5.1885  -13.2464  -43.9335 O.2       4 UNK        -0.5000 
     52 CA          3.8298  -14.1679  -42.1761 C.3       4 UNK         0.1400 
     53 CB          4.8427  -14.6632  -41.1323 C.3       4 UNK        -0.1800 
     54 N           3.3699  -12.8316  -41.8021 N.am      4 UNK        -0.5000 
     55 C           2.3109  -12.2208  -42.3457 C.2       3 UNK         0.5000 
     56 O           1.5725  -12.7424  -43.1867 O.2       3 UNK        -0.5000 
     57 CA          2.0490  -10.7751  -41.8853 C.3       3 UNK         0.1400 
     58 CB          2.7793   -9.7801  -42.8002 C.3       3 UNK        -0.1800 
     59 N           0.6209  -10.4747  -41.9108 N.am      3 UNK        -0.5000 
     60 C          -0.2815  -10.9429  -41.0427 C.2       2 UNK         0.5000 
     61 O           0.0147  -11.5529  -40.0143 O.2       2 UNK        -0.5000 
     62 CA         -1.7664  -10.7280  -41.3960 C.3       2 UNK         0.1400 
     63 CB         -2.2230   -9.2905  -41.0806 C.3       2 UNK        -0.1800 
     64 N          -2.1116  -11.1260  -42.7696 N.am      2 UNK        -0.5000 
     65 C          -1.7477  -10.5690  -43.9363 C.2       1 UNK         0.5000 
     66 O          -1.0513   -9.5558  -44.0171 O.2       1 UNK        -0.5000 
     67 C          -4.2397  -20.7985  -45.7485 C.2       11 UNK         0.5000 
     68 O          -5.3758  -21.2659  -45.6759 O.2       11 UNK        -0.5000 
     69 N          -3.4012  -20.7199  -44.7040 N.am      12 UNK        -0.5000 
     70 CA         -3.6900  -21.2265  -43.3609 C.3       12 UNK         0.1400 
     71 CB         -2.6323  -20.7094  -42.3743 C.3       12 UNK        -0.1800 
     72 C          -3.7886  -22.7633  -43.3052 C.2       12 UNK         0.5000 
     73 O          -4.6441  -23.2841  -42.5883 O.2       12 UNK        -0.5000 
     74 N          -2.9394  -23.4607  -44.0766 N.am      13 UNK        -0.5000 
     75 CA         -2.9960  -24.9132  -44.2753 C.3       13 UNK         0.1400 
     76 CB         -1.7367  -25.3848  -45.0189 C.3       13 UNK        -0.1800 
     77 C          -4.2717  -25.3547  -45.0202 C.2       13 UNK         0.5000 
     78 O          -4.8126  -26.4197  -44.7223 O.2       13 UNK        -0.5000 
     79 N          -4.7403  -24.5007  -45.9422 N.am      14 UNK        -0.5000 
     80 CA         -6.0466  -24.5229  -46.6093 C.3       14 UNK         0.1400 
     81 CB         -7.1888  -24.3917  -45.5805 C.3       14 UNK        -0.1800 
     82 C          -6.2679  -25.6987  -47.5819 C.2       14 UNK         0.5000 
     83 O          -7.4025  -25.9336  -48.0018 O.2       14 UNK        -0.5000 
     84 N          -5.1894  -26.3839  -47.9842 N.am      15 UNK        -0.5000 
     85 CA         -5.1891  -27.4715  -48.9677 C.3       15 UNK         0.1400 
     86 CB         -3.9373  -28.3373  -48.7378 C.3       15 UNK        -0.1800 
     87 C          -5.2696  -26.9133  -50.4044 C.2       15 UNK         0.5000 
     88 O          -4.3229  -27.0585  -51.1795 O.2       15 UNK        -0.5000 
     89 N          -6.3647  -26.1963  -50.6984 N.am      16 UNK        -0.5000 
     90 CA         -6.5902  -25.3721  -51.8940 C.3       16 UNK         0.1400 
     91 CB         -6.7297  -26.2553  -53.1518 C.3       16 UNK        -0.1800 
     92 C          -5.5099  -24.2780  -52.0416 C.2       16 UNK         0.5000 
     93 O          -4.9884  -24.0637  -53.1360 O.2       16 UNK        -0.5000 
     94 N          -5.1465  -23.6603  -50.9054 N.am      17 UNK        -0.5000 
     95 CA         -4.0125  -22.7464  -50.7189 C.3       17 UNK         0.1400 
     96 CB         -4.2675  -21.3948  -51.4173 C.3       17 UNK        -0.1800 
     97 C          -2.6716  -23.3987  -51.1209 C.2       17 UNK         0.5000 
     98 O          -1.8863  -22.7946  -51.8498 O.2       17 UNK        -0.5000 
     99 N          -2.4710  -24.6470  -50.6691 N.am      18 UNK        -0.5000 
    100 CA        -1.3675  -25.5602  -50.9983 C.3       18 UNK         0.1400 
    101 CB        -0.0597  -25.1154  -50.3167 C.3       18 UNK        -0.1800 
    102 C         -1.2172  -25.7756  -52.5190 C.2       18 UNK         0.5000 
    103 O         -0.1179  -25.6491  -53.0606 O.2       18 UNK        -0.5000 
    104 N         -2.3505  -26.0719  -53.1714 N.am      19 UNK        -0.5000 
    105 CA        -2.5352  -26.1805  -54.6219 C.3       19 UNK         0.1400 
    106 CB        -1.7914  -27.4117  -55.1803 C.3       19 UNK        -0.1800 
    107 C         -2.1853  -24.8660  -55.3548 C.2       19 UNK         0.5000 
    108 O         -1.3998  -24.8700  -56.3049 O.2       19 UNK        -0.5000 
    109 N         -2.7937  -23.7684  -54.8841 N.am      20 UNK        -0.5000 
    110 CA        -2.6855  -22.3944  -55.3789 C.3       20 UNK         0.1400 
    111 CB        -3.3521  -22.2679  -56.7646 C.3       20 UNK        -0.1800 
    112 C         -1.2467  -21.8381  -55.3455 C.2       20 UNK         0.5000 
    113 O         -0.7630  -21.3020  -56.3451 O.2       20 UNK        -0.5000 
    114 N         -0.5906  -21.9387  -54.1829 N.am      21 UNK        -0.5000 
    115 CA         0.7439  -21.3994  -53.9056 C.3       21 UNK         0.1400 
    116 CB         1.3776  -22.2064  -52.7593 C.3       21 UNK        -0.1800 
    117 C          0.7055  -19.8819  -53.6115 C.2       21 UNK         0.5000 
    118 O          1.2205  -19.4313  -52.5870 O.2       21 UNK        -0.5000 
    119 N          0.0888  -19.1252  -54.5222 N.am      22 UNK        -0.5000 
    120 CA        -0.0741  -17.6687  -54.4916 C.3       22 UNK         0.1400 
    121 C          0.4492  -17.0678  -55.8211 C.2       22 UNK         0.5000 
    122 N          1.1457  -15.9406  -55.7701 N.am      22 UNK        -0.7600 
    123 O          0.1995  -17.5931  -56.9042 O.2       22 UNK        -0.5000 
    124 C124       -1.5585  -17.2798  -54.2671 C.3       23 UNK        -0.0398 
    125 S125       -2.0815  -17.5147  -52.5334 S.3       23 UNK        -0.2404 
    126 C126       -2.6411  -15.8302  -52.1271 C.3       23 UNK        -0.0205 
    127 H127       -4.3799  -14.5593  -44.4889 H         1 UNK         0.0600 
    128 H128       -5.7371  -13.9790  -45.4586 H         1 UNK         0.0600 
    129 H129       -5.7079  -13.6917  -43.7155 H         1 UNK         0.0600 
    130 H130       -2.5740  -13.3180  -44.8914 H         1 UNK         0.3000 
    131 H131       -2.8041  -10.5189  -45.7740 H         1 UNK         0.0600 
    132 H132       -0.3793  -10.7428  -46.3079 H         1 UNK         0.0800 
    133 H133       -0.3559  -12.3574  -45.6536 H         1 UNK         0.0800 
    134 H134       -1.4291  -14.3014  -46.5635 H         1 UNK         0.0800 
    135 H135       -0.2638  -14.2700  -47.8673 H         1 UNK         0.0800 
    136 H136       -1.1163  -14.5422  -50.2686 H         1 UNK         0.1150 
    137 H137       -4.7795  -16.7356  -50.6911 H         1 UNK         0.1150 
    138 H138       -3.6239  -15.1973  -46.8604 H         1 UNK         0.1150 
    139 H139       -5.7141  -16.2780  -47.0548 H         1 UNK         0.0800 
    140 H140       -6.4664  -16.2868  -48.6296 H         1 UNK         0.0800 
    141 H141       -3.8106  -18.2304  -46.4123 H         1 UNK         0.0800 
    142 H142       -3.2062  -18.4166  -48.0338 H         1 UNK         0.0800 
    143 H143       -4.2661  -20.8600  -47.8798 H         1 UNK         0.0600 
    144 H144       -1.6372  -19.9230  -47.3924 H         1 UNK         0.3000 
    145 H145       -0.1164  -23.1828  -47.3424 H         1 UNK         0.0600 
    146 H146        1.1895  -22.1075  -49.1135 H         1 UNK         0.0600 
    147 H147       -0.4415  -22.3541  -49.7124 H         1 UNK         0.0600 
    148 H148        0.0596  -20.7593  -49.2101 H         1 UNK         0.0600 
    149 H149        1.0501  -20.6311  -47.0028 H         1 UNK         0.3000 
    150 H150        0.6614  -20.3463  -43.4464 H         1 UNK         0.0600 
    151 H151        2.6991  -21.7208  -43.8835 H         1 UNK         0.0600 
    152 H152        3.1088  -20.0221  -43.6915 H         1 UNK         0.0600 
    153 H153        3.0727  -20.7432  -45.2981 H         1 UNK         0.0600 
    154 H154        1.8297  -18.5711  -45.3171 H         1 UNK         0.3000 
    155 H155       -1.1262  -16.7156  -46.1569 H         1 UNK         0.0600 
    156 H156        1.3988  -16.1685  -44.5029 H         1 UNK         0.0600 
    157 H157       -0.2471  -15.7177  -44.1028 H         1 UNK         0.0600 
    158 H158        0.5689  -14.9468  -45.4531 H         1 UNK         0.0600 
    159 H159        1.6073  -16.6368  -47.0568 H         1 UNK         0.3000 
    160 H160        1.1767  -18.7451  -49.8977 H         1 UNK         0.0600 
    161 H161        1.9208  -16.6869  -51.0834 H         1 UNK         0.0600 
    162 H162        1.3857  -15.6905  -49.7264 H         1 UNK         0.0600 
    163 H163        0.2186  -16.6071  -50.6759 H         1 UNK         0.0600 
    164 H164        3.3392  -17.1037  -48.9957 H         1 UNK         0.3000 
    165 H165        4.8499  -19.5036  -46.8303 H         1 UNK         0.0600 
    166 H166        6.7564  -19.0687  -48.3511 H         1 UNK         0.0600 
    167 H167        5.5824  -20.1075  -49.1429 H         1 UNK         0.0600 
    168 H168        5.6720  -18.4038  -49.5733 H         1 UNK         0.0600 
    169 H169        5.6515  -16.8870  -47.5917 H         1 UNK         0.3000 
    170 H170        5.7063  -15.3166  -45.7564 H         1 UNK         0.0600 
    171 H171        4.2139  -14.7032  -47.7193 H         1 UNK         0.0600 
    172 H172        2.8291  -14.6158  -46.6364 H         1 UNK         0.0600 
    173 H173        4.1545  -13.4694  -46.4771 H         1 UNK         0.0600 
    174 H174        3.5943  -15.9826  -43.9837 H         1 UNK         0.3000 
    175 H175        2.9689  -14.8405  -42.1663 H         1 UNK         0.0600 
    176 H176        5.7215  -14.0185  -41.0859 H         1 UNK         0.0600 
    177 H177        4.3990  -14.6991  -40.1371 H         1 UNK         0.0600 
    178 H178        5.1871  -15.6704  -41.3703 H         1 UNK         0.0600 
    179 H179        3.9510  -12.3238  -41.1513 H         1 UNK         0.3000 
    180 H180        2.4162  -10.6516  -40.8642 H         1 UNK         0.0600 
    181 H181        2.4351   -9.8573  -43.8326 H         1 UNK         0.0600 
    182 H182        3.8547   -9.9626  -42.7980 H         1 UNK         0.0600 
    183 H183        2.6227   -8.7529  -42.4705 H         1 UNK         0.0600 
    184 H184        0.2629  -10.0211  -42.7464 H         1 UNK         0.3000 
    185 H185       -2.3386  -11.3949  -40.7490 H         1 UNK         0.0600 
    186 H186       -2.0676   -9.0587  -40.0262 H         1 UNK         0.0600 
    187 H187       -3.2849   -9.1601  -41.2889 H         1 UNK         0.0600 
    188 H188       -1.6738   -8.5470  -41.6584 H         1 UNK         0.0600 
    189 H189       -2.6688  -11.9658  -42.8350 H         1 UNK         0.3000 
    190 H190       -2.5042  -20.2590  -44.8302 H         1 UNK         0.3000 
    191 H191       -4.6582  -20.8237  -43.0561 H         1 UNK         0.0600 
    192 H192       -2.8504  -21.0422  -41.3588 H         1 UNK         0.0600 
    193 H193       -2.6050  -19.6197  -42.3610 H         1 UNK         0.0600 
    194 H194       -1.6344  -21.0656  -42.6286 H         1 UNK         0.0600 
    195 H195       -2.2020  -22.9610  -44.5641 H         1 UNK         0.3000 
    196 H196       -3.0061  -25.3859  -43.2911 H         1 UNK         0.0600 
    197 H197       -1.7387  -26.4687  -45.1398 H         1 UNK         0.0600 
    198 H198       -0.8332  -25.1205  -44.4692 H         1 UNK         0.0600 
    199 H199       -1.6621  -24.9450  -46.0130 H         1 UNK         0.0600 
    200 H200       -4.1623  -23.6954  -46.1552 H         1 UNK         0.3000 
    201 H201       -6.0684  -23.6251  -47.2284 H         1 UNK         0.0600 
    202 H202       -7.0241  -23.5418  -44.9176 H         1 UNK         0.0600 
    203 H203       -7.2836  -25.2853  -44.9631 H         1 UNK         0.0600 
    204 H204       -8.1479  -24.2330  -46.0747 H         1 UNK         0.0600 
    205 H205       -4.2961  -26.1251  -47.5918 H         1 UNK         0.3000 
    206 H206       -6.0667  -28.1018  -48.8093 H         1 UNK         0.0600 
    207 H207       -3.9373  -28.7684  -47.7364 H         1 UNK         0.0600 
    208 H208       -3.8984  -29.1655  -49.4466 H         1 UNK         0.0600 
    209 H209       -3.0186  -27.7613  -48.8529 H         1 UNK         0.0600 
    210 H210       -7.0631  -26.1140  -49.9652 H         1 UNK         0.3000 
    211 H211       -7.5378  -24.8528  -51.7446 H         1 UNK         0.0600 
    212 H212       -5.8003  -26.7708  -53.3946 H         1 UNK         0.0600 
    213 H213       -7.0060  -25.6562  -54.0202 H         1 UNK         0.0600 
    214 H214       -7.5052  -27.0093  -53.0185 H         1 UNK         0.0600 
    215 H215       -5.6479  -23.9094  -50.0662 H         1 UNK         0.3000 
    216 H216       -3.9495  -22.5506  -49.6495 H         1 UNK         0.0600 
    217 H217       -3.4632  -20.6881  -51.2070 H         1 UNK         0.0600 
    218 H218       -5.1944  -20.9405  -51.0675 H         1 UNK         0.0600 
    219 H219       -4.3343  -21.5017  -52.4997 H         1 UNK         0.0600 
    220 H220       -3.2083  -25.0605  -50.1195 H         1 UNK         0.3000 
    221 H221       -1.6373  -26.5300  -50.5785 H         1 UNK         0.0600 
    222 H222        0.3425  -24.2110  -50.7703 H         1 UNK         0.0600 
    223 H223       -0.2091  -24.9292  -49.2534 H         1 UNK         0.0600 
    224 H224        0.7051  -25.8873  -50.4078 H         1 UNK         0.0600 
    225 H225       -3.1881  -26.1942  -52.6101 H         1 UNK         0.3000 
    226 H226       -3.6021  -26.3436  -54.7811 H         1 UNK         0.0600 
    227 H227       -2.0196  -27.5572  -56.2367 H         1 UNK         0.0600 
    228 H228       -0.7095  -27.3100  -55.0918 H         1 UNK         0.0600 
    229 H229       -2.0868  -28.3207  -54.6565 H         1 UNK         0.0600 
    230 H230       -3.4479  -23.8909  -54.1130 H         1 UNK         0.3000 
    231 H231       -3.2606  -21.7796  -54.6857 H         1 UNK         0.0600 
    232 H232       -4.3820  -22.6241  -56.7394 H         1 UNK         0.0600 
    233 H233       -2.8182  -22.8382  -57.5254 H         1 UNK         0.0600 
    234 H234       -3.3773  -21.2281  -57.0925 H         1 UNK         0.0600 
    235 H235       -1.0742  -22.3471  -53.3830 H         1 UNK         0.3000 
    236 H236        1.3691  -21.5400  -54.7896 H         1 UNK         0.0600 
    237 H237        1.4046  -23.2708  -52.9928 H         1 UNK         0.0600 
    238 H238        2.4037  -21.8873  -52.5735 H         1 UNK         0.0600 
    239 H239        0.8207  -22.0802  -51.8313 H         1 UNK         0.0600 
    240 H240       -0.2484  -19.5797  -55.3647 H         1 UNK         0.3000 
    241 H241        0.5252  -17.2464  -53.6820 H         1 UNK         0.0600 
    242 H242        1.3568  -15.4852  -54.8955 H         1 UNK         0.3800 
    243 H243        1.4797  -15.5334  -56.6303 H         1 UNK         0.3800 
    244 H244       -1.7284  -16.2382  -54.5458 H         1 UNK         0.0800 
    245 H245       -2.2133  -17.8675  -54.9128 H         1 UNK         0.0800 
    246 H246       -1.8862  -15.1105  -52.4481 H         1 UNK         0.0800 
    247 H247       -3.5454  -15.6036  -52.6938 H         1 UNK         0.0800 
@<TRIPOS>BOND
     1    1    2 1    
     2    1  127 1    
     3    1  128 1    
     4    1  129 1    
     5    2    3 2    
     6    2    4 am   BACKBONE|DICT|INTERRES
     7    4    5 1    
     8    4  130 1    
     9    5    6 1    
    10    5   65 1    
    11    5  131 1    
    12    6    7 1    
    13    6  132 1    
    14    6  133 1    
    15    7    8 1    
    16    8    9 1    
    17    8  134 1    
    18    8  135 1    
    19    9   10 ar   
    20    9   14 ar   
    21   10   11 ar   
    22   10  136 1    
    23   11   12 ar   
    24   11  126 1    
    25   12   13 ar   
    26   12  137 1    
    27   13   14 ar   
    28   13   15 1    
    29   14  138 1    
    30   15   16 1    
    31   15  139 1    
    32   15  140 1    
    33   16   17 1    
    34   17   18 1    
    35   17  141 1    
    36   17  142 1    
    37   18   19 1    
    38   18   67 1    
    39   18  143 1    
    40   19   20 am   BACKBONE|DICT|INTERRES
    41   19  144 1    
    42   20   21 2    
    43   20   22 1    
    44   22   23 1    
    45   22   24 1    
    46   22  145 1    
    47   23  146 1    
    48   23  147 1    
    49   23  148 1    
    50   24   25 am   BACKBONE|DICT|INTERRES
    51   24  149 1    
    52   25   26 2    
    53   25   27 1    
    54   27   28 1    
    55   27   29 1    
    56   27  150 1    
    57   28  151 1    
    58   28  152 1    
    59   28  153 1    
    60   29   30 am   BACKBONE|DICT|INTERRES
    61   29  154 1    
    62   30   31 2    
    63   30   32 1    
    64   32   33 1    
    65   32   34 1    
    66   32  155 1    
    67   33  156 1    
    68   33  157 1    
    69   33  158 1    
    70   34   35 am   BACKBONE|DICT|INTERRES
    71   34  159 1    
    72   35   36 2    
    73   35   37 1    
    74   37   38 1    
    75   37   39 1    
    76   37  160 1    
    77   38  161 1    
    78   38  162 1    
    79   38  163 1    
    80   39   40 am   BACKBONE|DICT|INTERRES
    81   39  164 1    
    82   40   41 2    
    83   40   42 1    
    84   42   43 1    
    85   42   44 1    
    86   42  165 1    
    87   43  166 1    
    88   43  167 1    
    89   43  168 1    
    90   44   45 am   BACKBONE|DICT|INTERRES
    91   44  169 1    
    92   45   46 2    
    93   45   47 1    
    94   47   48 1    
    95   47   49 1    
    96   47  170 1    
    97   48  171 1    
    98   48  172 1    
    99   48  173 1    
   100   49   50 am   BACKBONE|DICT|INTERRES
   101   49  174 1    
   102   50   51 2    
   103   50   52 1    
   104   52   53 1    
   105   52   54 1    
   106   52  175 1    
   107   53  176 1    
   108   53  177 1    
   109   53  178 1    
   110   54   55 am   BACKBONE|DICT|INTERRES
   111   54  179 1    
   112   55   56 2    
   113   55   57 1    
   114   57   58 1    
   115   57   59 1    
   116   57  180 1    
   117   58  181 1    
   118   58  182 1    
   119   58  183 1    
   120   59   60 am   BACKBONE|DICT|INTERRES
   121   59  184 1    
   122   60   61 2    
   123   60   62 1    
   124   62   63 1    
   125   62   64 1    
   126   62  185 1    
   127   63  186 1    
   128   63  187 1    
   129   63  188 1    
   130   64   65 am   BACKBONE|DICT|INTERRES
   131   64  189 1    
   132   65   66 2    
   133   67   68 2    
   134   67   69 am   BACKBONE|DICT|INTERRES
   135   69   70 1    
   136   69  190 1    
   137   70   71 1    
   138   70   72 1    
   139   70  191 1    
   140   71  192 1    
   141   71  193 1    
   142   71  194 1    
   143   72   73 2    
   144   72   74 am   BACKBONE|DICT|INTERRES
   145   74   75 1    
   146   74  195 1    
   147   75   76 1    
   148   75   77 1    
   149   75  196 1    
   150   76  197 1    
   151   76  198 1    
   152   76  199 1    
   153   77   78 2    
   154   77   79 am   BACKBONE|DICT|INTERRES
   155   79   80 1    
   156   79  200 1    
   157   80   81 1    
   158   80   82 1    
   159   80  201 1    
   160   81  202 1    
   161   81  203 1    
   162   81  204 1    
   163   82   83 2    
   164   82   84 am   BACKBONE|DICT|INTERRES
   165   84   85 1    
   166   84  205 1    
   167   85   86 1    
   168   85   87 1    
   169   85  206 1    
   170   86  207 1    
   171   86  208 1    
   172   86  209 1    
   173   87   88 2    
   174   87   89 am   BACKBONE|DICT|INTERRES
   175   89   90 1    
   176   89  210 1    
   177   90   91 1    
   178   90   92 1    
   179   90  211 1    
   180   91  212 1    
   181   91  213 1    
   182   91  214 1    
   183   92   93 2    
   184   92   94 am   BACKBONE|DICT|INTERRES
   185   94   95 1    
   186   94  215 1    
   187   95   96 1    
   188   95   97 1    
   189   95  216 1    
   190   96  217 1    
   191   96  218 1    
   192   96  219 1    
   193   97   98 2    
   194   97   99 am   BACKBONE|DICT|INTERRES
   195   99  100 1    
   196   99  220 1    
   197  100  101 1    
   198  100  102 1    
   199  100  221 1    
   200  101  222 1    
   201  101  223 1    
   202  101  224 1    
   203  102  103 2    
   204  102  104 am   BACKBONE|DICT|INTERRES
   205  104  105 1    
   206  104  225 1    
   207  105  106 1    
   208  105  107 1    
   209  105  226 1    
   210  106  227 1    
   211  106  228 1    
   212  106  229 1    
   213  107  108 2    
   214  107  109 am   BACKBONE|DICT|INTERRES
   215  109  110 1    
   216  109  230 1    
   217  110  111 1    
   218  110  112 1    
   219  110  231 1    
   220  111  232 1    
   221  111  233 1    
   222  111  234 1    
   223  112  113 2    
   224  112  114 am   BACKBONE|DICT|INTERRES
   225  114  115 1    
   226  114  235 1    
   227  115  116 1    
   228  115  117 1    
   229  115  236 1    
   230  116  237 1    
   231  116  238 1    
   232  116  239 1    
   233  117  118 2    
   234  117  119 am   BACKBONE|DICT|INTERRES
   235  119  120 1    
   236  119  240 1    
   237  120  121 1    
   238  120  124 1    
   239  120  241 1    
   240  121  122 am   BACKBONE|DICT|INTERRES
   241  121  123 2    
   242  122  242 1    
   243  122  243 1    
   244  124  125 1    
   245  124  244 1    
   246  124  245 1    
   247  125  126 1    
   248  126  246 1    
   249  126  247 1    
@<TRIPOS>SUBSTRUCTURE
     1 UNK         1 GROUP             0       ****    0 ROOT    
