@<TRIPOS>MOLECULE
3R540
247   249    1
SMALL
USER_CHARGES


@<TRIPOS>ATOM
      1 CA         -2.5960  -15.7258  -52.4581 C.3       0 UNK        -0.1800 
      2 C          -1.5195  -15.9936  -51.4153 C.2       0 UNK         0.5000 
      3 O          -0.3333  -15.9825  -51.7421 O.2       0 UNK        -0.5000 
      4 N          -1.9317  -16.2484  -50.1683 N.am      1 UNK        -0.5000 
      5 CA         -1.0457  -16.4994  -49.0285 C.3       1 UNK         0.1400 
      6 C6         -1.8058  -17.1067  -47.8262 C.3       23 UNK        -0.0398 
      7 S7         -2.4500  -18.7704  -48.1835 S.3       23 UNK        -0.2404 
      8 C8         -4.2313  -18.4416  -48.3242 C.3       23 UNK        -0.0205 
      9 C9         -4.9647  -19.7118  -48.7114 C.ar      23 UNK        -0.0193 
     10 C10        -5.0845  -20.0659  -50.0567 C.ar      23 UNK        -0.1150 
     11 C11        -5.7119  -21.2595  -50.4194 C.ar      23 UNK        -0.0193 
     12 C12        -6.2113  -22.1036  -49.4229 C.ar      23 UNK        -0.1150 
     13 C13        -6.1063  -21.7605  -48.0703 C.ar      23 UNK        -0.0193 
     14 C14        -5.4967  -20.5474  -47.7261 C.ar      23 UNK        -0.1150 
     15 C15        -6.6821  -22.7167  -47.0230 C.3       23 UNK        -0.0205 
     16 S16        -5.9564  -22.6050  -45.3467 S.3       23 UNK        -0.2404 
     17 C17        -4.2092  -23.0449  -45.6434 C.3       23 UNK        -0.0398 
     18 CA         -3.2453  -21.9417  -45.1371 C.3       11 UNK         0.1400 
     19 N          -3.2026  -21.8649  -43.6823 N.am      11 UNK        -0.5000 
     20 C          -3.5944  -20.8318  -42.9321 C.2       10 UNK         0.5000 
     21 O          -4.1282  -19.8186  -43.3833 O.2       10 UNK        -0.5000 
     22 CA         -3.2908  -20.9265  -41.4239 C.3       10 UNK         0.1400 
     23 CB         -4.1604  -21.9886  -40.7220 C.3       10 UNK        -0.1800 
     24 N          -1.8562  -21.1029  -41.1510 N.am      10 UNK        -0.5000 
     25 C          -1.0822  -22.1675  -41.4108 C.2       9 UNK         0.5000 
     26 O          -1.5176  -23.2421  -41.8268 O.2       9 UNK        -0.5000 
     27 CA          0.4392  -22.0032  -41.2510 C.3       9 UNK         0.1400 
     28 CB          1.0892  -21.8565  -42.6362 C.3       9 UNK        -0.1800 
     29 N           0.8438  -20.8628  -40.4275 N.am      9 UNK        -0.5000 
     30 C           0.8832  -20.8704  -39.0885 C.2       8 UNK         0.5000 
     31 O           0.4528  -21.7956  -38.3991 O.2       8 UNK        -0.5000 
     32 CA          1.5337  -19.6556  -38.4051 C.3       8 UNK         0.1400 
     33 CB          3.0645  -19.7266  -38.5279 C.3       8 UNK        -0.1800 
     34 N           1.0684  -18.4002  -38.9907 N.am      8 UNK        -0.5000 
     35 C           0.2163  -17.5509  -38.4000 C.2       7 UNK         0.5000 
     36 O          -0.2334  -17.7117  -37.2645 O.2       7 UNK        -0.5000 
     37 CA         -0.2229  -16.3103  -39.2083 C.3       7 UNK         0.1400 
     38 CB          0.6318  -15.0932  -38.8225 C.3       7 UNK        -0.1800 
     39 N          -0.1687  -16.4876  -40.6612 N.am      7 UNK        -0.5000 
     40 C          -0.8446  -17.4175  -41.3495 C.2       6 UNK         0.5000 
     41 O          -1.6416  -18.1990  -40.8348 O.2       6 UNK        -0.5000 
     42 CA         -0.5327  -17.5463  -42.8506 C.3       6 UNK         0.1400 
     43 CB         -1.4966  -16.6799  -43.6712 C.3       6 UNK        -0.1800 
     44 N           0.8497  -17.2061  -43.1994 N.am      6 UNK        -0.5000 
     45 C           1.9459  -17.8121  -42.7179 C.2       5 UNK         0.5000 
     46 O           1.9160  -18.7181  -41.8849 O.2       5 UNK        -0.5000 
     47 CA          3.2996  -17.2874  -43.2179 C.3       5 UNK         0.1400 
     48 CB          3.5834  -17.7584  -44.6521 C.3       5 UNK        -0.1800 
     49 N           3.3407  -15.8289  -43.1595 N.am      5 UNK        -0.5000 
     50 C           3.5932  -15.1299  -42.0442 C.2       4 UNK         0.5000 
     51 O           3.8942  -15.6439  -40.9667 O.2       4 UNK        -0.5000 
     52 CA          3.4745  -13.5972  -42.1428 C.3       4 UNK         0.1400 
     53 CB          4.8296  -12.9748  -42.5112 C.3       4 UNK        -0.1800 
     54 N           2.4665  -13.1573  -43.1092 N.am      4 UNK        -0.5000 
     55 C           1.1475  -13.3518  -42.9736 C.2       3 UNK         0.5000 
     56 O           0.6333  -13.9251  -42.0136 O.2       3 UNK        -0.5000 
     57 CA          0.2603  -12.8623  -44.1327 C.3       3 UNK         0.1400 
     58 CB         -0.0785  -11.3740  -43.9612 C.3       3 UNK        -0.1800 
     59 N           0.8460  -13.0787  -45.4604 N.am      3 UNK        -0.5000 
     60 C           1.1672  -14.2774  -45.9629 C.2       2 UNK         0.5000 
     61 O           1.0945  -15.3309  -45.3257 O.2       2 UNK        -0.5000 
     62 CA          1.6618  -14.3201  -47.4171 C.3       2 UNK         0.1400 
     63 CB          3.1646  -14.6358  -47.4673 C.3       2 UNK        -0.1800 
     64 N           0.9273  -15.3574  -48.1372 N.am      2 UNK        -0.5000 
     65 C          -0.3264  -15.2111  -48.5838 C.2       1 UNK         0.5000 
     66 O          -0.9306  -14.1354  -48.5933 O.2       1 UNK        -0.5000 
     67 C          -1.7985  -22.1867  -45.5869 C.2       11 UNK         0.5000 
     68 O          -1.3524  -23.3330  -45.6388 O.2       11 UNK        -0.5000 
     69 N          -1.0824  -21.0958  -45.8858 N.am      12 UNK        -0.5000 
     70 CA          0.3050  -21.0976  -46.3634 C.3       12 UNK         0.1400 
     71 CB          0.9319  -19.7300  -46.0485 C.3       12 UNK        -0.1800 
     72 C           0.4401  -21.4111  -47.8686 C.2       12 UNK         0.5000 
     73 O           1.5406  -21.2962  -48.4068 O.2       12 UNK        -0.5000 
     74 N          -0.6733  -21.7656  -48.5237 N.am      13 UNK        -0.5000 
     75 CA         -0.8698  -21.8997  -49.9675 C.3       13 UNK         0.1400 
     76 CB         -2.2468  -22.5335  -50.2103 C.3       13 UNK        -0.1800 
     77 C           0.2117  -22.6862  -50.7255 C.2       13 UNK         0.5000 
     78 O           0.6012  -22.2681  -51.8153 O.2       13 UNK        -0.5000 
     79 N           0.6855  -23.7887  -50.1314 N.am      14 UNK        -0.5000 
     80 CA          1.7192  -24.6551  -50.6999 C.3       14 UNK         0.1400 
     81 CB          1.7232  -25.9909  -49.9412 C.3       14 UNK        -0.1800 
     82 C           3.1256  -24.0252  -50.6866 C.2       14 UNK         0.5000 
     83 O           3.9300  -24.3313  -51.5672 O.2       14 UNK        -0.5000 
     84 N           3.3986  -23.1652  -49.6970 N.am      15 UNK        -0.5000 
     85 CA          4.6649  -22.4482  -49.5476 C.3       15 UNK         0.1400 
     86 CB          4.9420  -22.2149  -48.0536 C.3       15 UNK        -0.1800 
     87 C           4.6377  -21.1130  -50.3079 C.2       15 UNK         0.5000 
     88 O           5.6261  -20.7517  -50.9472 O.2       15 UNK        -0.5000 
     89 N           3.4992  -20.4122  -50.2303 N.am      16 UNK        -0.5000 
     90 CA          3.2552  -19.1249  -50.8792 C.3       16 UNK         0.1400 
     91 CB          2.0387  -18.4680  -50.2100 C.3       16 UNK        -0.1800 
     92 C           3.0344  -19.2348  -52.4003 C.2       16 UNK         0.5000 
     93 O           3.1983  -18.2349  -53.0998 O.2       16 UNK        -0.5000 
     94 N           2.6570  -20.4330  -52.8726 N.am      17 UNK        -0.5000 
     95 CA          2.2508  -20.7674  -54.2411 C.3       17 UNK         0.1400 
     96 CB          3.4179  -20.5881  -55.2349 C.3       17 UNK        -0.1800 
     97 C           0.9693  -20.0105  -54.6450 C.2       17 UNK         0.5000 
     98 O           0.9259  -19.3628  -55.6933 O.2       17 UNK        -0.5000 
     99 N          -0.0463  -20.0886  -53.7742 N.am      18 UNK        -0.5000 
    100 CA        -1.3545  -19.4624  -53.9645 C.3       18 UNK         0.1400 
    101 CB        -2.1325  -19.4934  -52.6396 C.3       18 UNK        -0.1800 
    102 C         -2.1609  -20.1545  -55.0792 C.2       18 UNK         0.5000 
    103 O         -2.0415  -21.3686  -55.2657 O.2       18 UNK        -0.5000 
    104 N         -2.9799  -19.3690  -55.7874 N.am      19 UNK        -0.5000 
    105 CA        -3.8728  -19.8445  -56.8427 C.3       19 UNK         0.1400 
    106 CB        -4.3613  -18.6368  -57.6585 C.3       19 UNK        -0.1800 
    107 C         -5.0744  -20.6172  -56.2708 C.2       19 UNK         0.5000 
    108 O         -5.5338  -20.3144  -55.1682 O.2       19 UNK        -0.5000 
    109 N         -5.6084  -21.5518  -57.0681 N.am      20 UNK        -0.5000 
    110 CA        -6.7846  -22.3715  -56.7481 C.3       20 UNK         0.1400 
    111 CB        -6.8748  -23.5191  -57.7666 C.3       20 UNK        -0.1800 
    112 C         -8.1133  -21.5846  -56.6959 C.2       20 UNK         0.5000 
    113 O         -9.1235  -22.1283  -56.2499 O.2       20 UNK        -0.5000 
    114 N         -8.0890  -20.3195  -57.1367 N.am      21 UNK        -0.5000 
    115 CA        -9.1904  -19.3572  -57.0684 C.3       21 UNK         0.1400 
    116 CB        -8.8898  -18.2143  -58.0529 C.3       21 UNK        -0.1800 
    117 C         -9.4544  -18.8038  -55.6486 C.2       21 UNK         0.5000 
    118 O        -10.3828  -18.0109  -55.4820 O.2       21 UNK        -0.5000 
    119 N         -8.6348  -19.2006  -54.6650 N.am      22 UNK        -0.5000 
    120 CA        -8.7540  -18.8721  -53.2367 C.3       22 UNK         0.1400 
    121 C        -10.1379  -19.1990  -52.5962 C.2       22 UNK         0.5000 
    122 N        -10.5363  -18.4609  -51.5681 N.am      22 UNK        -0.7600 
    123 O        -10.8390  -20.1270  -52.9947 O.2       22 UNK        -0.5000 
    124 C124       -7.5916  -19.5042  -52.4260 C.3       23 UNK        -0.0398 
    125 S125       -7.5096  -21.3304  -52.5248 S.3       23 UNK        -0.2404 
    126 C126       -5.8354  -21.6443  -51.8859 C.3       23 UNK        -0.0205 
    127 H127       -2.4565  -16.3780  -53.3198 H         1 UNK         0.0600 
    128 H128       -2.5373  -14.6924  -52.7994 H         1 UNK         0.0600 
    129 H129       -3.5967  -15.8988  -52.0614 H         1 UNK         0.0600 
    130 H130       -2.9167  -16.2098  -49.9557 H         1 UNK         0.3000 
    131 H131       -0.2907  -17.2184  -49.3483 H         1 UNK         0.0600 
    132 H132       -1.1374  -17.2069  -46.9710 H         1 UNK         0.0800 
    133 H133       -2.6152  -16.4507  -47.5004 H         1 UNK         0.0800 
    134 H134       -4.4092  -17.6672  -49.0711 H         1 UNK         0.0800 
    135 H135       -4.6100  -18.0573  -47.3757 H         1 UNK         0.0800 
    136 H136       -4.6757  -19.4183  -50.8192 H         1 UNK         0.1150 
    137 H137       -6.6919  -23.0297  -49.7062 H         1 UNK         0.1150 
    138 H138       -5.4212  -20.2502  -46.6908 H         1 UNK         0.1150 
    139 H139       -7.7534  -22.5284  -46.9447 H         1 UNK         0.0800 
    140 H140       -6.5765  -23.7466  -47.3680 H         1 UNK         0.0800 
    141 H141       -4.0632  -23.2184  -46.7111 H         1 UNK         0.0800 
    142 H142       -4.0032  -23.9968  -45.1511 H         1 UNK         0.0800 
    143 H143       -3.5604  -20.9868  -45.5611 H         1 UNK         0.0600 
    144 H144       -2.7098  -22.6203  -43.2127 H         1 UNK         0.3000 
    145 H145       -3.5611  -19.9638  -40.9888 H         1 UNK         0.0600 
    146 H146       -3.9499  -22.0243  -39.6531 H         1 UNK         0.0600 
    147 H147       -5.2193  -21.7546  -40.8375 H         1 UNK         0.0600 
    148 H148       -4.0073  -22.9885  -41.1276 H         1 UNK         0.0600 
    149 H149       -1.3969  -20.2546  -40.8378 H         1 UNK         0.3000 
    150 H150        0.8210  -22.9186  -40.7939 H         1 UNK         0.0600 
    151 H151        0.8632  -22.7145  -43.2709 H         1 UNK         0.0600 
    152 H152        2.1743  -21.7842  -42.5604 H         1 UNK         0.0600 
    153 H153        0.7290  -20.9657  -43.1503 H         1 UNK         0.0600 
    154 H154        1.2367  -20.0682  -40.9286 H         1 UNK         0.3000 
    155 H155        1.2836  -19.7011  -37.3431 H         1 UNK         0.0600 
    156 H156        3.4480  -20.6575  -38.1085 H         1 UNK         0.0600 
    157 H157        3.5390  -18.9069  -37.9882 H         1 UNK         0.0600 
    158 H158        3.3912  -19.6739  -39.5674 H         1 UNK         0.0600 
    159 H159        1.3696  -18.2062  -39.9385 H         1 UNK         0.3000 
    160 H160       -1.2603  -16.0994  -38.9412 H         1 UNK         0.0600 
    161 H161        1.6721  -15.2226  -39.1242 H         1 UNK         0.0600 
    162 H162        0.6189  -14.9291  -37.7443 H         1 UNK         0.0600 
    163 H163        0.2572  -14.1836  -39.2919 H         1 UNK         0.0600 
    164 H164        0.4129  -15.8352  -41.1755 H         1 UNK         0.3000 
    165 H165       -0.6919  -18.5901  -43.1290 H         1 UNK         0.0600 
    166 H166       -1.3138  -16.7896  -44.7381 H         1 UNK         0.0600 
    167 H167       -2.5329  -16.9666  -43.4868 H         1 UNK         0.0600 
    168 H168       -1.3959  -15.6238  -43.4211 H         1 UNK         0.0600 
    169 H169        0.9667  -16.4739  -43.8968 H         1 UNK         0.3000 
    170 H170        4.0803  -17.6948  -42.5717 H         1 UNK         0.0600 
    171 H171        3.6207  -18.8472  -44.6993 H         1 UNK         0.0600 
    172 H172        2.8178  -17.4235  -45.3521 H         1 UNK         0.0600 
    173 H173        4.5450  -17.3864  -45.0057 H         1 UNK         0.0600 
    174 H174        3.0439  -15.3322  -43.9873 H         1 UNK         0.3000 
    175 H175        3.1829  -13.2256  -41.1580 H         1 UNK         0.0600 
    176 H176        5.6000  -13.2649  -41.7954 H         1 UNK         0.0600 
    177 H177        5.1636  -13.2925  -43.4998 H         1 UNK         0.0600 
    178 H178        4.7780  -11.8858  -42.5072 H         1 UNK         0.0600 
    179 H179        2.8004  -12.6824  -43.9348 H         1 UNK         0.3000 
    180 H180       -0.6730  -13.4267  -44.0905 H         1 UNK         0.0600 
    181 H181       -0.5333  -11.1868  -42.9875 H         1 UNK         0.0600 
    182 H182        0.8106  -10.7464  -44.0345 H         1 UNK         0.0600 
    183 H183       -0.7885  -11.0412  -44.7185 H         1 UNK         0.0600 
    184 H184        0.9377  -12.2619  -46.0472 H         1 UNK         0.3000 
    185 H185        1.4915  -13.3526  -47.8943 H         1 UNK         0.0600 
    186 H186        3.7412  -13.8748  -46.9402 H         1 UNK         0.0600 
    187 H187        3.3939  -15.5981  -47.0080 H         1 UNK         0.0600 
    188 H188        3.5260  -14.6627  -48.4955 H         1 UNK         0.0600 
    189 H189        1.3414  -16.2770  -48.1216 H         1 UNK         0.3000 
    190 H190       -1.5279  -20.1908  -45.8298 H         1 UNK         0.3000 
    191 H191        0.8654  -21.8626  -45.8225 H         1 UNK         0.0600 
    192 H192        0.4508  -18.9268  -46.6056 H         1 UNK         0.0600 
    193 H193        1.9904  -19.7174  -46.3102 H         1 UNK         0.0600 
    194 H194        0.8584  -19.4937  -44.9889 H         1 UNK         0.0600 
    195 H195       -1.5143  -21.8214  -47.9715 H         1 UNK         0.3000 
    196 H196       -0.8778  -20.8871  -50.3725 H         1 UNK         0.0600 
    197 H197       -2.4650  -22.6214  -51.2752 H         1 UNK         0.0600 
    198 H198       -3.0350  -21.9316  -49.7622 H         1 UNK         0.0600 
    199 H199       -2.3107  -23.5337  -49.7802 H         1 UNK         0.0600 
    200 H200        0.3148  -24.0470  -49.2286 H         1 UNK         0.3000 
    201 H201        1.4595  -24.8570  -51.7414 H         1 UNK         0.0600 
    202 H202        2.4661  -26.6737  -50.3559 H         1 UNK         0.0600 
    203 H203        1.9571  -25.8533  -48.8847 H         1 UNK         0.0600 
    204 H204        0.7546  -26.4865  -50.0096 H         1 UNK         0.0600 
    205 H205        2.6563  -22.9035  -49.0593 H         1 UNK         0.3000 
    206 H206        5.4806  -23.0522  -49.9507 H         1 UNK         0.0600 
    207 H207        5.0047  -23.1597  -47.5137 H         1 UNK         0.0600 
    208 H208        5.8898  -21.6946  -47.9099 H         1 UNK         0.0600 
    209 H209        4.1630  -21.6127  -47.5842 H         1 UNK         0.0600 
    210 H210        2.7515  -20.7691  -49.6387 H         1 UNK         0.3000 
    211 H211        4.1249  -18.4853  -50.7151 H         1 UNK         0.0600 
    212 H212        1.8530  -17.4776  -50.6279 H         1 UNK         0.0600 
    213 H213        2.1947  -18.3482  -49.1377 H         1 UNK         0.0600 
    214 H214        1.1344  -19.0613  -50.3533 H         1 UNK         0.0600 
    215 H215        2.4960  -21.1660  -52.1939 H         1 UNK         0.3000 
    216 H216        1.9912  -21.8271  -54.2330 H         1 UNK         0.0600 
    217 H217        3.1445  -20.9584  -56.2235 H         1 UNK         0.0600 
    218 H218        4.2981  -21.1438  -54.9118 H         1 UNK         0.0600 
    219 H219        3.7040  -19.5424  -55.3480 H         1 UNK         0.0600 
    220 H220        0.0615  -20.7073  -52.9782 H         1 UNK         0.3000 
    221 H221       -1.1885  -18.4196  -54.2430 H         1 UNK         0.0600 
    222 H222       -1.5654  -19.0301  -51.8322 H         1 UNK         0.0600 
    223 H223       -3.0740  -18.9504  -52.7290 H         1 UNK         0.0600 
    224 H224       -2.3750  -20.5130  -52.3433 H         1 UNK         0.0600 
    225 H225       -3.0547  -18.3916  -55.5481 H         1 UNK         0.3000 
    226 H226       -3.3081  -20.5073  -57.5021 H         1 UNK         0.0600 
    227 H227       -4.9389  -17.9431  -57.0458 H         1 UNK         0.0600 
    228 H228       -3.5240  -18.0869  -58.0889 H         1 UNK         0.0600 
    229 H229       -4.9982  -18.9522  -58.4859 H         1 UNK         0.0600 
    230 H230       -5.1828  -21.7238  -57.9679 H         1 UNK         0.3000 
    231 H231       -6.6323  -22.8045  -55.7570 H         1 UNK         0.0600 
    232 H232       -5.9714  -24.1293  -57.7554 H         1 UNK         0.0600 
    233 H233       -7.0169  -23.1454  -58.7813 H         1 UNK         0.0600 
    234 H234       -7.7124  -24.1802  -57.5401 H         1 UNK         0.0600 
    235 H235       -7.2111  -19.9660  -57.4854 H         1 UNK         0.3000 
    236 H236      -10.1047  -19.8577  -57.3935 H         1 UNK         0.0600 
    237 H237       -8.7578  -18.5912  -59.0673 H         1 UNK         0.0600 
    238 H238       -9.7081  -17.4938  -58.0818 H         1 UNK         0.0600 
    239 H239       -7.9849  -17.6726  -57.7746 H         1 UNK         0.0600 
    240 H240       -7.8921  -19.8468  -54.8949 H         1 UNK         0.3000 
    241 H241       -8.6362  -17.7885  -53.1788 H         1 UNK         0.0600 
    242 H242       -9.9820  -17.6957  -51.2158 H         1 UNK         0.3800 
    243 H243      -11.4234  -18.6664  -51.1349 H         1 UNK         0.3800 
    244 H244       -6.6440  -19.1006  -52.7861 H         1 UNK         0.0800 
    245 H245       -7.6562  -19.2141  -51.3760 H         1 UNK         0.0800 
    246 H246       -5.6039  -22.7037  -52.0042 H         1 UNK         0.0800 
    247 H247       -5.1066  -21.1048  -52.4932 H         1 UNK         0.0800 
@<TRIPOS>BOND
     1    1    2 1    
     2    1  127 1    
     3    1  128 1    
     4    1  129 1    
     5    2    3 2    
     6    2    4 am   BACKBONE|DICT|INTERRES
     7    4    5 1    
     8    4  130 1    
     9    5    6 1    
    10    5   65 1    
    11    5  131 1    
    12    6    7 1    
    13    6  132 1    
    14    6  133 1    
    15    7    8 1    
    16    8    9 1    
    17    8  134 1    
    18    8  135 1    
    19    9   10 ar   
    20    9   14 ar   
    21   10   11 ar   
    22   10  136 1    
    23   11   12 ar   
    24   11  126 1    
    25   12   13 ar   
    26   12  137 1    
    27   13   14 ar   
    28   13   15 1    
    29   14  138 1    
    30   15   16 1    
    31   15  139 1    
    32   15  140 1    
    33   16   17 1    
    34   17   18 1    
    35   17  141 1    
    36   17  142 1    
    37   18   19 1    
    38   18   67 1    
    39   18  143 1    
    40   19   20 am   BACKBONE|DICT|INTERRES
    41   19  144 1    
    42   20   21 2    
    43   20   22 1    
    44   22   23 1    
    45   22   24 1    
    46   22  145 1    
    47   23  146 1    
    48   23  147 1    
    49   23  148 1    
    50   24   25 am   BACKBONE|DICT|INTERRES
    51   24  149 1    
    52   25   26 2    
    53   25   27 1    
    54   27   28 1    
    55   27   29 1    
    56   27  150 1    
    57   28  151 1    
    58   28  152 1    
    59   28  153 1    
    60   29   30 am   BACKBONE|DICT|INTERRES
    61   29  154 1    
    62   30   31 2    
    63   30   32 1    
    64   32   33 1    
    65   32   34 1    
    66   32  155 1    
    67   33  156 1    
    68   33  157 1    
    69   33  158 1    
    70   34   35 am   BACKBONE|DICT|INTERRES
    71   34  159 1    
    72   35   36 2    
    73   35   37 1    
    74   37   38 1    
    75   37   39 1    
    76   37  160 1    
    77   38  161 1    
    78   38  162 1    
    79   38  163 1    
    80   39   40 am   BACKBONE|DICT|INTERRES
    81   39  164 1    
    82   40   41 2    
    83   40   42 1    
    84   42   43 1    
    85   42   44 1    
    86   42  165 1    
    87   43  166 1    
    88   43  167 1    
    89   43  168 1    
    90   44   45 am   BACKBONE|DICT|INTERRES
    91   44  169 1    
    92   45   46 2    
    93   45   47 1    
    94   47   48 1    
    95   47   49 1    
    96   47  170 1    
    97   48  171 1    
    98   48  172 1    
    99   48  173 1    
   100   49   50 am   BACKBONE|DICT|INTERRES
   101   49  174 1    
   102   50   51 2    
   103   50   52 1    
   104   52   53 1    
   105   52   54 1    
   106   52  175 1    
   107   53  176 1    
   108   53  177 1    
   109   53  178 1    
   110   54   55 am   BACKBONE|DICT|INTERRES
   111   54  179 1    
   112   55   56 2    
   113   55   57 1    
   114   57   58 1    
   115   57   59 1    
   116   57  180 1    
   117   58  181 1    
   118   58  182 1    
   119   58  183 1    
   120   59   60 am   BACKBONE|DICT|INTERRES
   121   59  184 1    
   122   60   61 2    
   123   60   62 1    
   124   62   63 1    
   125   62   64 1    
   126   62  185 1    
   127   63  186 1    
   128   63  187 1    
   129   63  188 1    
   130   64   65 am   BACKBONE|DICT|INTERRES
   131   64  189 1    
   132   65   66 2    
   133   67   68 2    
   134   67   69 am   BACKBONE|DICT|INTERRES
   135   69   70 1    
   136   69  190 1    
   137   70   71 1    
   138   70   72 1    
   139   70  191 1    
   140   71  192 1    
   141   71  193 1    
   142   71  194 1    
   143   72   73 2    
   144   72   74 am   BACKBONE|DICT|INTERRES
   145   74   75 1    
   146   74  195 1    
   147   75   76 1    
   148   75   77 1    
   149   75  196 1    
   150   76  197 1    
   151   76  198 1    
   152   76  199 1    
   153   77   78 2    
   154   77   79 am   BACKBONE|DICT|INTERRES
   155   79   80 1    
   156   79  200 1    
   157   80   81 1    
   158   80   82 1    
   159   80  201 1    
   160   81  202 1    
   161   81  203 1    
   162   81  204 1    
   163   82   83 2    
   164   82   84 am   BACKBONE|DICT|INTERRES
   165   84   85 1    
   166   84  205 1    
   167   85   86 1    
   168   85   87 1    
   169   85  206 1    
   170   86  207 1    
   171   86  208 1    
   172   86  209 1    
   173   87   88 2    
   174   87   89 am   BACKBONE|DICT|INTERRES
   175   89   90 1    
   176   89  210 1    
   177   90   91 1    
   178   90   92 1    
   179   90  211 1    
   180   91  212 1    
   181   91  213 1    
   182   91  214 1    
   183   92   93 2    
   184   92   94 am   BACKBONE|DICT|INTERRES
   185   94   95 1    
   186   94  215 1    
   187   95   96 1    
   188   95   97 1    
   189   95  216 1    
   190   96  217 1    
   191   96  218 1    
   192   96  219 1    
   193   97   98 2    
   194   97   99 am   BACKBONE|DICT|INTERRES
   195   99  100 1    
   196   99  220 1    
   197  100  101 1    
   198  100  102 1    
   199  100  221 1    
   200  101  222 1    
   201  101  223 1    
   202  101  224 1    
   203  102  103 2    
   204  102  104 am   BACKBONE|DICT|INTERRES
   205  104  105 1    
   206  104  225 1    
   207  105  106 1    
   208  105  107 1    
   209  105  226 1    
   210  106  227 1    
   211  106  228 1    
   212  106  229 1    
   213  107  108 2    
   214  107  109 am   BACKBONE|DICT|INTERRES
   215  109  110 1    
   216  109  230 1    
   217  110  111 1    
   218  110  112 1    
   219  110  231 1    
   220  111  232 1    
   221  111  233 1    
   222  111  234 1    
   223  112  113 2    
   224  112  114 am   BACKBONE|DICT|INTERRES
   225  114  115 1    
   226  114  235 1    
   227  115  116 1    
   228  115  117 1    
   229  115  236 1    
   230  116  237 1    
   231  116  238 1    
   232  116  239 1    
   233  117  118 2    
   234  117  119 am   BACKBONE|DICT|INTERRES
   235  119  120 1    
   236  119  240 1    
   237  120  121 1    
   238  120  124 1    
   239  120  241 1    
   240  121  122 am   BACKBONE|DICT|INTERRES
   241  121  123 2    
   242  122  242 1    
   243  122  243 1    
   244  124  125 1    
   245  124  244 1    
   246  124  245 1    
   247  125  126 1    
   248  126  246 1    
   249  126  247 1    
@<TRIPOS>SUBSTRUCTURE
     1 UNK         1 GROUP             0       ****    0 ROOT    
