@<TRIPOS>MOLECULE
3R540
247   249    1
SMALL
USER_CHARGES


@<TRIPOS>ATOM
      1 CA         -1.3194  -14.6627  -47.9357 C.3       0 UNK        -0.1800 
      2 C           0.0347  -14.0955  -48.3372 C.2       0 UNK         0.5000 
      3 O           0.1529  -12.8897  -48.5528 O.2       0 UNK        -0.5000 
      4 N           1.0572  -14.9601  -48.4099 N.am      1 UNK        -0.5000 
      5 CA          2.4392  -14.6630  -48.8253 C.3       1 UNK         0.1400 
      6 C6          3.3034  -15.9546  -48.8175 C.3       23 UNK        -0.0398 
      7 S7          4.3799  -16.1251  -50.2823 S.3       23 UNK        -0.2404 
      8 C8          3.1964  -16.4362  -51.6407 C.3       23 UNK        -0.0205 
      9 C9          2.1002  -17.4259  -51.2706 C.ar      23 UNK        -0.0193 
     10 C10         0.7741  -16.9967  -51.1657 C.ar      23 UNK        -0.1150 
     11 C11        -0.2369  -17.8900  -50.8017 C.ar      23 UNK        -0.0193 
     12 C12         0.0914  -19.2184  -50.5190 C.ar      23 UNK        -0.1150 
     13 C13         1.4126  -19.6640  -50.6326 C.ar      23 UNK        -0.0193 
     14 C14         2.4105  -18.7649  -51.0188 C.ar      23 UNK        -0.1150 
     15 C15         1.7654  -21.1178  -50.3532 C.3       23 UNK        -0.0205 
     16 S16         2.7222  -21.3312  -48.8203 S.3       23 UNK        -0.2404 
     17 C17         1.5816  -20.7072  -47.5412 C.3       23 UNK        -0.0398 
     18 CA          0.6335  -21.8009  -46.9802 C.3       11 UNK         0.1400 
     19 N           0.4876  -21.7118  -45.5245 N.am      11 UNK        -0.5000 
     20 C          -0.1051  -22.6365  -44.7559 C.2       10 UNK         0.5000 
     21 O          -0.5416  -23.7039  -45.1860 O.2       10 UNK        -0.5000 
     22 CA         -0.2752  -22.2960  -43.2626 C.3       10 UNK         0.1400 
     23 CB          0.9878  -22.6670  -42.4717 C.3       10 UNK        -0.1800 
     24 N          -0.6078  -20.8881  -43.0318 N.am      10 UNK        -0.5000 
     25 C          -1.7334  -20.2962  -43.4583 C.2       9 UNK         0.5000 
     26 O          -2.6325  -20.8903  -44.0494 O.2       9 UNK        -0.5000 
     27 CA         -1.8528  -18.7768  -43.2488 C.3       9 UNK         0.1400 
     28 CB         -2.2827  -18.4484  -41.8117 C.3       9 UNK        -0.1800 
     29 N          -0.6129  -18.0718  -43.5643 N.am      9 UNK        -0.5000 
     30 C          -0.0238  -18.0532  -44.7678 C.2       8 UNK         0.5000 
     31 O          -0.4850  -18.5937  -45.7740 O.2       8 UNK        -0.5000 
     32 CA          1.3477  -17.3649  -44.8389 C.3       8 UNK         0.1400 
     33 CB          1.1976  -15.8397  -44.8930 C.3       8 UNK        -0.1800 
     34 N           2.1981  -17.7259  -43.7060 N.am      8 UNK        -0.5000 
     35 C           2.7139  -18.9452  -43.4991 C.2       7 UNK         0.5000 
     36 O           2.5511  -19.8951  -44.2634 O.2       7 UNK        -0.5000 
     37 CA          3.5119  -19.1420  -42.1979 C.3       7 UNK         0.1400 
     38 CB          4.9607  -18.6635  -42.3744 C.3       7 UNK        -0.1800 
     39 N           2.9061  -18.4474  -41.0608 N.am      7 UNK        -0.5000 
     40 C           1.7242  -18.7744  -40.5195 C.2       6 UNK         0.5000 
     41 O           1.0364  -19.7211  -40.9002 O.2       6 UNK        -0.5000 
     42 CA          1.2015  -17.8572  -39.3982 C.3       6 UNK         0.1400 
     43 CB          1.7827  -18.2780  -38.0403 C.3       6 UNK        -0.1800 
     44 N           1.4783  -16.4351  -39.6286 N.am      6 UNK        -0.5000 
     45 C           1.0150  -15.7319  -40.6706 C.2       5 UNK         0.5000 
     46 O           0.3562  -16.2286  -41.5861 O.2       5 UNK        -0.5000 
     47 CA          1.3966  -14.2390  -40.7210 C.3       5 UNK         0.1400 
     48 CB          2.7175  -14.0658  -41.4844 C.3       5 UNK        -0.1800 
     49 N           0.3699  -13.4050  -41.3537 N.am      5 UNK        -0.5000 
     50 C          -0.8944  -13.2833  -40.9212 C.2       4 UNK         0.5000 
     51 O          -1.3113  -13.8269  -39.8965 O.2       4 UNK        -0.5000 
     52 CA         -1.8615  -12.3909  -41.7289 C.3       4 UNK         0.1400 
     53 CB         -2.4861  -11.3075  -40.8325 C.3       4 UNK        -0.1800 
     54 N          -1.2594  -11.7297  -42.8879 N.am      4 UNK        -0.5000 
     55 C          -1.0659  -12.2829  -44.0911 C.2       3 UNK         0.5000 
     56 O          -1.3001  -13.4643  -44.3449 O.2       3 UNK        -0.5000 
     57 CA         -0.5344  -11.3629  -45.2119 C.3       3 UNK         0.1400 
     58 CB         -0.5039   -9.8617  -44.8436 C.3       3 UNK        -0.1800 
     59 N           0.7754  -11.7897  -45.7070 N.am      3 UNK        -0.5000 
     60 C           1.9043  -11.9353  -44.9958 C.2       2 UNK         0.5000 
     61 O           1.9786  -11.7450  -43.7810 O.2       2 UNK        -0.5000 
     62 CA          3.1407  -12.3958  -45.7894 C.3       2 UNK         0.1400 
     63 CB          4.2880  -12.9139  -44.9024 C.3       2 UNK        -0.1800 
     64 N           2.7393  -13.4356  -46.7311 N.am      2 UNK        -0.5000 
     65 C           3.1198  -13.5403  -48.0079 C.2       1 UNK         0.5000 
     66 O           3.9416  -12.7969  -48.5449 O.2       1 UNK        -0.5000 
     67 C          -0.7411  -21.7779  -47.6821 C.2       11 UNK         0.5000 
     68 O          -1.0148  -22.6308  -48.5273 O.2       11 UNK        -0.5000 
     69 N          -1.6015  -20.8281  -47.2876 N.am      12 UNK        -0.5000 
     70 CA         -2.9774  -20.7019  -47.7707 C.3       12 UNK         0.1400 
     71 CB         -3.5857  -19.3923  -47.2509 C.3       12 UNK        -0.1800 
     72 C          -3.8578  -21.9111  -47.3992 C.2       12 UNK         0.5000 
     73 O          -4.6363  -22.3666  -48.2356 O.2       12 UNK        -0.5000 
     74 N          -3.6832  -22.4451  -46.1811 N.am      13 UNK        -0.5000 
     75 CA         -4.3577  -23.6474  -45.6795 C.3       13 UNK         0.1400 
     76 CB         -4.0595  -23.8238  -44.1835 C.3       13 UNK        -0.1800 
     77 C          -4.0025  -24.9308  -46.4563 C.2       13 UNK         0.5000 
     78 O          -4.8252  -25.8443  -46.5157 O.2       13 UNK        -0.5000 
     79 N          -2.8248  -24.9582  -47.0958 N.am      14 UNK        -0.5000 
     80 CA         -2.3916  -25.9877  -48.0460 C.3       14 UNK         0.1400 
     81 CB         -0.8572  -26.0953  -47.9967 C.3       14 UNK        -0.1800 
     82 C          -2.9143  -25.7123  -49.4764 C.2       14 UNK         0.5000 
     83 O          -2.2429  -26.0407  -50.4571 O.2       14 UNK        -0.5000 
     84 N          -4.0849  -25.0631  -49.5737 N.am      15 UNK        -0.5000 
     85 CA         -4.7994  -24.6261  -50.7776 C.3       15 UNK         0.1400 
     86 CB         -5.2845  -25.8429  -51.5915 C.3       15 UNK        -0.1800 
     87 C          -4.0110  -23.6284  -51.6482 C.2       15 UNK         0.5000 
     88 O          -4.3615  -23.4402  -52.8141 O.2       15 UNK        -0.5000 
     89 N          -2.9602  -23.0150  -51.0849 N.am      16 UNK        -0.5000 
     90 CA         -1.9431  -22.2114  -51.7669 C.3       16 UNK         0.1400 
     91 CB         -2.5285  -20.8824  -52.2810 C.3       16 UNK        -0.1800 
     92 C          -1.1676  -23.0075  -52.8379 C.2       16 UNK         0.5000 
     93 O          -0.7756  -22.4435  -53.8586 O.2       16 UNK        -0.5000 
     94 N          -0.9775  -24.3135  -52.5836 N.am      17 UNK        -0.5000 
     95 CA         -0.4235  -25.3156  -53.4998 C.3       17 UNK         0.1400 
     96 CB          1.0588  -25.0279  -53.8200 C.3       17 UNK        -0.1800 
     97 C          -1.3088  -25.4843  -54.7531 C.2       17 UNK         0.5000 
     98 O          -0.8073  -25.4803  -55.8786 O.2       17 UNK        -0.5000 
     99 N          -2.6213  -25.6186  -54.5074 N.am      18 UNK        -0.5000 
    100 CA        -3.7118  -25.7186  -55.4817 C.3       18 UNK         0.1400 
    101 CB        -3.5808  -26.9935  -56.3417 C.3       18 UNK        -0.1800 
    102 C         -3.8738  -24.4279  -56.3112 C.2       18 UNK         0.5000 
    103 O         -3.8883  -24.4719  -57.5429 O.2       18 UNK        -0.5000 
    104 N         -4.0095  -23.3002  -55.6046 N.am      19 UNK        -0.5000 
    105 CA        -4.2606  -21.9700  -56.1594 C.3       19 UNK         0.1400 
    106 CB        -2.9512  -21.1635  -56.2120 C.3       19 UNK        -0.1800 
    107 C         -5.3791  -21.2691  -55.3656 C.2       19 UNK         0.5000 
    108 O         -5.3009  -20.0668  -55.1050 O.2       19 UNK        -0.5000 
    109 N         -6.4016  -22.0513  -54.9829 N.am      20 UNK        -0.5000 
    110 CA        -7.6521  -21.6399  -54.3305 C.3       20 UNK         0.1400 
    111 CB        -8.5389  -20.8743  -55.3345 C.3       20 UNK        -0.1800 
    112 C         -7.4546  -20.8647  -53.0099 C.2       20 UNK         0.5000 
    113 O         -8.2293  -19.9537  -52.7094 O.2       20 UNK        -0.5000 
    114 N         -6.3949  -21.2119  -52.2623 N.am      21 UNK        -0.5000 
    115 CA        -5.9679  -20.5859  -51.0010 C.3       21 UNK         0.1400 
    116 CB        -6.9964  -20.8680  -49.8859 C.3       21 UNK        -0.1800 
    117 C         -5.6371  -19.0807  -51.1303 C.2       21 UNK         0.5000 
    118 O         -5.6904  -18.3594  -50.1337 O.2       21 UNK        -0.5000 
    119 N         -5.3215  -18.6340  -52.3552 N.am      22 UNK        -0.5000 
    120 CA        -5.1766  -17.2248  -52.7574 C.3       22 UNK         0.1400 
    121 C         -6.5091  -16.4108  -52.7200 C.2       22 UNK         0.5000 
    122 N         -7.6785  -17.0406  -52.6749 N.am      22 UNK        -0.7600 
    123 O         -6.4926  -15.1835  -52.7659 O.2       22 UNK        -0.5000 
    124 C124       -3.9997  -16.4882  -52.0538 C.3       23 UNK        -0.0398 
    125 S125       -2.3835  -17.2588  -52.4024 S.3       23 UNK        -0.2404 
    126 C126       -1.6802  -17.4152  -50.7325 C.3       23 UNK        -0.0205 
    127 H127       -1.2789  -15.7405  -47.7742 H         1 UNK         0.0600 
    128 H128       -2.0565  -14.4605  -48.7126 H         1 UNK         0.0600 
    129 H129       -1.6612  -14.1956  -47.0124 H         1 UNK         0.0600 
    130 H130        0.8671  -15.9355  -48.2330 H         1 UNK         0.3000 
    131 H131        2.3574  -14.2907  -49.8480 H         1 UNK         0.0600 
    132 H132        3.9336  -16.0146  -47.9277 H         1 UNK         0.0800 
    133 H133        2.6815  -16.8479  -48.7564 H         1 UNK         0.0800 
    134 H134        2.7637  -15.4854  -51.9551 H         1 UNK         0.0800 
    135 H135        3.7441  -16.8168  -52.5039 H         1 UNK         0.0800 
    136 H136        0.5227  -15.9658  -51.3729 H         1 UNK         0.1150 
    137 H137       -0.6857  -19.9038  -50.2174 H         1 UNK         0.1150 
    138 H138        3.4344  -19.1022  -51.1007 H         1 UNK         0.1150 
    139 H139        0.8742  -21.7388  -50.2968 H         1 UNK         0.0800 
    140 H140        2.3496  -21.5075  -51.1880 H         1 UNK         0.0800 
    141 H141        1.0453  -19.8247  -47.8929 H         1 UNK         0.0800 
    142 H142        2.2298  -20.3340  -46.7498 H         1 UNK         0.0800 
    143 H143        1.0756  -22.7802  -47.1772 H         1 UNK         0.0600 
    144 H144        0.8662  -20.8839  -45.0788 H         1 UNK         0.3000 
    145 H145       -1.1007  -22.8977  -42.8781 H         1 UNK         0.0600 
    146 H146        1.2418  -23.7184  -42.6122 H         1 UNK         0.0600 
    147 H147        1.8486  -22.0763  -42.7850 H         1 UNK         0.0600 
    148 H148        0.8441  -22.5074  -41.4030 H         1 UNK         0.0600 
    149 H149        0.0618  -20.3434  -42.4966 H         1 UNK         0.3000 
    150 H150       -2.6239  -18.4068  -43.9275 H         1 UNK         0.0600 
    151 H151       -2.4147  -17.3747  -41.6756 H         1 UNK         0.0600 
    152 H152       -1.5473  -18.7886  -41.0828 H         1 UNK         0.0600 
    153 H153       -3.2319  -18.9280  -41.5695 H         1 UNK         0.0600 
    154 H154       -0.1808  -17.5491  -42.8059 H         1 UNK         0.3000 
    155 H155        1.8417  -17.6935  -45.7560 H         1 UNK         0.0600 
    156 H156        0.7084  -15.4420  -44.0046 H         1 UNK         0.0600 
    157 H157        0.5928  -15.5372  -45.7457 H         1 UNK         0.0600 
    158 H158        2.1721  -15.3632  -44.9747 H         1 UNK         0.0600 
    159 H159        2.3252  -17.0234  -42.9935 H         1 UNK         0.3000 
    160 H160        3.5289  -20.2111  -41.9752 H         1 UNK         0.0600 
    161 H161        5.4419  -19.1773  -43.2077 H         1 UNK         0.0600 
    162 H162        5.5541  -18.8668  -41.4828 H         1 UNK         0.0600 
    163 H163        5.0118  -17.5926  -42.5753 H         1 UNK         0.0600 
    164 H164        3.4065  -17.6555  -40.6853 H         1 UNK         0.3000 
    165 H165        0.1173  -17.9789  -39.3552 H         1 UNK         0.0600 
    166 H166        1.3454  -17.6983  -37.2272 H         1 UNK         0.0600 
    167 H167        1.5748  -19.3293  -37.8358 H         1 UNK         0.0600 
    168 H168        2.8646  -18.1444  -38.0049 H         1 UNK         0.0600 
    169 H169        2.0248  -15.9638  -38.9222 H         1 UNK         0.3000 
    170 H170        1.5314  -13.8794  -39.6990 H         1 UNK         0.0600 
    171 H171        3.0369  -13.0235  -41.4917 H         1 UNK         0.0600 
    172 H172        3.5192  -14.6468  -41.0268 H         1 UNK         0.0600 
    173 H173        2.6221  -14.3936  -42.5194 H         1 UNK         0.0600 
    174 H174        0.6371  -12.9225  -42.2016 H         1 UNK         0.3000 
    175 H175       -2.6664  -13.0395  -42.0809 H         1 UNK         0.0600 
    176 H176       -1.7288  -10.6329  -40.4314 H         1 UNK         0.0600 
    177 H177       -3.2117  -10.7089  -41.3837 H         1 UNK         0.0600 
    178 H178       -3.0134  -11.7496  -39.9861 H         1 UNK         0.0600 
    179 H179       -0.9984  -10.7624  -42.7624 H         1 UNK         0.3000 
    180 H180       -1.2272  -11.4793  -46.0466 H         1 UNK         0.0600 
    181 H181       -0.1994   -9.2603  -45.7002 H         1 UNK         0.0600 
    182 H182        0.1912   -9.6477  -44.0310 H         1 UNK         0.0600 
    183 H183       -1.4912   -9.5081  -44.5433 H         1 UNK         0.0600 
    184 H184        0.8055  -12.0071  -46.6971 H         1 UNK         0.3000 
    185 H185        3.4969  -11.5183  -46.3329 H         1 UNK         0.0600 
    186 H186        3.9979  -13.8038  -44.3452 H         1 UNK         0.0600 
    187 H187        5.1612  -13.1687  -45.5030 H         1 UNK         0.0600 
    188 H188        4.6013  -12.1584  -44.1810 H         1 UNK         0.0600 
    189 H189        2.0320  -14.0736  -46.3970 H         1 UNK         0.3000 
    190 H190       -1.2929  -20.1411  -46.6041 H         1 UNK         0.3000 
    191 H191       -2.9415  -20.6459  -48.8606 H         1 UNK         0.0600 
    192 H192       -3.6298  -19.3729  -46.1617 H         1 UNK         0.0600 
    193 H193       -4.6015  -19.2582  -47.6249 H         1 UNK         0.0600 
    194 H194       -3.0027  -18.5306  -47.5767 H         1 UNK         0.0600 
    195 H195       -3.0770  -21.9629  -45.5217 H         1 UNK         0.3000 
    196 H196       -5.4321  -23.4889  -45.7922 H         1 UNK         0.0600 
    197 H197       -4.5801  -24.6936  -43.7808 H         1 UNK         0.0600 
    198 H198       -4.3872  -22.9569  -43.6099 H         1 UNK         0.0600 
    199 H199       -2.9949  -23.9662  -44.0010 H         1 UNK         0.0600 
    200 H200       -2.2060  -24.1642  -46.9898 H         1 UNK         0.3000 
    201 H201       -2.8010  -26.9518  -47.7383 H         1 UNK         0.0600 
    202 H202       -0.5072  -26.2726  -46.9796 H         1 UNK         0.0600 
    203 H203       -0.3758  -25.1876  -48.3607 H         1 UNK         0.0600 
    204 H204       -0.5015  -26.9236  -48.6105 H         1 UNK         0.0600 
    205 H205       -4.5251  -24.7895  -48.7056 H         1 UNK         0.3000 
    206 H206       -5.6800  -24.0854  -50.4281 H         1 UNK         0.0600 
    207 H207       -5.9273  -25.5351  -52.4171 H         1 UNK         0.0600 
    208 H208       -4.4535  -26.4066  -52.0160 H         1 UNK         0.0600 
    209 H209       -5.8658  -26.5237  -50.9698 H         1 UNK         0.0600 
    210 H210       -2.7632  -23.2232  -50.1142 H         1 UNK         0.3000 
    211 H211       -1.2060  -21.9636  -51.0100 H         1 UNK         0.0600 
    212 H212       -3.3409  -21.0329  -52.9898 H         1 UNK         0.0600 
    213 H213       -1.7672  -20.2820  -52.7801 H         1 UNK         0.0600 
    214 H214       -2.9071  -20.2823  -51.4559 H         1 UNK         0.0600 
    215 H215       -1.3516  -24.6922  -51.7189 H         1 UNK         0.3000 
    216 H216       -0.4624  -26.2676  -52.9680 H         1 UNK         0.0600 
    217 H217        1.4982  -25.8480  -54.3887 H         1 UNK         0.0600 
    218 H218        1.6440  -24.9154  -52.9075 H         1 UNK         0.0600 
    219 H219        1.1823  -24.1207  -54.4119 H         1 UNK         0.0600 
    220 H220       -2.9132  -25.5711  -53.5423 H         1 UNK         0.3000 
    221 H221       -4.6283  -25.8183  -54.8981 H         1 UNK         0.0600 
    222 H222       -2.7109  -26.9583  -56.9980 H         1 UNK         0.0600 
    223 H223       -3.4942  -27.8827  -55.7173 H         1 UNK         0.0600 
    224 H224       -4.4590  -27.1263  -56.9745 H         1 UNK         0.0600 
    225 H225       -4.0148  -23.3580  -54.5869 H         1 UNK         0.3000 
    226 H226       -4.6367  -22.0617  -57.1802 H         1 UNK         0.0600 
    227 H227       -2.1818  -21.6972  -56.7700 H         1 UNK         0.0600 
    228 H228       -3.1027  -20.2020  -56.7036 H         1 UNK         0.0600 
    229 H229       -2.5604  -20.9631  -55.2158 H         1 UNK         0.0600 
    230 H230       -6.3380  -23.0330  -55.2121 H         1 UNK         0.3000 
    231 H231       -8.1747  -22.5589  -54.0620 H         1 UNK         0.0600 
    232 H232       -8.0987  -19.9152  -55.6101 H         1 UNK         0.0600 
    233 H233       -8.6877  -21.4497  -56.2481 H         1 UNK         0.0600 
    234 H234       -9.5260  -20.6741  -54.9161 H         1 UNK         0.0600 
    235 H235       -5.7911  -21.9444  -52.6195 H         1 UNK         0.3000 
    236 H236       -5.0376  -21.0696  -50.7085 H         1 UNK         0.0600 
    237 H237       -7.9457  -20.3646  -50.0692 H         1 UNK         0.0600 
    238 H238       -7.1927  -21.9360  -49.7931 H         1 UNK         0.0600 
    239 H239       -6.6292  -20.5259  -48.9178 H         1 UNK         0.0600 
    240 H240       -5.3124  -19.2943  -53.1245 H         1 UNK         0.3000 
    241 H241       -4.9298  -17.2660  -53.8189 H         1 UNK         0.0600 
    242 H242       -8.5275  -16.4985  -52.6631 H         1 UNK         0.3800 
    243 H243       -7.7355  -18.0544  -52.6540 H         1 UNK         0.3800 
    244 H244       -3.9319  -15.4563  -52.4013 H         1 UNK         0.0800 
    245 H245       -4.1670  -16.4289  -50.9781 H         1 UNK         0.0800 
    246 H246       -2.2897  -18.1017  -50.1426 H         1 UNK         0.0800 
    247 H247       -1.7211  -16.4481  -50.2316 H         1 UNK         0.0800 
@<TRIPOS>BOND
     1    1    2 1    
     2    1  127 1    
     3    1  128 1    
     4    1  129 1    
     5    2    3 2    
     6    2    4 am   BACKBONE|DICT|INTERRES
     7    4    5 1    
     8    4  130 1    
     9    5    6 1    
    10    5   65 1    
    11    5  131 1    
    12    6    7 1    
    13    6  132 1    
    14    6  133 1    
    15    7    8 1    
    16    8    9 1    
    17    8  134 1    
    18    8  135 1    
    19    9   10 ar   
    20    9   14 ar   
    21   10   11 ar   
    22   10  136 1    
    23   11   12 ar   
    24   11  126 1    
    25   12   13 ar   
    26   12  137 1    
    27   13   14 ar   
    28   13   15 1    
    29   14  138 1    
    30   15   16 1    
    31   15  139 1    
    32   15  140 1    
    33   16   17 1    
    34   17   18 1    
    35   17  141 1    
    36   17  142 1    
    37   18   19 1    
    38   18   67 1    
    39   18  143 1    
    40   19   20 am   BACKBONE|DICT|INTERRES
    41   19  144 1    
    42   20   21 2    
    43   20   22 1    
    44   22   23 1    
    45   22   24 1    
    46   22  145 1    
    47   23  146 1    
    48   23  147 1    
    49   23  148 1    
    50   24   25 am   BACKBONE|DICT|INTERRES
    51   24  149 1    
    52   25   26 2    
    53   25   27 1    
    54   27   28 1    
    55   27   29 1    
    56   27  150 1    
    57   28  151 1    
    58   28  152 1    
    59   28  153 1    
    60   29   30 am   BACKBONE|DICT|INTERRES
    61   29  154 1    
    62   30   31 2    
    63   30   32 1    
    64   32   33 1    
    65   32   34 1    
    66   32  155 1    
    67   33  156 1    
    68   33  157 1    
    69   33  158 1    
    70   34   35 am   BACKBONE|DICT|INTERRES
    71   34  159 1    
    72   35   36 2    
    73   35   37 1    
    74   37   38 1    
    75   37   39 1    
    76   37  160 1    
    77   38  161 1    
    78   38  162 1    
    79   38  163 1    
    80   39   40 am   BACKBONE|DICT|INTERRES
    81   39  164 1    
    82   40   41 2    
    83   40   42 1    
    84   42   43 1    
    85   42   44 1    
    86   42  165 1    
    87   43  166 1    
    88   43  167 1    
    89   43  168 1    
    90   44   45 am   BACKBONE|DICT|INTERRES
    91   44  169 1    
    92   45   46 2    
    93   45   47 1    
    94   47   48 1    
    95   47   49 1    
    96   47  170 1    
    97   48  171 1    
    98   48  172 1    
    99   48  173 1    
   100   49   50 am   BACKBONE|DICT|INTERRES
   101   49  174 1    
   102   50   51 2    
   103   50   52 1    
   104   52   53 1    
   105   52   54 1    
   106   52  175 1    
   107   53  176 1    
   108   53  177 1    
   109   53  178 1    
   110   54   55 am   BACKBONE|DICT|INTERRES
   111   54  179 1    
   112   55   56 2    
   113   55   57 1    
   114   57   58 1    
   115   57   59 1    
   116   57  180 1    
   117   58  181 1    
   118   58  182 1    
   119   58  183 1    
   120   59   60 am   BACKBONE|DICT|INTERRES
   121   59  184 1    
   122   60   61 2    
   123   60   62 1    
   124   62   63 1    
   125   62   64 1    
   126   62  185 1    
   127   63  186 1    
   128   63  187 1    
   129   63  188 1    
   130   64   65 am   BACKBONE|DICT|INTERRES
   131   64  189 1    
   132   65   66 2    
   133   67   68 2    
   134   67   69 am   BACKBONE|DICT|INTERRES
   135   69   70 1    
   136   69  190 1    
   137   70   71 1    
   138   70   72 1    
   139   70  191 1    
   140   71  192 1    
   141   71  193 1    
   142   71  194 1    
   143   72   73 2    
   144   72   74 am   BACKBONE|DICT|INTERRES
   145   74   75 1    
   146   74  195 1    
   147   75   76 1    
   148   75   77 1    
   149   75  196 1    
   150   76  197 1    
   151   76  198 1    
   152   76  199 1    
   153   77   78 2    
   154   77   79 am   BACKBONE|DICT|INTERRES
   155   79   80 1    
   156   79  200 1    
   157   80   81 1    
   158   80   82 1    
   159   80  201 1    
   160   81  202 1    
   161   81  203 1    
   162   81  204 1    
   163   82   83 2    
   164   82   84 am   BACKBONE|DICT|INTERRES
   165   84   85 1    
   166   84  205 1    
   167   85   86 1    
   168   85   87 1    
   169   85  206 1    
   170   86  207 1    
   171   86  208 1    
   172   86  209 1    
   173   87   88 2    
   174   87   89 am   BACKBONE|DICT|INTERRES
   175   89   90 1    
   176   89  210 1    
   177   90   91 1    
   178   90   92 1    
   179   90  211 1    
   180   91  212 1    
   181   91  213 1    
   182   91  214 1    
   183   92   93 2    
   184   92   94 am   BACKBONE|DICT|INTERRES
   185   94   95 1    
   186   94  215 1    
   187   95   96 1    
   188   95   97 1    
   189   95  216 1    
   190   96  217 1    
   191   96  218 1    
   192   96  219 1    
   193   97   98 2    
   194   97   99 am   BACKBONE|DICT|INTERRES
   195   99  100 1    
   196   99  220 1    
   197  100  101 1    
   198  100  102 1    
   199  100  221 1    
   200  101  222 1    
   201  101  223 1    
   202  101  224 1    
   203  102  103 2    
   204  102  104 am   BACKBONE|DICT|INTERRES
   205  104  105 1    
   206  104  225 1    
   207  105  106 1    
   208  105  107 1    
   209  105  226 1    
   210  106  227 1    
   211  106  228 1    
   212  106  229 1    
   213  107  108 2    
   214  107  109 am   BACKBONE|DICT|INTERRES
   215  109  110 1    
   216  109  230 1    
   217  110  111 1    
   218  110  112 1    
   219  110  231 1    
   220  111  232 1    
   221  111  233 1    
   222  111  234 1    
   223  112  113 2    
   224  112  114 am   BACKBONE|DICT|INTERRES
   225  114  115 1    
   226  114  235 1    
   227  115  116 1    
   228  115  117 1    
   229  115  236 1    
   230  116  237 1    
   231  116  238 1    
   232  116  239 1    
   233  117  118 2    
   234  117  119 am   BACKBONE|DICT|INTERRES
   235  119  120 1    
   236  119  240 1    
   237  120  121 1    
   238  120  124 1    
   239  120  241 1    
   240  121  122 am   BACKBONE|DICT|INTERRES
   241  121  123 2    
   242  122  242 1    
   243  122  243 1    
   244  124  125 1    
   245  124  244 1    
   246  124  245 1    
   247  125  126 1    
   248  126  246 1    
   249  126  247 1    
@<TRIPOS>SUBSTRUCTURE
     1 UNK         1 GROUP             0       ****    0 ROOT    
