@<TRIPOS>MOLECULE
3R540
247   249    1
SMALL
USER_CHARGES


@<TRIPOS>ATOM
      1 CA         -1.4348  -10.2918  -46.3340 C.3       0 UNK        -0.1800 
      2 C          -0.2963  -10.5727  -47.3042 C.2       0 UNK         0.5000 
      3 O           0.1511   -9.6639  -48.0049 O.2       0 UNK        -0.5000 
      4 N           0.1622  -11.8284  -47.3554 N.am      1 UNK        -0.5000 
      5 CA          1.2790  -12.2777  -48.1938 C.3       1 UNK         0.1400 
      6 C6          1.2106  -13.8012  -48.4736 C.3       23 UNK        -0.0398 
      7 S7         -0.3108  -14.2298  -49.3862 S.3       23 UNK        -0.2404 
      8 C8         -0.7144  -15.8774  -48.7305 C.3       23 UNK        -0.0205 
      9 C9         -0.1053  -16.9963  -49.5630 C.ar      23 UNK        -0.0193 
     10 C10        -0.5427  -17.2075  -50.8747 C.ar      23 UNK        -0.1150 
     11 C11        -0.0062  -18.2425  -51.6449 C.ar      23 UNK        -0.0193 
     12 C12         0.9540  -19.0894  -51.0843 C.ar      23 UNK        -0.1150 
     13 C13         1.3981  -18.8946  -49.7730 C.ar      23 UNK        -0.0193 
     14 C14         0.8721  -17.8373  -49.0222 C.ar      23 UNK        -0.1150 
     15 C15         2.4712  -19.8091  -49.1912 C.3       23 UNK        -0.0205 
     16 S16         1.9722  -20.6246  -47.6392 S.3       23 UNK        -0.2404 
     17 C17         0.4831  -21.5472  -48.1563 C.3       23 UNK        -0.0398 
     18 CA          0.1049  -22.6602  -47.1497 C.3       11 UNK         0.1400 
     19 N          -0.1962  -22.1249  -45.8182 N.am      11 UNK        -0.5000 
     20 C          -0.2364  -22.8554  -44.6968 C.2       10 UNK         0.5000 
     21 O          -0.0291  -24.0669  -44.6692 O.2       10 UNK        -0.5000 
     22 CA         -0.6189  -22.1252  -43.3973 C.3       10 UNK         0.1400 
     23 CB          0.5882  -21.3679  -42.8262 C.3       10 UNK        -0.1800 
     24 N          -1.7561  -21.2155  -43.5657 N.am      10 UNK        -0.5000 
     25 C          -2.9954  -21.6238  -43.8779 C.2       9 UNK         0.5000 
     26 O          -3.2853  -22.8012  -44.0900 O.2       9 UNK        -0.5000 
     27 CA         -4.0889  -20.5484  -43.9849 C.3       9 UNK         0.1400 
     28 CB         -4.6320  -20.1902  -42.5933 C.3       9 UNK        -0.1800 
     29 N          -3.5839  -19.3410  -44.6335 N.am      9 UNK        -0.5000 
     30 C          -3.6441  -19.1046  -45.9522 C.2       8 UNK         0.5000 
     31 O          -4.2142  -19.8396  -46.7586 O.2       8 UNK        -0.5000 
     32 CA         -2.9328  -17.8362  -46.4670 C.3       8 UNK         0.1400 
     33 CB         -3.9118  -16.6527  -46.4920 C.3       8 UNK        -0.1800 
     34 N          -1.7577  -17.4580  -45.6797 N.am      8 UNK        -0.5000 
     35 C          -0.6846  -18.2373  -45.4797 C.2       7 UNK         0.5000 
     36 O          -0.5499  -19.3473  -45.9844 O.2       7 UNK        -0.5000 
     37 CA          0.3761  -17.7366  -44.4833 C.3       7 UNK         0.1400 
     38 CB          1.5552  -17.0827  -45.2141 C.3       7 UNK        -0.1800 
     39 N          -0.1657  -16.8245  -43.4750 N.am      7 UNK        -0.5000 
     40 C          -1.1079  -17.1572  -42.5777 C.2       6 UNK         0.5000 
     41 O          -1.6190  -18.2781  -42.5218 O.2       6 UNK        -0.5000 
     42 CA         -1.5789  -16.0619  -41.6006 C.3       6 UNK         0.1400 
     43 CB         -1.0258  -16.3322  -40.1934 C.3       6 UNK        -0.1800 
     44 N          -1.1931  -14.7080  -42.0064 N.am      6 UNK        -0.5000 
     45 C          -1.7088  -14.0303  -43.0427 C.2       5 UNK         0.5000 
     46 O          -2.6010  -14.4666  -43.7698 O.2       5 UNK        -0.5000 
     47 CA         -1.0684  -12.6610  -43.3459 C.3       5 UNK         0.1400 
     48 CB         -1.7455  -11.5467  -42.5351 C.3       5 UNK        -0.1800 
     49 N           0.3740  -12.6578  -43.0785 N.am      5 UNK        -0.5000 
     50 C           1.2612  -13.3341  -43.8189 C.2       4 UNK         0.5000 
     51 O           0.9638  -13.9145  -44.8665 O.2       4 UNK        -0.5000 
     52 CA          2.6862  -13.4522  -43.2571 C.3       4 UNK         0.1400 
     53 CB          2.6884  -14.4423  -42.0706 C.3       4 UNK        -0.1800 
     54 N           3.5588  -13.9122  -44.3346 N.am      4 UNK        -0.5000 
     55 C           4.8739  -14.1554  -44.2823 C.2       3 UNK         0.5000 
     56 O           5.5663  -14.0224  -43.2728 O.2       3 UNK        -0.5000 
     57 CA          5.5334  -14.5962  -45.6032 C.3       3 UNK         0.1400 
     58 CB          5.1280  -16.0312  -45.9774 C.3       3 UNK        -0.1800 
     59 N           5.2004  -13.6955  -46.7064 N.am      3 UNK        -0.5000 
     60 C           5.6485  -12.4370  -46.8207 C.2       2 UNK         0.5000 
     61 O           6.4735  -11.9311  -46.0587 O.2       2 UNK        -0.5000 
     62 CA          5.0709  -11.5934  -47.9754 C.3       2 UNK         0.1400 
     63 CB          5.9831  -11.6757  -49.2091 C.3       2 UNK        -0.1800 
     64 N           3.7046  -11.9611  -48.3647 N.am      2 UNK        -0.5000 
     65 C           2.6309  -11.8750  -47.5662 C.2       1 UNK         0.5000 
     66 O           2.6897  -11.5082  -46.3896 O.2       1 UNK        -0.5000 
     67 C          -1.0429  -23.5472  -47.6804 C.2       11 UNK         0.5000 
     68 O          -0.7797  -24.4942  -48.4260 O.2       11 UNK        -0.5000 
     69 N          -2.2844  -23.2744  -47.2466 N.am      12 UNK        -0.5000 
     70 CA         -3.4498  -24.1197  -47.5051 C.3       12 UNK         0.1400 
     71 CB         -4.7447  -23.3853  -47.1270 C.3       12 UNK        -0.1800 
     72 C          -3.3458  -25.4590  -46.7586 C.2       12 UNK         0.5000 
     73 O          -3.5496  -26.5090  -47.3651 O.2       12 UNK        -0.5000 
     74 N          -2.9903  -25.4035  -45.4688 N.am      13 UNK        -0.5000 
     75 CA         -2.7748  -26.5795  -44.6269 C.3       13 UNK         0.1400 
     76 CB         -2.6021  -26.1343  -43.1665 C.3       13 UNK        -0.1800 
     77 C          -1.5783  -27.4351  -45.0863 C.2       13 UNK         0.5000 
     78 O          -1.6739  -28.6631  -45.0832 O.2       13 UNK        -0.5000 
     79 N          -0.4787  -26.7731  -45.4687 N.am      14 UNK        -0.5000 
     80 CA          0.7706  -27.4149  -45.8672 C.3       14 UNK         0.1400 
     81 CB          1.9219  -26.4026  -45.7605 C.3       14 UNK        -0.1800 
     82 C           0.7345  -28.0288  -47.2769 C.2       14 UNK         0.5000 
     83 O           1.2363  -29.1406  -47.4507 O.2       14 UNK        -0.5000 
     84 N           0.2009  -27.2905  -48.2613 N.am      15 UNK        -0.5000 
     85 CA          0.4056  -27.5895  -49.6829 C.3       15 UNK         0.1400 
     86 CB          1.5866  -26.7380  -50.1885 C.3       15 UNK        -0.1800 
     87 C          -0.8425  -27.3826  -50.5589 C.2       15 UNK         0.5000 
     88 O          -0.7196  -27.4562  -51.7823 O.2       15 UNK        -0.5000 
     89 N          -2.0082  -27.1093  -49.9514 N.am      16 UNK        -0.5000 
     90 CA         -3.2817  -26.7756  -50.6131 C.3       16 UNK         0.1400 
     91 CB         -3.7967  -27.9508  -51.4709 C.3       16 UNK        -0.1800 
     92 C          -3.2484  -25.4411  -51.3925 C.2       16 UNK         0.5000 
     93 O          -4.1372  -25.1824  -52.2056 O.2       16 UNK        -0.5000 
     94 N          -2.2473  -24.5979  -51.1119 N.am      17 UNK        -0.5000 
     95 CA         -2.0475  -23.2857  -51.7140 C.3       17 UNK         0.1400 
     96 CB         -0.5360  -23.0325  -51.8505 C.3       17 UNK        -0.1800 
     97 C          -2.7689  -22.2217  -50.8721 C.2       17 UNK         0.5000 
     98 O          -2.1267  -21.4243  -50.1893 O.2       17 UNK        -0.5000 
     99 N          -4.1057  -22.2613  -50.9069 N.am      18 UNK        -0.5000 
    100 CA        -4.9682  -21.2446  -50.3131 C.3       18 UNK         0.1400 
    101 CB        -6.3940  -21.8028  -50.1910 C.3       18 UNK        -0.1800 
    102 C         -4.9612  -19.9782  -51.1798 C.2       18 UNK         0.5000 
    103 O         -5.0496  -20.0851  -52.4056 O.2       18 UNK        -0.5000 
    104 N         -4.9014  -18.8062  -50.5349 N.am      19 UNK        -0.5000 
    105 CA        -4.7922  -17.4932  -51.1830 C.3       19 UNK         0.1400 
    106 CB        -4.6804  -16.4103  -50.1026 C.3       19 UNK        -0.1800 
    107 C         -5.9420  -17.1620  -52.1538 C.2       19 UNK         0.5000 
    108 O         -5.7266  -16.4386  -53.1255 O.2       19 UNK        -0.5000 
    109 N         -7.1280  -17.7321  -51.9030 N.am      20 UNK        -0.5000 
    110 CA        -8.2956  -17.6518  -52.7814 C.3       20 UNK         0.1400 
    111 CB        -9.5127  -18.2248  -52.0391 C.3       20 UNK        -0.1800 
    112 C         -8.1026  -18.3709  -54.1336 C.2       20 UNK         0.5000 
    113 O         -8.7791  -18.0158  -55.0999 O.2       20 UNK        -0.5000 
    114 N         -7.1985  -19.3591  -54.1809 N.am      21 UNK        -0.5000 
    115 CA        -6.8534  -20.1158  -55.3796 C.3       21 UNK         0.1400 
    116 CB        -6.7036  -21.6043  -55.0214 C.3       21 UNK        -0.1800 
    117 C         -5.5679  -19.5720  -56.0222 C.2       21 UNK         0.5000 
    118 O         -5.5716  -19.2932  -57.2222 O.2       21 UNK        -0.5000 
    119 N         -4.4930  -19.4432  -55.2306 N.am      22 UNK        -0.5000 
    120 CA        -3.1607  -19.0415  -55.7190 C.3       22 UNK         0.1400 
    121 C         -2.9069  -17.5087  -55.8038 C.2       22 UNK         0.5000 
    122 N         -3.7710  -16.6481  -55.2828 N.am      22 UNK        -0.7600 
    123 O         -1.9071  -17.0867  -56.3787 O.2       22 UNK        -0.5000 
    124 C124       -2.0156  -19.7947  -54.9940 C.3       23 UNK        -0.0398 
    125 S125       -1.9133  -19.4927  -53.1978 S.3       23 UNK        -0.2404 
    126 C126       -0.4428  -18.4343  -53.0887 C.3       23 UNK        -0.0205 
    127 H127       -1.0372  -10.0007  -45.3618 H         1 UNK         0.0600 
    128 H128       -2.0702  -11.1680  -46.2053 H         1 UNK         0.0600 
    129 H129       -2.0600   -9.4794  -46.7049 H         1 UNK         0.0600 
    130 H130       -0.2008  -12.5229  -46.7182 H         1 UNK         0.3000 
    131 H131        1.2114  -11.7609  -49.1539 H         1 UNK         0.0600 
    132 H132        2.0573  -14.1334  -49.0762 H         1 UNK         0.0800 
    133 H133        1.2577  -14.3618  -47.5392 H         1 UNK         0.0800 
    134 H134       -1.7963  -15.9881  -48.7405 H         1 UNK         0.0800 
    135 H135       -0.4164  -15.9513  -47.6849 H         1 UNK         0.0800 
    136 H136       -1.2952  -16.5580  -51.2995 H         1 UNK         0.1150 
    137 H137        1.3627  -19.8956  -51.6769 H         1 UNK         0.1150 
    138 H138        1.2157  -17.6831  -48.0110 H         1 UNK         0.1150 
    139 H139        2.7587  -20.5772  -49.9108 H         1 UNK         0.0800 
    140 H140        3.3675  -19.2174  -49.0013 H         1 UNK         0.0800 
    141 H141        0.6773  -21.9713  -49.1406 H         1 UNK         0.0800 
    142 H142       -0.3397  -20.8405  -48.2793 H         1 UNK         0.0800 
    143 H143        0.9743  -23.3130  -47.0494 H         1 UNK         0.0600 
    144 H144       -0.3629  -21.1201  -45.7746 H         1 UNK         0.3000 
    145 H145       -0.9154  -22.8800  -42.6658 H         1 UNK         0.0600 
    146 H146        0.3065  -20.7340  -41.9850 H         1 UNK         0.0600 
    147 H147        1.3435  -22.0686  -42.4687 H         1 UNK         0.0600 
    148 H148        1.0661  -20.7451  -43.5807 H         1 UNK         0.0600 
    149 H149       -1.5968  -20.2342  -43.3727 H         1 UNK         0.3000 
    150 H150       -4.9129  -20.9647  -44.5687 H         1 UNK         0.0600 
    151 H151       -5.0341  -21.0724  -42.0936 H         1 UNK         0.0600 
    152 H152       -5.4384  -19.4600  -42.6623 H         1 UNK         0.0600 
    153 H153       -3.8572  -19.7730  -41.9491 H         1 UNK         0.0600 
    154 H154       -3.0643  -18.7006  -44.0462 H         1 UNK         0.3000 
    155 H155       -2.6002  -18.0396  -47.4870 H         1 UNK         0.0600 
    156 H156       -4.2377  -16.3821  -45.4867 H         1 UNK         0.0600 
    157 H157       -3.4586  -15.7695  -46.9421 H         1 UNK         0.0600 
    158 H158       -4.8044  -16.8931  -47.0705 H         1 UNK         0.0600 
    159 H159       -1.8027  -16.5701  -45.1990 H         1 UNK         0.3000 
    160 H160        0.7629  -18.6018  -43.9480 H         1 UNK         0.0600 
    161 H161        1.2294  -16.2743  -45.8670 H         1 UNK         0.0600 
    162 H162        2.0753  -17.8147  -45.8330 H         1 UNK         0.0600 
    163 H163        2.2854  -16.6808  -44.5125 H         1 UNK         0.0600 
    164 H164        0.1756  -15.8750  -43.4930 H         1 UNK         0.3000 
    165 H165       -2.6690  -16.1107  -41.5579 H         1 UNK         0.0600 
    166 H166       -1.4072  -15.6080  -39.4733 H         1 UNK         0.0600 
    167 H167       -1.3186  -17.3224  -39.8412 H         1 UNK         0.0600 
    168 H168        0.0639  -16.2857  -40.1733 H         1 UNK         0.0600 
    169 H169       -0.4665  -14.2680  -41.4622 H         1 UNK         0.3000 
    170 H170       -1.2229  -12.4559  -44.4057 H         1 UNK         0.0600 
    171 H171       -2.8166  -11.5129  -42.7387 H         1 UNK         0.0600 
    172 H172       -1.6193  -11.6933  -41.4617 H         1 UNK         0.0600 
    173 H173       -1.3365  -10.5691  -42.7909 H         1 UNK         0.0600 
    174 H174        0.6819  -12.1875  -42.2393 H         1 UNK         0.3000 
    175 H175        3.0203  -12.4663  -42.9294 H         1 UNK         0.0600 
    176 H176        2.4213  -15.4512  -42.3862 H         1 UNK         0.0600 
    177 H177        3.6627  -14.4934  -41.5861 H         1 UNK         0.0600 
    178 H178        1.9780  -14.1420  -41.2999 H         1 UNK         0.0600 
    179 H179        3.0691  -14.0159  -45.2141 H         1 UNK         0.3000 
    180 H180        6.6158  -14.5792  -45.4577 H         1 UNK         0.0600 
    181 H181        4.0720  -16.0993  -46.2383 H         1 UNK         0.0600 
    182 H182        5.3091  -16.7190  -45.1503 H         1 UNK         0.0600 
    183 H183        5.7041  -16.3910  -46.8302 H         1 UNK         0.0600 
    184 H184        4.5397  -14.0312  -47.3901 H         1 UNK         0.3000 
    185 H185        5.0490  -10.5551  -47.6376 H         1 UNK         0.0600 
    186 H186        7.0042  -11.3829  -48.9606 H         1 UNK         0.0600 
    187 H187        6.0216  -12.6875  -49.6146 H         1 UNK         0.0600 
    188 H188        5.6397  -11.0085  -50.0000 H         1 UNK         0.0600 
    189 H189        3.5827  -12.2574  -49.3226 H         1 UNK         0.3000 
    190 H190       -2.4158  -22.4933  -46.6209 H         1 UNK         0.3000 
    191 H191       -3.4851  -24.3249  -48.5751 H         1 UNK         0.0600 
    192 H192       -4.7860  -22.3940  -47.5714 H         1 UNK         0.0600 
    193 H193       -4.8549  -23.2653  -46.0505 H         1 UNK         0.0600 
    194 H194       -5.6163  -23.9383  -47.4786 H         1 UNK         0.0600 
    195 H195       -2.8788  -24.4959  -45.0266 H         1 UNK         0.3000 
    196 H196       -3.6699  -27.2021  -44.6869 H         1 UNK         0.0600 
    197 H197       -2.4676  -26.9941  -42.5091 H         1 UNK         0.0600 
    198 H198       -3.4782  -25.5888  -42.8153 H         1 UNK         0.0600 
    199 H199       -1.7344  -25.4858  -43.0419 H         1 UNK         0.0600 
    200 H200       -0.4577  -25.7617  -45.3636 H         1 UNK         0.3000 
    201 H201        0.9767  -28.2224  -45.1613 H         1 UNK         0.0600 
    202 H202        2.0210  -26.0244  -44.7429 H         1 UNK         0.0600 
    203 H203        1.7701  -25.5488  -46.4214 H         1 UNK         0.0600 
    204 H204        2.8738  -26.8617  -46.0304 H         1 UNK         0.0600 
    205 H205       -0.1830  -26.3742  -48.0514 H         1 UNK         0.3000 
    206 H206        0.6689  -28.6409  -49.8132 H         1 UNK         0.0600 
    207 H207        2.4906  -26.9338  -49.6116 H         1 UNK         0.0600 
    208 H208        1.8192  -26.9565  -51.2313 H         1 UNK         0.0600 
    209 H209        1.3678  -25.6717  -50.1158 H         1 UNK         0.0600 
    210 H210       -2.0330  -27.0818  -48.9395 H         1 UNK         0.3000 
    211 H211       -4.0149  -26.6267  -49.8224 H         1 UNK         0.0600 
    212 H212       -3.1882  -28.1060  -52.3618 H         1 UNK         0.0600 
    213 H213       -4.8185  -27.7694  -51.8064 H         1 UNK         0.0600 
    214 H214       -3.8049  -28.8803  -50.9019 H         1 UNK         0.0600 
    215 H215       -1.6048  -24.8450  -50.3682 H         1 UNK         0.3000 
    216 H216       -2.4776  -23.2586  -52.7176 H         1 UNK         0.0600 
    217 H217       -0.3338  -22.0181  -52.1966 H         1 UNK         0.0600 
    218 H218       -0.0910  -23.7177  -52.5721 H         1 UNK         0.0600 
    219 H219       -0.0176  -23.1722  -50.9036 H         1 UNK         0.0600 
    220 H220       -4.5516  -22.9491  -51.4989 H         1 UNK         0.3000 
    221 H221       -4.5936  -20.9947  -49.3193 H         1 UNK         0.0600 
    222 H222       -6.8207  -22.0357  -51.1677 H         1 UNK         0.0600 
    223 H223       -6.4131  -22.7141  -49.5936 H         1 UNK         0.0600 
    224 H224       -7.0545  -21.0827  -49.7066 H         1 UNK         0.0600 
    225 H225       -4.8482  -18.8134  -49.5265 H         1 UNK         0.3000 
    226 H226       -3.8673  -17.4940  -51.7636 H         1 UNK         0.0600 
    227 H227       -3.8410  -16.6095  -49.4405 H         1 UNK         0.0600 
    228 H228       -4.5182  -15.4276  -50.5475 H         1 UNK         0.0600 
    229 H229       -5.5835  -16.3528  -49.4939 H         1 UNK         0.0600 
    230 H230       -7.2147  -18.3134  -51.0829 H         1 UNK         0.3000 
    231 H231       -8.4873  -16.5979  -52.9939 H         1 UNK         0.0600 
    232 H232      -10.4123  -18.1565  -52.6523 H         1 UNK         0.0600 
    233 H233       -9.7075  -17.6765  -51.1173 H         1 UNK         0.0600 
    234 H234       -9.3692  -19.2753  -51.7828 H         1 UNK         0.0600 
    235 H235       -6.6358  -19.5552  -53.3590 H         1 UNK         0.3000 
    236 H236       -7.6552  -20.0368  -56.1168 H         1 UNK         0.0600 
    237 H237       -7.6306  -22.0032  -54.6093 H         1 UNK         0.0600 
    238 H238       -6.4608  -22.1943  -55.9059 H         1 UNK         0.0600 
    239 H239       -5.9142  -21.7741  -54.2887 H         1 UNK         0.0600 
    240 H240       -4.5635  -19.6753  -54.2435 H         1 UNK         0.3000 
    241 H241       -3.0921  -19.3715  -56.7575 H         1 UNK         0.0600 
    242 H242       -4.5785  -16.9507  -54.7528 H         1 UNK         0.3800 
    243 H243       -3.5844  -15.6619  -55.3643 H         1 UNK         0.3800 
    244 H244       -2.1540  -20.8678  -55.1320 H         1 UNK         0.0800 
    245 H245       -1.0561  -19.5694  -55.4621 H         1 UNK         0.0800 
    246 H246        0.3717  -18.8778  -53.6633 H         1 UNK         0.0800 
    247 H247       -0.6565  -17.4682  -53.5488 H         1 UNK         0.0800 
@<TRIPOS>BOND
     1    1    2 1    
     2    1  127 1    
     3    1  128 1    
     4    1  129 1    
     5    2    3 2    
     6    2    4 am   BACKBONE|DICT|INTERRES
     7    4    5 1    
     8    4  130 1    
     9    5    6 1    
    10    5   65 1    
    11    5  131 1    
    12    6    7 1    
    13    6  132 1    
    14    6  133 1    
    15    7    8 1    
    16    8    9 1    
    17    8  134 1    
    18    8  135 1    
    19    9   10 ar   
    20    9   14 ar   
    21   10   11 ar   
    22   10  136 1    
    23   11   12 ar   
    24   11  126 1    
    25   12   13 ar   
    26   12  137 1    
    27   13   14 ar   
    28   13   15 1    
    29   14  138 1    
    30   15   16 1    
    31   15  139 1    
    32   15  140 1    
    33   16   17 1    
    34   17   18 1    
    35   17  141 1    
    36   17  142 1    
    37   18   19 1    
    38   18   67 1    
    39   18  143 1    
    40   19   20 am   BACKBONE|DICT|INTERRES
    41   19  144 1    
    42   20   21 2    
    43   20   22 1    
    44   22   23 1    
    45   22   24 1    
    46   22  145 1    
    47   23  146 1    
    48   23  147 1    
    49   23  148 1    
    50   24   25 am   BACKBONE|DICT|INTERRES
    51   24  149 1    
    52   25   26 2    
    53   25   27 1    
    54   27   28 1    
    55   27   29 1    
    56   27  150 1    
    57   28  151 1    
    58   28  152 1    
    59   28  153 1    
    60   29   30 am   BACKBONE|DICT|INTERRES
    61   29  154 1    
    62   30   31 2    
    63   30   32 1    
    64   32   33 1    
    65   32   34 1    
    66   32  155 1    
    67   33  156 1    
    68   33  157 1    
    69   33  158 1    
    70   34   35 am   BACKBONE|DICT|INTERRES
    71   34  159 1    
    72   35   36 2    
    73   35   37 1    
    74   37   38 1    
    75   37   39 1    
    76   37  160 1    
    77   38  161 1    
    78   38  162 1    
    79   38  163 1    
    80   39   40 am   BACKBONE|DICT|INTERRES
    81   39  164 1    
    82   40   41 2    
    83   40   42 1    
    84   42   43 1    
    85   42   44 1    
    86   42  165 1    
    87   43  166 1    
    88   43  167 1    
    89   43  168 1    
    90   44   45 am   BACKBONE|DICT|INTERRES
    91   44  169 1    
    92   45   46 2    
    93   45   47 1    
    94   47   48 1    
    95   47   49 1    
    96   47  170 1    
    97   48  171 1    
    98   48  172 1    
    99   48  173 1    
   100   49   50 am   BACKBONE|DICT|INTERRES
   101   49  174 1    
   102   50   51 2    
   103   50   52 1    
   104   52   53 1    
   105   52   54 1    
   106   52  175 1    
   107   53  176 1    
   108   53  177 1    
   109   53  178 1    
   110   54   55 am   BACKBONE|DICT|INTERRES
   111   54  179 1    
   112   55   56 2    
   113   55   57 1    
   114   57   58 1    
   115   57   59 1    
   116   57  180 1    
   117   58  181 1    
   118   58  182 1    
   119   58  183 1    
   120   59   60 am   BACKBONE|DICT|INTERRES
   121   59  184 1    
   122   60   61 2    
   123   60   62 1    
   124   62   63 1    
   125   62   64 1    
   126   62  185 1    
   127   63  186 1    
   128   63  187 1    
   129   63  188 1    
   130   64   65 am   BACKBONE|DICT|INTERRES
   131   64  189 1    
   132   65   66 2    
   133   67   68 2    
   134   67   69 am   BACKBONE|DICT|INTERRES
   135   69   70 1    
   136   69  190 1    
   137   70   71 1    
   138   70   72 1    
   139   70  191 1    
   140   71  192 1    
   141   71  193 1    
   142   71  194 1    
   143   72   73 2    
   144   72   74 am   BACKBONE|DICT|INTERRES
   145   74   75 1    
   146   74  195 1    
   147   75   76 1    
   148   75   77 1    
   149   75  196 1    
   150   76  197 1    
   151   76  198 1    
   152   76  199 1    
   153   77   78 2    
   154   77   79 am   BACKBONE|DICT|INTERRES
   155   79   80 1    
   156   79  200 1    
   157   80   81 1    
   158   80   82 1    
   159   80  201 1    
   160   81  202 1    
   161   81  203 1    
   162   81  204 1    
   163   82   83 2    
   164   82   84 am   BACKBONE|DICT|INTERRES
   165   84   85 1    
   166   84  205 1    
   167   85   86 1    
   168   85   87 1    
   169   85  206 1    
   170   86  207 1    
   171   86  208 1    
   172   86  209 1    
   173   87   88 2    
   174   87   89 am   BACKBONE|DICT|INTERRES
   175   89   90 1    
   176   89  210 1    
   177   90   91 1    
   178   90   92 1    
   179   90  211 1    
   180   91  212 1    
   181   91  213 1    
   182   91  214 1    
   183   92   93 2    
   184   92   94 am   BACKBONE|DICT|INTERRES
   185   94   95 1    
   186   94  215 1    
   187   95   96 1    
   188   95   97 1    
   189   95  216 1    
   190   96  217 1    
   191   96  218 1    
   192   96  219 1    
   193   97   98 2    
   194   97   99 am   BACKBONE|DICT|INTERRES
   195   99  100 1    
   196   99  220 1    
   197  100  101 1    
   198  100  102 1    
   199  100  221 1    
   200  101  222 1    
   201  101  223 1    
   202  101  224 1    
   203  102  103 2    
   204  102  104 am   BACKBONE|DICT|INTERRES
   205  104  105 1    
   206  104  225 1    
   207  105  106 1    
   208  105  107 1    
   209  105  226 1    
   210  106  227 1    
   211  106  228 1    
   212  106  229 1    
   213  107  108 2    
   214  107  109 am   BACKBONE|DICT|INTERRES
   215  109  110 1    
   216  109  230 1    
   217  110  111 1    
   218  110  112 1    
   219  110  231 1    
   220  111  232 1    
   221  111  233 1    
   222  111  234 1    
   223  112  113 2    
   224  112  114 am   BACKBONE|DICT|INTERRES
   225  114  115 1    
   226  114  235 1    
   227  115  116 1    
   228  115  117 1    
   229  115  236 1    
   230  116  237 1    
   231  116  238 1    
   232  116  239 1    
   233  117  118 2    
   234  117  119 am   BACKBONE|DICT|INTERRES
   235  119  120 1    
   236  119  240 1    
   237  120  121 1    
   238  120  124 1    
   239  120  241 1    
   240  121  122 am   BACKBONE|DICT|INTERRES
   241  121  123 2    
   242  122  242 1    
   243  122  243 1    
   244  124  125 1    
   245  124  244 1    
   246  124  245 1    
   247  125  126 1    
   248  126  246 1    
   249  126  247 1    
@<TRIPOS>SUBSTRUCTURE
     1 UNK         1 GROUP             0       ****    0 ROOT    
