@<TRIPOS>MOLECULE
3R540
247   249    1
SMALL
USER_CHARGES


@<TRIPOS>ATOM
      1 CA          2.6894  -11.6825  -49.6821 C.3       0 UNK        -0.1800 
      2 C           1.6329  -12.4798  -48.9317 C.2       0 UNK         0.5000 
      3 O           0.9344  -11.9266  -48.0837 O.2       0 UNK        -0.5000 
      4 N           1.4931  -13.7707  -49.2593 N.am      1 UNK        -0.5000 
      5 CA          0.5859  -14.7301  -48.6092 C.3       1 UNK         0.1400 
      6 C6          0.9830  -16.1902  -48.9245 C.3       23 UNK        -0.0398 
      7 S7          2.5522  -16.6781  -48.1328 S.3       23 UNK        -0.2404 
      8 C8          3.6515  -16.9643  -49.5552 C.3       23 UNK        -0.0205 
      9 C9          3.0910  -17.9744  -50.5487 C.ar      23 UNK        -0.0193 
     10 C10         2.8134  -17.5772  -51.8598 C.ar      23 UNK        -0.1150 
     11 C11         2.3182  -18.4902  -52.7938 C.ar      23 UNK        -0.0193 
     12 C12         2.0945  -19.8147  -52.4018 C.ar      23 UNK        -0.1150 
     13 C13         2.3780  -20.2311  -51.0947 C.ar      23 UNK        -0.0193 
     14 C14         2.8744  -19.3042  -50.1722 C.ar      23 UNK        -0.1150 
     15 C15         2.2081  -21.6946  -50.7034 C.3       23 UNK        -0.0205 
     16 S16         0.5138  -22.0888  -50.1654 S.3       23 UNK        -0.2404 
     17 C17         0.5236  -21.6246  -48.3998 C.3       23 UNK        -0.0398 
     18 CA          0.1719  -22.8228  -47.4830 C.3       11 UNK         0.1400 
     19 N           0.6547  -22.6259  -46.1129 N.am      11 UNK        -0.5000 
     20 C           0.6636  -23.5778  -45.1683 C.2       10 UNK         0.5000 
     21 O           0.2950  -24.7358  -45.3627 O.2       10 UNK        -0.5000 
     22 CA          1.1148  -23.1582  -43.7579 C.3       10 UNK         0.1400 
     23 CB          2.6444  -23.0427  -43.6816 C.3       10 UNK        -0.1800 
     24 N           0.4991  -21.9050  -43.3205 N.am      10 UNK        -0.5000 
     25 C          -0.8178  -21.7325  -43.1352 C.2       9 UNK         0.5000 
     26 O          -1.6503  -22.6284  -43.2689 O.2       9 UNK        -0.5000 
     27 CA         -1.2938  -20.3091  -42.7956 C.3       9 UNK         0.1400 
     28 CB         -1.0807  -19.9962  -41.3072 C.3       9 UNK        -0.1800 
     29 N          -0.6359  -19.2886  -43.6091 N.am      9 UNK        -0.5000 
     30 C          -0.7117  -19.2071  -44.9453 C.2       8 UNK         0.5000 
     31 O          -1.3784  -19.9635  -45.6475 O.2       8 UNK        -0.5000 
     32 CA          0.1561  -18.1347  -45.6137 C.3       8 UNK         0.1400 
     33 CB         -0.4860  -16.7479  -45.4695 C.3       8 UNK        -0.1800 
     34 N           1.5079  -18.1241  -45.0582 N.am      8 UNK        -0.5000 
     35 C           2.3981  -19.1135  -45.2217 C.2       7 UNK         0.5000 
     36 O           2.1790  -20.1321  -45.8771 O.2       7 UNK        -0.5000 
     37 CA          3.7439  -18.9554  -44.4921 C.3       7 UNK         0.1400 
     38 CB          4.7180  -18.1170  -45.3331 C.3       7 UNK        -0.1800 
     39 N           3.5943  -18.3469  -43.1690 N.am      7 UNK        -0.5000 
     40 C           2.9631  -18.9237  -42.1357 C.2       6 UNK         0.5000 
     41 O           2.4810  -20.0553  -42.1737 O.2       6 UNK        -0.5000 
     42 CA          2.7916  -18.0633  -40.8692 C.3       6 UNK         0.1400 
     43 CB          4.0443  -18.1429  -39.9843 C.3       6 UNK        -0.1800 
     44 N           2.4941  -16.6594  -41.1740 N.am      6 UNK        -0.5000 
     45 C           1.3895  -16.2489  -41.8099 C.2       5 UNK         0.5000 
     46 O           0.4942  -17.0132  -42.1822 O.2       5 UNK        -0.5000 
     47 CA          1.2916  -14.7518  -42.1329 C.3       5 UNK         0.1400 
     48 CB          2.2116  -14.3998  -43.3201 C.3       5 UNK        -0.1800 
     49 N          -0.0969  -14.4539  -42.4651 N.am      5 UNK        -0.5000 
     50 C          -0.6436  -13.2432  -42.6001 C.2       4 UNK         0.5000 
     51 O          -0.0402  -12.1852  -42.4048 O.2       4 UNK        -0.5000 
     52 CA         -2.1296  -13.2126  -43.0082 C.3       4 UNK         0.1400 
     53 CB         -3.0181  -12.8640  -41.8041 C.3       4 UNK        -0.1800 
     54 N          -2.3842  -12.2569  -44.0879 N.am      4 UNK        -0.5000 
     55 C          -1.8860  -12.3660  -45.3260 C.2       3 UNK         0.5000 
     56 O          -1.1749  -13.3047  -45.6921 O.2       3 UNK        -0.5000 
     57 CA         -2.2329  -11.2309  -46.3067 C.3       3 UNK         0.1400 
     58 CB         -1.3144  -10.0204  -46.0760 C.3       3 UNK        -0.1800 
     59 N          -2.0548  -11.6991  -47.6787 N.am      3 UNK        -0.5000 
     60 C          -3.0294  -12.1841  -48.4615 C.2       2 UNK         0.5000 
     61 O          -4.2272  -12.1158  -48.1826 O.2       2 UNK        -0.5000 
     62 CA         -2.5976  -12.8903  -49.7667 C.3       2 UNK         0.1400 
     63 CB         -2.6588  -11.9249  -50.9595 C.3       2 UNK        -0.1800 
     64 N          -1.2498  -13.4528  -49.6749 N.am      2 UNK        -0.5000 
     65 C          -0.9183  -14.4832  -48.8837 C.2       1 UNK         0.5000 
     66 O          -1.7579  -15.2019  -48.3397 O.2       1 UNK        -0.5000 
     67 C          -1.3358  -23.1640  -47.5155 C.2       11 UNK         0.5000 
     68 O          -1.7350  -24.0972  -48.2144 O.2       11 UNK        -0.5000 
     69 N          -2.1358  -22.4467  -46.7126 N.am      12 UNK        -0.5000 
     70 CA         -3.5716  -22.6704  -46.5592 C.3       12 UNK         0.1400 
     71 CB         -4.2045  -21.5298  -45.7498 C.3       12 UNK        -0.1800 
     72 C          -3.9069  -24.0389  -45.9434 C.2       12 UNK         0.5000 
     73 O          -4.8378  -24.6959  -46.4065 O.2       12 UNK        -0.5000 
     74 N          -3.1289  -24.4687  -44.9421 N.am      13 UNK        -0.5000 
     75 CA         -3.2359  -25.7977  -44.3398 C.3       13 UNK         0.1400 
     76 CB         -2.3675  -25.8593  -43.0741 C.3       13 UNK        -0.1800 
     77 C          -2.8544  -26.9254  -45.3179 C.2       13 UNK         0.5000 
     78 O          -3.4767  -27.9879  -45.2901 O.2       13 UNK        -0.5000 
     79 N          -1.8445  -26.6741  -46.1610 N.am      14 UNK        -0.5000 
     80 CA         -1.3334  -27.6243  -47.1435 C.3       14 UNK         0.1400 
     81 CB          0.0741  -27.1947  -47.5873 C.3       14 UNK        -0.1800 
     82 C          -2.2514  -27.8035  -48.3656 C.2       14 UNK         0.5000 
     83 O          -2.4645  -28.9431  -48.7832 O.2       14 UNK        -0.5000 
     84 N          -2.7382  -26.6959  -48.9446 N.am      15 UNK        -0.5000 
     85 CA         -3.3275  -26.6899  -50.2883 C.3       15 UNK         0.1400 
     86 CB         -2.2095  -26.4067  -51.3110 C.3       15 UNK        -0.1800 
     87 C          -4.5380  -25.7495  -50.4523 C.2       15 UNK         0.5000 
     88 O          -4.9028  -25.4462  -51.5891 O.2       15 UNK        -0.5000 
     89 N          -5.1650  -25.3413  -49.3393 N.am      16 UNK        -0.5000 
     90 CA         -6.3165  -24.4305  -49.2365 C.3       16 UNK         0.1400 
     91 CB         -7.5042  -24.8895  -50.1095 C.3       16 UNK        -0.1800 
     92 C          -5.9508  -22.9567  -49.5020 C.2       16 UNK         0.5000 
     93 O          -4.8811  -22.6495  -50.0320 O.2       16 UNK        -0.5000 
     94 N          -6.8526  -22.0500  -49.1007 N.am      17 UNK        -0.5000 
     95 CA         -6.6619  -20.5950  -49.1378 C.3       17 UNK         0.1400 
     96 CB         -7.8744  -19.9110  -48.4903 C.3       17 UNK        -0.1800 
     97 C          -6.4033  -20.0175  -50.5429 C.2       17 UNK         0.5000 
     98 O          -5.7144  -19.0048  -50.6616 O.2       17 UNK        -0.5000 
     99 N          -6.9143  -20.6901  -51.5830 N.am      18 UNK        -0.5000 
    100 CA        -6.6616  -20.3627  -52.9867 C.3       18 UNK         0.1400 
    101 CB        -7.5473  -21.2437  -53.8800 C.3       18 UNK        -0.1800 
    102 C         -5.1787  -20.5103  -53.3786 C.2       18 UNK         0.5000 
    103 O         -4.6693  -19.6874  -54.1403 O.2       18 UNK        -0.5000 
    104 N         -4.5015  -21.5262  -52.8237 N.am      19 UNK        -0.5000 
    105 CA        -3.0714  -21.7527  -53.0243 C.3       19 UNK         0.1400 
    106 CB        -2.7082  -23.1928  -52.6464 C.3       19 UNK        -0.1800 
    107 C         -2.2104  -20.7579  -52.2332 C.2       19 UNK         0.5000 
    108 O         -1.1338  -20.4067  -52.7062 O.2       19 UNK        -0.5000 
    109 N         -2.6992  -20.3050  -51.0692 N.am      20 UNK        -0.5000 
    110 CA        -2.0578  -19.2553  -50.2767 C.3       20 UNK         0.1400 
    111 CB        -2.6606  -19.2209  -48.8637 C.3       20 UNK        -0.1800 
    112 C         -2.1605  -17.8825  -50.9633 C.2       20 UNK         0.5000 
    113 O         -1.1755  -17.1494  -50.9996 O.2       20 UNK        -0.5000 
    114 N         -3.3391  -17.5708  -51.5214 N.am      21 UNK        -0.5000 
    115 CA        -3.5833  -16.3568  -52.2992 C.3       21 UNK         0.1400 
    116 CB        -5.0881  -16.2238  -52.5785 C.3       21 UNK        -0.1800 
    117 C         -2.7729  -16.3154  -53.6093 C.2       21 UNK         0.5000 
    118 O         -2.2219  -15.2642  -53.9361 O.2       21 UNK        -0.5000 
    119 N         -2.7258  -17.4574  -54.3136 N.am      22 UNK        -0.5000 
    120 CA        -1.9669  -17.7435  -55.5476 C.3       22 UNK         0.1400 
    121 C         -2.1341  -16.7488  -56.7398 C.2       22 UNK         0.5000 
    122 N         -3.2127  -15.9785  -56.8080 N.am      22 UNK        -0.7600 
    123 O         -1.3055  -16.7035  -57.6457 O.2       22 UNK        -0.5000 
    124 C124       -0.5009  -18.2089  -55.2935 C.3       23 UNK        -0.0398 
    125 S125        0.6075  -17.0273  -54.4532 S.3       23 UNK        -0.2404 
    126 C126        2.1026  -18.0493  -54.2373 C.3       23 UNK        -0.0205 
    127 H127        3.4206  -11.2789  -48.9816 H         1 UNK         0.0600 
    128 H128        2.2259  -10.8493  -50.2103 H         1 UNK         0.0600 
    129 H129        3.2195  -12.2959  -50.4111 H         1 UNK         0.0600 
    130 H130        2.0855  -14.1589  -49.9785 H         1 UNK         0.3000 
    131 H131        0.7006  -14.5800  -47.5346 H         1 UNK         0.0600 
    132 H132        0.2259  -16.8921  -48.5722 H         1 UNK         0.0800 
    133 H133        1.0393  -16.3316  -50.0030 H         1 UNK         0.0800 
    134 H134        4.6123  -17.3262  -49.1872 H         1 UNK         0.0800 
    135 H135        3.8518  -16.0087  -50.0417 H         1 UNK         0.0800 
    136 H136        2.9928  -16.5554  -52.1633 H         1 UNK         0.1150 
    137 H137        1.7169  -20.5295  -53.1194 H         1 UNK         0.1150 
    138 H138        3.1025  -19.6159  -49.1624 H         1 UNK         0.1150 
    139 H139        2.9222  -21.9721  -49.9267 H         1 UNK         0.0800 
    140 H140        2.4470  -22.3229  -51.5626 H         1 UNK         0.0800 
    141 H141       -0.1523  -20.7847  -48.2352 H         1 UNK         0.0800 
    142 H142        1.5177  -21.2528  -48.1536 H         1 UNK         0.0800 
    143 H143        0.7041  -23.6975  -47.8636 H         1 UNK         0.0600 
    144 H144        1.0081  -21.7013  -45.8839 H         1 UNK         0.3000 
    145 H145        0.8008  -23.9409  -43.0642 H         1 UNK         0.0600 
    146 H146        2.9722  -22.8269  -42.6646 H         1 UNK         0.0600 
    147 H147        3.1219  -23.9746  -43.9867 H         1 UNK         0.0600 
    148 H148        3.0231  -22.2519  -44.3291 H         1 UNK         0.0600 
    149 H149        1.1266  -21.1281  -43.1365 H         1 UNK         0.3000 
    150 H150       -2.3642  -20.2577  -43.0041 H         1 UNK         0.0600 
    151 H151       -1.5929  -20.7253  -40.6782 H         1 UNK         0.0600 
    152 H152       -1.4731  -19.0117  -41.0518 H         1 UNK         0.0600 
    153 H153       -0.0246  -20.0138  -41.0380 H         1 UNK         0.0600 
    154 H154       -0.0848  -18.5955  -43.1107 H         1 UNK         0.3000 
    155 H155        0.2311  -18.3725  -46.6766 H         1 UNK         0.0600 
    156 H156       -0.7330  -16.5125  -44.4358 H         1 UNK         0.0600 
    157 H157        0.1729  -15.9637  -45.8359 H         1 UNK         0.0600 
    158 H158       -1.4124  -16.6910  -46.0417 H         1 UNK         0.0600 
    159 H159        1.7527  -17.3443  -44.4690 H         1 UNK         0.3000 
    160 H160        4.1723  -19.9515  -44.3631 H         1 UNK         0.0600 
    161 H161        4.8468  -18.5489  -46.3267 H         1 UNK         0.0600 
    162 H162        4.3609  -17.0948  -45.4656 H         1 UNK         0.0600 
    163 H163        5.7030  -18.0718  -44.8684 H         1 UNK         0.0600 
    164 H164        3.9648  -17.4161  -43.0492 H         1 UNK         0.3000 
    165 H165        1.9497  -18.4705  -40.3052 H         1 UNK         0.0600 
    166 H166        3.9000  -17.6044  -39.0475 H         1 UNK         0.0600 
    167 H167        4.2767  -19.1780  -39.7301 H         1 UNK         0.0600 
    168 H168        4.9190  -17.7228  -40.4824 H         1 UNK         0.0600 
    169 H169        3.1873  -15.9790  -40.8972 H         1 UNK         0.3000 
    170 H170        1.5810  -14.1805  -41.2488 H         1 UNK         0.0600 
    171 H171        3.2504  -14.6535  -43.1066 H         1 UNK         0.0600 
    172 H172        1.9210  -14.9332  -44.2260 H         1 UNK         0.0600 
    173 H173        2.1851  -13.3333  -43.5433 H         1 UNK         0.0600 
    174 H174       -0.6604  -15.2855  -42.5937 H         1 UNK         0.3000 
    175 H175       -2.4166  -14.2032  -43.3683 H         1 UNK         0.0600 
    176 H176       -2.7983  -11.8684  -41.4165 H         1 UNK         0.0600 
    177 H177       -4.0749  -12.8960  -42.0699 H         1 UNK         0.0600 
    178 H178       -2.8671  -13.5738  -40.9897 H         1 UNK         0.0600 
    179 H179       -2.9279  -11.4416  -43.8461 H         1 UNK         0.3000 
    180 H180       -3.2676  -10.9237  -46.1408 H         1 UNK         0.0600 
    181 H181       -0.2627  -10.2853  -46.1921 H         1 UNK         0.0600 
    182 H182       -1.4412   -9.6171  -45.0706 H         1 UNK         0.0600 
    183 H183       -1.5368   -9.2174  -46.7789 H         1 UNK         0.0600 
    184 H184       -1.0893  -11.8613  -47.9480 H         1 UNK         0.3000 
    185 H185       -3.3000  -13.7061  -49.9496 H         1 UNK         0.0600 
    186 H186       -2.4179  -12.4359  -51.8922 H         1 UNK         0.0600 
    187 H187       -3.6591  -11.5040  -51.0692 H         1 UNK         0.0600 
    188 H188       -1.9632  -11.0932  -50.8406 H         1 UNK         0.0600 
    189 H189       -0.5026  -12.9160  -50.0893 H         1 UNK         0.3000 
    190 H190       -1.7447  -21.6640  -46.1917 H         1 UNK         0.3000 
    191 H191       -4.0007  -22.6458  -47.5581 H         1 UNK         0.0600 
    192 H192       -3.7841  -21.4684  -44.7459 H         1 UNK         0.0600 
    193 H193       -5.2811  -21.6729  -45.6495 H         1 UNK         0.0600 
    194 H194       -4.0498  -20.5673  -46.2376 H         1 UNK         0.0600 
    195 H195       -2.4205  -23.8473  -44.5611 H         1 UNK         0.3000 
    196 H196       -4.2759  -25.9519  -44.0447 H         1 UNK         0.0600 
    197 H197       -2.4377  -26.8383  -42.5984 H         1 UNK         0.0600 
    198 H198       -2.6867  -25.1179  -42.3415 H         1 UNK         0.0600 
    199 H199       -1.3161  -25.6763  -43.2978 H         1 UNK         0.0600 
    200 H200       -1.3501  -25.7922  -46.0806 H         1 UNK         0.3000 
    201 H201       -1.2409  -28.5972  -46.6558 H         1 UNK         0.0600 
    202 H202        0.7607  -27.1620  -46.7413 H         1 UNK         0.0600 
    203 H203        0.0682  -26.2077  -48.0508 H         1 UNK         0.0600 
    204 H204        0.4867  -27.8959  -48.3137 H         1 UNK         0.0600 
    205 H205       -2.4842  -25.7856  -48.5638 H         1 UNK         0.3000 
    206 H206       -3.7319  -27.6783  -50.5144 H         1 UNK         0.0600 
    207 H207       -1.4489  -27.1870  -51.2860 H         1 UNK         0.0600 
    208 H208       -2.5925  -26.3684  -52.3312 H         1 UNK         0.0600 
    209 H209       -1.7148  -25.4576  -51.1033 H         1 UNK         0.0600 
    210 H210       -4.7720  -25.6174  -48.4481 H         1 UNK         0.3000 
    211 H211       -6.6460  -24.4903  -48.1994 H         1 UNK         0.0600 
    212 H212       -7.3285  -24.7134  -51.1710 H         1 UNK         0.0600 
    213 H213       -8.4148  -24.3517  -49.8441 H         1 UNK         0.0600 
    214 H214       -7.7079  -25.9516  -49.9734 H         1 UNK         0.0600 
    215 H215       -7.7116  -22.3730  -48.6792 H         1 UNK         0.3000 
    216 H216       -5.7821  -20.3684  -48.5321 H         1 UNK         0.0600 
    217 H217       -7.7522  -18.8269  -48.4798 H         1 UNK         0.0600 
    218 H218       -8.0028  -20.2310  -47.4561 H         1 UNK         0.0600 
    219 H219       -8.7964  -20.1325  -49.0291 H         1 UNK         0.0600 
    220 H220       -7.4657  -21.5144  -51.3966 H         1 UNK         0.3000 
    221 H221       -6.9442  -19.3199  -53.1452 H         1 UNK         0.0600 
    222 H222       -7.3296  -22.3039  -53.7435 H         1 UNK         0.0600 
    223 H223       -8.6044  -21.0870  -53.6648 H         1 UNK         0.0600 
    224 H224       -7.3930  -21.0096  -54.9342 H         1 UNK         0.0600 
    225 H225       -4.9590  -22.1225  -52.1446 H         1 UNK         0.3000 
    226 H226       -2.8463  -21.6188  -54.0847 H         1 UNK         0.0600 
    227 H227       -3.2924  -23.9124  -53.2195 H         1 UNK         0.0600 
    228 H228       -1.6548  -23.3937  -52.8455 H         1 UNK         0.0600 
    229 H229       -2.8793  -23.3820  -51.5867 H         1 UNK         0.0600 
    230 H230       -3.5833  -20.6674  -50.7407 H         1 UNK         0.3000 
    231 H231       -0.9970  -19.4967  -50.1853 H         1 UNK         0.0600 
    232 H232       -2.1277  -18.5077  -48.2334 H         1 UNK         0.0600 
    233 H233       -2.5933  -20.1953  -48.3816 H         1 UNK         0.0600 
    234 H234       -3.7090  -18.9247  -48.8747 H         1 UNK         0.0600 
    235 H235       -4.1265  -18.1991  -51.3892 H         1 UNK         0.3000 
    236 H236       -3.2740  -15.5045  -51.6907 H         1 UNK         0.0600 
    237 H237       -5.6572  -16.1739  -51.6499 H         1 UNK         0.0600 
    238 H238       -5.3024  -15.3147  -53.1415 H         1 UNK         0.0600 
    239 H239       -5.4670  -17.0677  -53.1562 H         1 UNK         0.0600 
    240 H240       -3.2836  -18.2360  -53.9789 H         1 UNK         0.3000 
    241 H241       -2.4693  -18.6320  -55.9317 H         1 UNK         0.0600 
    242 H242       -3.3245  -15.3477  -57.5862 H         1 UNK         0.3800 
    243 H243       -3.9012  -15.9974  -56.0732 H         1 UNK         0.3800 
    244 H244       -0.5167  -19.1189  -54.6998 H         1 UNK         0.0800 
    245 H245       -0.0322  -18.5024  -56.2341 H         1 UNK         0.0800 
    246 H246        2.0682  -18.9154  -54.8997 H         1 UNK         0.0800 
    247 H247        2.9660  -17.4656  -54.5596 H         1 UNK         0.0800 
@<TRIPOS>BOND
     1    1    2 1    
     2    1  127 1    
     3    1  128 1    
     4    1  129 1    
     5    2    3 2    
     6    2    4 am   BACKBONE|DICT|INTERRES
     7    4    5 1    
     8    4  130 1    
     9    5    6 1    
    10    5   65 1    
    11    5  131 1    
    12    6    7 1    
    13    6  132 1    
    14    6  133 1    
    15    7    8 1    
    16    8    9 1    
    17    8  134 1    
    18    8  135 1    
    19    9   10 ar   
    20    9   14 ar   
    21   10   11 ar   
    22   10  136 1    
    23   11   12 ar   
    24   11  126 1    
    25   12   13 ar   
    26   12  137 1    
    27   13   14 ar   
    28   13   15 1    
    29   14  138 1    
    30   15   16 1    
    31   15  139 1    
    32   15  140 1    
    33   16   17 1    
    34   17   18 1    
    35   17  141 1    
    36   17  142 1    
    37   18   19 1    
    38   18   67 1    
    39   18  143 1    
    40   19   20 am   BACKBONE|DICT|INTERRES
    41   19  144 1    
    42   20   21 2    
    43   20   22 1    
    44   22   23 1    
    45   22   24 1    
    46   22  145 1    
    47   23  146 1    
    48   23  147 1    
    49   23  148 1    
    50   24   25 am   BACKBONE|DICT|INTERRES
    51   24  149 1    
    52   25   26 2    
    53   25   27 1    
    54   27   28 1    
    55   27   29 1    
    56   27  150 1    
    57   28  151 1    
    58   28  152 1    
    59   28  153 1    
    60   29   30 am   BACKBONE|DICT|INTERRES
    61   29  154 1    
    62   30   31 2    
    63   30   32 1    
    64   32   33 1    
    65   32   34 1    
    66   32  155 1    
    67   33  156 1    
    68   33  157 1    
    69   33  158 1    
    70   34   35 am   BACKBONE|DICT|INTERRES
    71   34  159 1    
    72   35   36 2    
    73   35   37 1    
    74   37   38 1    
    75   37   39 1    
    76   37  160 1    
    77   38  161 1    
    78   38  162 1    
    79   38  163 1    
    80   39   40 am   BACKBONE|DICT|INTERRES
    81   39  164 1    
    82   40   41 2    
    83   40   42 1    
    84   42   43 1    
    85   42   44 1    
    86   42  165 1    
    87   43  166 1    
    88   43  167 1    
    89   43  168 1    
    90   44   45 am   BACKBONE|DICT|INTERRES
    91   44  169 1    
    92   45   46 2    
    93   45   47 1    
    94   47   48 1    
    95   47   49 1    
    96   47  170 1    
    97   48  171 1    
    98   48  172 1    
    99   48  173 1    
   100   49   50 am   BACKBONE|DICT|INTERRES
   101   49  174 1    
   102   50   51 2    
   103   50   52 1    
   104   52   53 1    
   105   52   54 1    
   106   52  175 1    
   107   53  176 1    
   108   53  177 1    
   109   53  178 1    
   110   54   55 am   BACKBONE|DICT|INTERRES
   111   54  179 1    
   112   55   56 2    
   113   55   57 1    
   114   57   58 1    
   115   57   59 1    
   116   57  180 1    
   117   58  181 1    
   118   58  182 1    
   119   58  183 1    
   120   59   60 am   BACKBONE|DICT|INTERRES
   121   59  184 1    
   122   60   61 2    
   123   60   62 1    
   124   62   63 1    
   125   62   64 1    
   126   62  185 1    
   127   63  186 1    
   128   63  187 1    
   129   63  188 1    
   130   64   65 am   BACKBONE|DICT|INTERRES
   131   64  189 1    
   132   65   66 2    
   133   67   68 2    
   134   67   69 am   BACKBONE|DICT|INTERRES
   135   69   70 1    
   136   69  190 1    
   137   70   71 1    
   138   70   72 1    
   139   70  191 1    
   140   71  192 1    
   141   71  193 1    
   142   71  194 1    
   143   72   73 2    
   144   72   74 am   BACKBONE|DICT|INTERRES
   145   74   75 1    
   146   74  195 1    
   147   75   76 1    
   148   75   77 1    
   149   75  196 1    
   150   76  197 1    
   151   76  198 1    
   152   76  199 1    
   153   77   78 2    
   154   77   79 am   BACKBONE|DICT|INTERRES
   155   79   80 1    
   156   79  200 1    
   157   80   81 1    
   158   80   82 1    
   159   80  201 1    
   160   81  202 1    
   161   81  203 1    
   162   81  204 1    
   163   82   83 2    
   164   82   84 am   BACKBONE|DICT|INTERRES
   165   84   85 1    
   166   84  205 1    
   167   85   86 1    
   168   85   87 1    
   169   85  206 1    
   170   86  207 1    
   171   86  208 1    
   172   86  209 1    
   173   87   88 2    
   174   87   89 am   BACKBONE|DICT|INTERRES
   175   89   90 1    
   176   89  210 1    
   177   90   91 1    
   178   90   92 1    
   179   90  211 1    
   180   91  212 1    
   181   91  213 1    
   182   91  214 1    
   183   92   93 2    
   184   92   94 am   BACKBONE|DICT|INTERRES
   185   94   95 1    
   186   94  215 1    
   187   95   96 1    
   188   95   97 1    
   189   95  216 1    
   190   96  217 1    
   191   96  218 1    
   192   96  219 1    
   193   97   98 2    
   194   97   99 am   BACKBONE|DICT|INTERRES
   195   99  100 1    
   196   99  220 1    
   197  100  101 1    
   198  100  102 1    
   199  100  221 1    
   200  101  222 1    
   201  101  223 1    
   202  101  224 1    
   203  102  103 2    
   204  102  104 am   BACKBONE|DICT|INTERRES
   205  104  105 1    
   206  104  225 1    
   207  105  106 1    
   208  105  107 1    
   209  105  226 1    
   210  106  227 1    
   211  106  228 1    
   212  106  229 1    
   213  107  108 2    
   214  107  109 am   BACKBONE|DICT|INTERRES
   215  109  110 1    
   216  109  230 1    
   217  110  111 1    
   218  110  112 1    
   219  110  231 1    
   220  111  232 1    
   221  111  233 1    
   222  111  234 1    
   223  112  113 2    
   224  112  114 am   BACKBONE|DICT|INTERRES
   225  114  115 1    
   226  114  235 1    
   227  115  116 1    
   228  115  117 1    
   229  115  236 1    
   230  116  237 1    
   231  116  238 1    
   232  116  239 1    
   233  117  118 2    
   234  117  119 am   BACKBONE|DICT|INTERRES
   235  119  120 1    
   236  119  240 1    
   237  120  121 1    
   238  120  124 1    
   239  120  241 1    
   240  121  122 am   BACKBONE|DICT|INTERRES
   241  121  123 2    
   242  122  242 1    
   243  122  243 1    
   244  124  125 1    
   245  124  244 1    
   246  124  245 1    
   247  125  126 1    
   248  126  246 1    
   249  126  247 1    
@<TRIPOS>SUBSTRUCTURE
     1 UNK         1 GROUP             0       ****    0 ROOT    
