@<TRIPOS>MOLECULE
3R540
247   249    1
SMALL
USER_CHARGES


@<TRIPOS>ATOM
      1 CA          6.9371  -14.2072  -52.8832 C.3       0 UNK        -0.1800 
      2 C           6.5624  -13.5019  -51.5872 C.2       0 UNK         0.5000 
      3 O           6.7237  -12.2855  -51.4820 O.2       0 UNK        -0.5000 
      4 N           6.0730  -14.2604  -50.5996 N.am      1 UNK        -0.5000 
      5 CA          5.5815  -13.7596  -49.3132 C.3       1 UNK         0.1400 
      6 C6          5.4634  -14.8910  -48.2572 C.3       23 UNK        -0.0398 
      7 S7          4.4934  -16.3387  -48.8124 S.3       23 UNK        -0.2404 
      8 C8          3.5303  -16.7375  -47.3221 C.3       23 UNK        -0.0205 
      9 C9          2.5545  -17.8695  -47.6000 C.ar      23 UNK        -0.0193 
     10 C10         1.1868  -17.6065  -47.7165 C.ar      23 UNK        -0.1150 
     11 C11         0.2882  -18.6354  -48.0089 C.ar      23 UNK        -0.0193 
     12 C12         0.7676  -19.9356  -48.1884 C.ar      23 UNK        -0.1150 
     13 C13         2.1299  -20.2156  -48.0556 C.ar      23 UNK        -0.0193 
     14 C14         3.0190  -19.1795  -47.7562 C.ar      23 UNK        -0.1150 
     15 C15         2.6368  -21.6337  -48.2575 C.3       23 UNK        -0.0205 
     16 S16         2.7041  -22.5469  -46.6850 S.3       23 UNK        -0.2404 
     17 C17         2.9418  -24.2539  -47.3019 C.3       23 UNK        -0.0398 
     18 CA          1.6947  -25.1624  -47.1577 C.3       11 UNK         0.1400 
     19 N           1.2978  -25.3298  -45.7586 N.am      11 UNK        -0.5000 
     20 C           0.3192  -26.1312  -45.3162 C.2       10 UNK         0.5000 
     21 O          -0.2954  -26.9158  -46.0404 O.2       10 UNK        -0.5000 
     22 CA         -0.0879  -25.9816  -43.8345 C.3       10 UNK         0.1400 
     23 CB          0.5392  -27.1032  -42.9938 C.3       10 UNK        -0.1800 
     24 N           0.2480  -24.6828  -43.2300 N.am      10 UNK        -0.5000 
     25 C          -0.1482  -23.4847  -43.6841 C.2       9 UNK         0.5000 
     26 O          -0.8332  -23.3395  -44.7003 O.2       9 UNK        -0.5000 
     27 CA          0.3246  -22.2470  -42.9035 C.3       9 UNK         0.1400 
     28 CB          1.8525  -22.2241  -42.7057 C.3       9 UNK        -0.1800 
     29 N          -0.0862  -21.0580  -43.6421 N.am      9 UNK        -0.5000 
     30 C          -0.4125  -19.8779  -43.1143 C.2       8 UNK         0.5000 
     31 O          -0.3663  -19.6253  -41.9065 O.2       8 UNK        -0.5000 
     32 CA         -0.8912  -18.8109  -44.1096 C.3       8 UNK         0.1400 
     33 CB         -2.2849  -19.1514  -44.6674 C.3       8 UNK        -0.1800 
     34 N          -0.9468  -17.5233  -43.4295 N.am      8 UNK        -0.5000 
     35 C          -0.7129  -16.3341  -43.9900 C.2       7 UNK         0.5000 
     36 O          -0.4464  -16.1857  -45.1836 O.2       7 UNK        -0.5000 
     37 CA         -0.8117  -15.0911  -43.0802 C.3       7 UNK         0.1400 
     38 CB         -0.9822  -15.3985  -41.5740 C.3       7 UNK        -0.1800 
     39 N           0.3062  -14.1743  -43.3116 N.am      7 UNK        -0.5000 
     40 C           1.6063  -14.4042  -43.0770 C.2       6 UNK         0.5000 
     41 O           2.0389  -15.4272  -42.5445 O.2       6 UNK        -0.5000 
     42 CA          2.6067  -13.3160  -43.5143 C.3       6 UNK         0.1400 
     43 CB          3.4061  -13.7829  -44.7419 C.3       6 UNK        -0.1800 
     44 N           1.9862  -12.0273  -43.8267 N.am      6 UNK        -0.5000 
     45 C           1.5448  -11.1399  -42.9252 C.2       5 UNK         0.5000 
     46 O           1.5737  -11.3306  -41.7091 O.2       5 UNK        -0.5000 
     47 CA          0.9747   -9.8207  -43.4733 C.3       5 UNK         0.1400 
     48 CB          2.1148   -8.8490  -43.8180 C.3       5 UNK        -0.1800 
     49 N           0.1667  -10.0472  -44.6721 N.am      5 UNK        -0.5000 
     50 C          -1.1640   -9.9038  -44.7442 C.2       4 UNK         0.5000 
     51 O          -1.8646   -9.5310  -43.8023 O.2       4 UNK        -0.5000 
     52 CA         -1.8374  -10.2303  -46.0955 C.3       4 UNK         0.1400 
     53 CB         -2.0258   -8.9490  -46.9220 C.3       4 UNK        -0.1800 
     54 N          -1.1011  -11.2076  -46.9003 N.am      4 UNK        -0.5000 
     55 C          -0.9019  -12.4867  -46.5542 C.2       3 UNK         0.5000 
     56 O          -1.4003  -12.9967  -45.5527 O.2       3 UNK        -0.5000 
     57 CA          0.0468  -13.3225  -47.4405 C.3       3 UNK         0.1400 
     58 CB         -0.7597  -14.2103  -48.3998 C.3       3 UNK        -0.1800 
     59 N           1.0235  -12.5440  -48.2166 N.am      3 UNK        -0.5000 
     60 C           1.9120  -11.6754  -47.7156 C.2       2 UNK         0.5000 
     61 O           1.9755  -11.3777  -46.5222 O.2       2 UNK        -0.5000 
     62 CA          2.9124  -11.0560  -48.7022 C.3       2 UNK         0.1400 
     63 CB          3.2977   -9.6217  -48.2988 C.3       2 UNK        -0.1800 
     64 N           4.1174  -11.8787  -48.7401 N.am      2 UNK        -0.5000 
     65 C           4.2585  -12.9810  -49.4852 C.2       1 UNK         0.5000 
     66 O           3.3969  -13.3863  -50.2703 O.2       1 UNK        -0.5000 
     67 C           0.5322  -24.6877  -48.0605 C.2       11 UNK         0.5000 
     68 O           0.4752  -25.0890  -49.2215 O.2       11 UNK        -0.5000 
     69 N          -0.3917  -23.8811  -47.5125 N.am      12 UNK        -0.5000 
     70 CA         -1.5736  -23.3835  -48.2146 C.3       12 UNK         0.1400 
     71 CB         -2.2364  -22.2629  -47.3985 C.3       12 UNK        -0.1800 
     72 C          -2.5911  -24.4968  -48.5014 C.2       12 UNK         0.5000 
     73 O          -3.2433  -24.4617  -49.5436 O.2       12 UNK        -0.5000 
     74 N          -2.7010  -25.4692  -47.5878 N.am      13 UNK        -0.5000 
     75 CA         -3.5326  -26.6572  -47.7627 C.3       13 UNK         0.1400 
     76 CB         -3.7815  -27.3219  -46.4003 C.3       13 UNK        -0.1800 
     77 C          -2.8938  -27.6424  -48.7559 C.2       13 UNK         0.5000 
     78 O          -3.5990  -28.1871  -49.6047 O.2       13 UNK        -0.5000 
     79 N          -1.5683  -27.8220  -48.6548 N.am      14 UNK        -0.5000 
     80 CA         -0.7738  -28.6908  -49.5254 C.3       14 UNK         0.1400 
     81 CB          0.6498  -28.8137  -48.9618 C.3       14 UNK        -0.1800 
     82 C          -0.7426  -28.2147  -50.9905 C.2       14 UNK         0.5000 
     83 O          -0.9164  -29.0292  -51.8976 O.2       14 UNK        -0.5000 
     84 N          -0.5434  -26.9053  -51.1952 N.am      15 UNK        -0.5000 
     85 CA         -0.5243  -26.2636  -52.5129 C.3       15 UNK         0.1400 
     86 CB          0.2633  -24.9471  -52.4095 C.3       15 UNK        -0.1800 
     87 C          -1.9307  -25.9905  -53.0820 C.2       15 UNK         0.5000 
     88 O          -2.0422  -25.6490  -54.2597 O.2       15 UNK        -0.5000 
     89 N          -2.9640  -26.1023  -52.2333 N.am      16 UNK        -0.5000 
     90 CA         -4.3703  -25.7565  -52.4774 C.3       16 UNK         0.1400 
     91 CB         -4.9810  -26.6165  -53.6026 C.3       16 UNK        -0.1800 
     92 C          -4.6029  -24.2431  -52.6845 C.2       16 UNK         0.5000 
     93 O          -5.6377  -23.8435  -53.2186 O.2       16 UNK        -0.5000 
     94 N          -3.6621  -23.4184  -52.2052 N.am      17 UNK        -0.5000 
     95 CA         -3.7505  -21.9596  -52.1687 C.3       17 UNK         0.1400 
     96 CB         -2.3631  -21.3795  -51.8574 C.3       17 UNK        -0.1800 
     97 C          -4.7931  -21.4643  -51.1489 C.2       17 UNK         0.5000 
     98 O          -5.3369  -20.3741  -51.3195 O.2       17 UNK        -0.5000 
     99 N          -5.0958  -22.2812  -50.1293 N.am      18 UNK        -0.5000 
    100 CA        -6.1632  -22.0405  -49.1554 C.3       18 UNK         0.1400 
    101 CB        -6.1338  -23.1438  -48.0871 C.3       18 UNK        -0.1800 
    102 C         -7.5585  -21.9498  -49.8071 C.2       18 UNK         0.5000 
    103 O         -8.3736  -21.1297  -49.3852 O.2       18 UNK        -0.5000 
    104 N         -7.7866  -22.7430  -50.8654 N.am      19 UNK        -0.5000 
    105 CA        -9.0035  -22.7110  -51.6829 C.3       19 UNK         0.1400 
    106 CB        -9.0858  -23.9954  -52.5218 C.3       19 UNK        -0.1800 
    107 C         -9.0900  -21.4624  -52.5853 C.2       19 UNK         0.5000 
    108 O        -10.1908  -21.0749  -52.9770 O.2       19 UNK        -0.5000 
    109 N         -7.9388  -20.8366  -52.8675 N.am      20 UNK        -0.5000 
    110 CA        -7.8122  -19.5574  -53.5697 C.3       20 UNK         0.1400 
    111 CB        -6.5315  -19.5828  -54.4225 C.3       20 UNK        -0.1800 
    112 C         -7.8234  -18.3537  -52.6000 C.2       20 UNK         0.5000 
    113 O         -7.5876  -17.2270  -53.0378 O.2       20 UNK        -0.5000 
    114 N         -8.1018  -18.6085  -51.3117 N.am      21 UNK        -0.5000 
    115 CA        -8.2110  -17.6537  -50.2065 C.3       21 UNK         0.1400 
    116 CB        -9.3443  -16.6351  -50.4555 C.3       21 UNK        -0.1800 
    117 C         -6.8729  -16.9953  -49.8108 C.2       21 UNK         0.5000 
    118 O         -6.8681  -15.8525  -49.3489 O.2       21 UNK        -0.5000 
    119 N         -5.7625  -17.7312  -49.9604 N.am      22 UNK        -0.5000 
    120 CA        -4.4508  -17.3751  -49.3976 C.3       22 UNK         0.1400 
    121 C         -4.4885  -17.3821  -47.8425 C.2       22 UNK         0.5000 
    122 N         -4.1082  -16.2902  -47.1936 N.am      22 UNK        -0.7600 
    123 O         -4.8378  -18.3852  -47.2248 O.2       22 UNK        -0.5000 
    124 C124       -3.3521  -18.3226  -49.9389 C.3       23 UNK        -0.0398 
    125 S125       -1.6477  -17.6966  -49.7554 S.3       23 UNK        -0.2404 
    126 C126       -1.1995  -18.3461  -48.1149 C.3       23 UNK        -0.0205 
    127 H127        6.3560  -13.8025  -53.7118 H         1 UNK         0.0600 
    128 H128        6.7506  -15.2801  -52.8293 H         1 UNK         0.0600 
    129 H129        7.9945  -14.0565  -53.1007 H         1 UNK         0.0600 
    130 H130        5.9257  -15.2478  -50.7550 H         1 UNK         0.3000 
    131 H131        6.3281  -13.0544  -48.9410 H         1 UNK         0.0600 
    132 H132        6.4621  -15.2477  -48.0021 H         1 UNK         0.0800 
    133 H133        5.0491  -14.5000  -47.3262 H         1 UNK         0.0800 
    134 H134        4.2038  -17.0201  -46.5117 H         1 UNK         0.0800 
    135 H135        2.9920  -15.8488  -46.9915 H         1 UNK         0.0800 
    136 H136        0.8175  -16.6000  -47.5824 H         1 UNK         0.1150 
    137 H137        0.0831  -20.7329  -48.4356 H         1 UNK         0.1150 
    138 H138        4.0758  -19.3879  -47.6637 H         1 UNK         0.1150 
    139 H139        1.9877  -22.1573  -48.9612 H         1 UNK         0.0800 
    140 H140        3.6299  -21.6168  -48.7091 H         1 UNK         0.0800 
    141 H141        3.2747  -24.2308  -48.3412 H         1 UNK         0.0800 
    142 H142        3.7718  -24.6922  -46.7464 H         1 UNK         0.0800 
    143 H143        1.9784  -26.1536  -47.5154 H         1 UNK         0.0600 
    144 H144        1.7358  -24.7055  -45.0979 H         1 UNK         0.3000 
    145 H145       -1.1736  -26.0890  -43.7919 H         1 UNK         0.0600 
    146 H146        0.1768  -27.0769  -41.9661 H         1 UNK         0.0600 
    147 H147        1.6270  -27.0271  -42.9699 H         1 UNK         0.0600 
    148 H148        0.2875  -28.0842  -43.3997 H         1 UNK         0.0600 
    149 H149        0.8136  -24.7193  -42.3943 H         1 UNK         0.3000 
    150 H150       -0.1703  -22.2656  -41.9304 H         1 UNK         0.0600 
    151 H151        2.1929  -23.0685  -42.1060 H         1 UNK         0.0600 
    152 H152        2.1673  -21.3189  -42.1862 H         1 UNK         0.0600 
    153 H153        2.3816  -22.2592  -43.6583 H         1 UNK         0.0600 
    154 H154       -0.2352  -21.2243  -44.6289 H         1 UNK         0.3000 
    155 H155       -0.1685  -18.7659  -44.9278 H         1 UNK         0.0600 
    156 H156       -2.6362  -18.3806  -45.3524 H         1 UNK         0.0600 
    157 H157       -3.0231  -19.2466  -43.8703 H         1 UNK         0.0600 
    158 H158       -2.2742  -20.0918  -45.2182 H         1 UNK         0.0600 
    159 H159       -1.0766  -17.5879  -42.4279 H         1 UNK         0.3000 
    160 H160       -1.7083  -14.5598  -43.4011 H         1 UNK         0.0600 
    161 H161       -0.1639  -16.0013  -41.1788 H         1 UNK         0.0600 
    162 H162       -1.9120  -15.9361  -41.3847 H         1 UNK         0.0600 
    163 H163       -1.0244  -14.4778  -40.9919 H         1 UNK         0.0600 
    164 H164        0.0612  -13.3333  -43.8168 H         1 UNK         0.3000 
    165 H165        3.3072  -13.1694  -42.6895 H         1 UNK         0.0600 
    166 H166        2.7576  -13.9348  -45.6040 H         1 UNK         0.0600 
    167 H167        4.1655  -13.0519  -45.0201 H         1 UNK         0.0600 
    168 H168        3.9182  -14.7256  -44.5445 H         1 UNK         0.0600 
    169 H169        1.9589  -11.7770  -44.8134 H         1 UNK         0.3000 
    170 H170        0.3735   -9.3675  -42.6825 H         1 UNK         0.0600 
    171 H171        2.7457   -8.6613  -42.9483 H         1 UNK         0.0600 
    172 H172        2.7539   -9.2403  -44.6110 H         1 UNK         0.0600 
    173 H173        1.7232   -7.8873  -44.1496 H         1 UNK         0.0600 
    174 H174        0.6648  -10.3897  -45.4872 H         1 UNK         0.3000 
    175 H175       -2.8233  -10.6470  -45.8791 H         1 UNK         0.0600 
    176 H176       -1.0690   -8.4975  -47.1876 H         1 UNK         0.0600 
    177 H177       -2.5711   -9.1502  -47.8443 H         1 UNK         0.0600 
    178 H178       -2.5964   -8.2049  -46.3647 H         1 UNK         0.0600 
    179 H179       -0.6602  -10.8656  -47.7410 H         1 UNK         0.3000 
    180 H180        0.6118  -13.9760  -46.7730 H         1 UNK         0.0600 
    181 H181       -1.3690  -13.6172  -49.0826 H         1 UNK         0.0600 
    182 H182       -1.4285  -14.8714  -47.8468 H         1 UNK         0.0600 
    183 H183       -0.1060  -14.8446  -48.9988 H         1 UNK         0.0600 
    184 H184        1.0754  -12.7574  -49.2034 H         1 UNK         0.3000 
    185 H185        2.4542  -11.0149  -49.6928 H         1 UNK         0.0600 
    186 H186        2.4145   -8.9850  -48.2324 H         1 UNK         0.0600 
    187 H187        3.7981   -9.5897  -47.3299 H         1 UNK         0.0600 
    188 H188        3.9664   -9.1738  -49.0339 H         1 UNK         0.0600 
    189 H189        4.8543  -11.6136  -48.1025 H         1 UNK         0.3000 
    190 H190       -0.3170  -23.6354  -46.5294 H         1 UNK         0.3000 
    191 H191       -1.2414  -22.9703  -49.1680 H         1 UNK         0.0600 
    192 H192       -2.9834  -21.7361  -47.9936 H         1 UNK         0.0600 
    193 H193       -1.5083  -21.5291  -47.0589 H         1 UNK         0.0600 
    194 H194       -2.7398  -22.6521  -46.5125 H         1 UNK         0.0600 
    195 H195       -2.1064  -25.4400  -46.7720 H         1 UNK         0.3000 
    196 H196       -4.4992  -26.3490  -48.1678 H         1 UNK         0.0600 
    197 H197       -4.4357  -28.1882  -46.5054 H         1 UNK         0.0600 
    198 H198       -4.2646  -26.6319  -45.7085 H         1 UNK         0.0600 
    199 H199       -2.8559  -27.6661  -45.9386 H         1 UNK         0.0600 
    200 H200       -1.0756  -27.3627  -47.8963 H         1 UNK         0.3000 
    201 H201       -1.2305  -29.6826  -49.5078 H         1 UNK         0.0600 
    202 H202        0.6390  -29.1777  -47.9342 H         1 UNK         0.0600 
    203 H203        1.1708  -27.8567  -48.9731 H         1 UNK         0.0600 
    204 H204        1.2421  -29.5153  -49.5505 H         1 UNK         0.0600 
    205 H205       -0.3437  -26.3034  -50.3994 H         1 UNK         0.3000 
    206 H206       -0.0045  -26.9168  -53.2168 H         1 UNK         0.0600 
    207 H207        1.2725  -25.1191  -52.0349 H         1 UNK         0.0600 
    208 H208        0.3569  -24.4673  -53.3845 H         1 UNK         0.0600 
    209 H209       -0.2254  -24.2371  -51.7408 H         1 UNK         0.0600 
    210 H210       -2.7536  -26.3888  -51.2870 H         1 UNK         0.3000 
    211 H211       -4.8955  -26.0098  -51.5553 H         1 UNK         0.0600 
    212 H212       -4.5730  -26.3589  -54.5801 H         1 UNK         0.0600 
    213 H213       -6.0615  -26.4778  -53.6560 H         1 UNK         0.0600 
    214 H214       -4.7994  -27.6773  -53.4301 H         1 UNK         0.0600 
    215 H215       -2.8946  -23.8397  -51.7012 H         1 UNK         0.3000 
    216 H216       -4.0563  -21.6126  -53.1577 H         1 UNK         0.0600 
    217 H217       -2.3576  -20.2970  -51.9831 H         1 UNK         0.0600 
    218 H218       -1.6044  -21.7829  -52.5284 H         1 UNK         0.0600 
    219 H219       -2.0547  -21.5910  -50.8342 H         1 UNK         0.0600 
    220 H220       -4.5739  -23.1475  -50.0341 H         1 UNK         0.3000 
    221 H221       -5.9626  -21.0837  -48.6679 H         1 UNK         0.0600 
    222 H222       -6.2526  -24.1347  -48.5271 H         1 UNK         0.0600 
    223 H223       -5.1944  -23.1333  -47.5351 H         1 UNK         0.0600 
    224 H224       -6.9354  -23.0068  -47.3603 H         1 UNK         0.0600 
    225 H225       -7.0517  -23.3617  -51.1779 H         1 UNK         0.3000 
    226 H226       -9.8646  -22.6908  -51.0115 H         1 UNK         0.0600 
    227 H227       -9.0471  -24.8838  -51.8913 H         1 UNK         0.0600 
    228 H228      -10.0216  -24.0347  -53.0807 H         1 UNK         0.0600 
    229 H229       -8.2727  -24.0595  -53.2448 H         1 UNK         0.0600 
    230 H230       -7.0828  -21.2045  -52.4753 H         1 UNK         0.3000 
    231 H231       -8.6596  -19.4310  -54.2464 H         1 UNK         0.0600 
    232 H232       -6.4644  -18.6947  -55.0519 H         1 UNK         0.0600 
    233 H233       -6.5143  -20.4492  -55.0839 H         1 UNK         0.0600 
    234 H234       -5.6328  -19.6124  -53.8072 H         1 UNK         0.0600 
    235 H235       -8.2521  -19.5741  -51.0509 H         1 UNK         0.3000 
    236 H236       -8.5046  -18.2482  -49.3403 H         1 UNK         0.0600 
    237 H237      -10.2749  -17.1370  -50.7202 H         1 UNK         0.0600 
    238 H238       -9.5408  -16.0431  -49.5609 H         1 UNK         0.0600 
    239 H239       -9.0973  -15.9389  -51.2573 H         1 UNK         0.0600 
    240 H240       -5.8353  -18.6547  -50.3745 H         1 UNK         0.3000 
    241 H241       -4.2216  -16.3638  -49.7399 H         1 UNK         0.0600 
    242 H242       -3.8396  -15.4532  -47.6849 H         1 UNK         0.3800 
    243 H243       -4.1275  -16.2898  -46.1869 H         1 UNK         0.3800 
    244 H244       -3.4374  -19.3202  -49.5052 H         1 UNK         0.0800 
    245 H245       -3.5004  -18.4524  -51.0113 H         1 UNK         0.0800 
    246 H246       -1.7685  -19.2494  -47.8950 H         1 UNK         0.0800 
    247 H247       -1.4821  -17.6153  -47.3563 H         1 UNK         0.0800 
@<TRIPOS>BOND
     1    1    2 1    
     2    1  127 1    
     3    1  128 1    
     4    1  129 1    
     5    2    3 2    
     6    2    4 am   BACKBONE|DICT|INTERRES
     7    4    5 1    
     8    4  130 1    
     9    5    6 1    
    10    5   65 1    
    11    5  131 1    
    12    6    7 1    
    13    6  132 1    
    14    6  133 1    
    15    7    8 1    
    16    8    9 1    
    17    8  134 1    
    18    8  135 1    
    19    9   10 ar   
    20    9   14 ar   
    21   10   11 ar   
    22   10  136 1    
    23   11   12 ar   
    24   11  126 1    
    25   12   13 ar   
    26   12  137 1    
    27   13   14 ar   
    28   13   15 1    
    29   14  138 1    
    30   15   16 1    
    31   15  139 1    
    32   15  140 1    
    33   16   17 1    
    34   17   18 1    
    35   17  141 1    
    36   17  142 1    
    37   18   19 1    
    38   18   67 1    
    39   18  143 1    
    40   19   20 am   BACKBONE|DICT|INTERRES
    41   19  144 1    
    42   20   21 2    
    43   20   22 1    
    44   22   23 1    
    45   22   24 1    
    46   22  145 1    
    47   23  146 1    
    48   23  147 1    
    49   23  148 1    
    50   24   25 am   BACKBONE|DICT|INTERRES
    51   24  149 1    
    52   25   26 2    
    53   25   27 1    
    54   27   28 1    
    55   27   29 1    
    56   27  150 1    
    57   28  151 1    
    58   28  152 1    
    59   28  153 1    
    60   29   30 am   BACKBONE|DICT|INTERRES
    61   29  154 1    
    62   30   31 2    
    63   30   32 1    
    64   32   33 1    
    65   32   34 1    
    66   32  155 1    
    67   33  156 1    
    68   33  157 1    
    69   33  158 1    
    70   34   35 am   BACKBONE|DICT|INTERRES
    71   34  159 1    
    72   35   36 2    
    73   35   37 1    
    74   37   38 1    
    75   37   39 1    
    76   37  160 1    
    77   38  161 1    
    78   38  162 1    
    79   38  163 1    
    80   39   40 am   BACKBONE|DICT|INTERRES
    81   39  164 1    
    82   40   41 2    
    83   40   42 1    
    84   42   43 1    
    85   42   44 1    
    86   42  165 1    
    87   43  166 1    
    88   43  167 1    
    89   43  168 1    
    90   44   45 am   BACKBONE|DICT|INTERRES
    91   44  169 1    
    92   45   46 2    
    93   45   47 1    
    94   47   48 1    
    95   47   49 1    
    96   47  170 1    
    97   48  171 1    
    98   48  172 1    
    99   48  173 1    
   100   49   50 am   BACKBONE|DICT|INTERRES
   101   49  174 1    
   102   50   51 2    
   103   50   52 1    
   104   52   53 1    
   105   52   54 1    
   106   52  175 1    
   107   53  176 1    
   108   53  177 1    
   109   53  178 1    
   110   54   55 am   BACKBONE|DICT|INTERRES
   111   54  179 1    
   112   55   56 2    
   113   55   57 1    
   114   57   58 1    
   115   57   59 1    
   116   57  180 1    
   117   58  181 1    
   118   58  182 1    
   119   58  183 1    
   120   59   60 am   BACKBONE|DICT|INTERRES
   121   59  184 1    
   122   60   61 2    
   123   60   62 1    
   124   62   63 1    
   125   62   64 1    
   126   62  185 1    
   127   63  186 1    
   128   63  187 1    
   129   63  188 1    
   130   64   65 am   BACKBONE|DICT|INTERRES
   131   64  189 1    
   132   65   66 2    
   133   67   68 2    
   134   67   69 am   BACKBONE|DICT|INTERRES
   135   69   70 1    
   136   69  190 1    
   137   70   71 1    
   138   70   72 1    
   139   70  191 1    
   140   71  192 1    
   141   71  193 1    
   142   71  194 1    
   143   72   73 2    
   144   72   74 am   BACKBONE|DICT|INTERRES
   145   74   75 1    
   146   74  195 1    
   147   75   76 1    
   148   75   77 1    
   149   75  196 1    
   150   76  197 1    
   151   76  198 1    
   152   76  199 1    
   153   77   78 2    
   154   77   79 am   BACKBONE|DICT|INTERRES
   155   79   80 1    
   156   79  200 1    
   157   80   81 1    
   158   80   82 1    
   159   80  201 1    
   160   81  202 1    
   161   81  203 1    
   162   81  204 1    
   163   82   83 2    
   164   82   84 am   BACKBONE|DICT|INTERRES
   165   84   85 1    
   166   84  205 1    
   167   85   86 1    
   168   85   87 1    
   169   85  206 1    
   170   86  207 1    
   171   86  208 1    
   172   86  209 1    
   173   87   88 2    
   174   87   89 am   BACKBONE|DICT|INTERRES
   175   89   90 1    
   176   89  210 1    
   177   90   91 1    
   178   90   92 1    
   179   90  211 1    
   180   91  212 1    
   181   91  213 1    
   182   91  214 1    
   183   92   93 2    
   184   92   94 am   BACKBONE|DICT|INTERRES
   185   94   95 1    
   186   94  215 1    
   187   95   96 1    
   188   95   97 1    
   189   95  216 1    
   190   96  217 1    
   191   96  218 1    
   192   96  219 1    
   193   97   98 2    
   194   97   99 am   BACKBONE|DICT|INTERRES
   195   99  100 1    
   196   99  220 1    
   197  100  101 1    
   198  100  102 1    
   199  100  221 1    
   200  101  222 1    
   201  101  223 1    
   202  101  224 1    
   203  102  103 2    
   204  102  104 am   BACKBONE|DICT|INTERRES
   205  104  105 1    
   206  104  225 1    
   207  105  106 1    
   208  105  107 1    
   209  105  226 1    
   210  106  227 1    
   211  106  228 1    
   212  106  229 1    
   213  107  108 2    
   214  107  109 am   BACKBONE|DICT|INTERRES
   215  109  110 1    
   216  109  230 1    
   217  110  111 1    
   218  110  112 1    
   219  110  231 1    
   220  111  232 1    
   221  111  233 1    
   222  111  234 1    
   223  112  113 2    
   224  112  114 am   BACKBONE|DICT|INTERRES
   225  114  115 1    
   226  114  235 1    
   227  115  116 1    
   228  115  117 1    
   229  115  236 1    
   230  116  237 1    
   231  116  238 1    
   232  116  239 1    
   233  117  118 2    
   234  117  119 am   BACKBONE|DICT|INTERRES
   235  119  120 1    
   236  119  240 1    
   237  120  121 1    
   238  120  124 1    
   239  120  241 1    
   240  121  122 am   BACKBONE|DICT|INTERRES
   241  121  123 2    
   242  122  242 1    
   243  122  243 1    
   244  124  125 1    
   245  124  244 1    
   246  124  245 1    
   247  125  126 1    
   248  126  246 1    
   249  126  247 1    
@<TRIPOS>SUBSTRUCTURE
     1 UNK         1 GROUP             0       ****    0 ROOT    
