@<TRIPOS>MOLECULE
3R540
247   249    1
SMALL
USER_CHARGES


@<TRIPOS>ATOM
      1 CA         -1.4103  -12.2634  -43.0186 C.3       0 UNK        -0.1800 
      2 C          -1.3549  -11.5964  -44.3861 C.2       0 UNK         0.5000 
      3 O          -1.0278  -10.4127  -44.4791 O.2       0 UNK        -0.5000 
      4 N          -1.6967  -12.3404  -45.4457 N.am      1 UNK        -0.5000 
      5 CA         -1.6456  -11.8890  -46.8365 C.3       1 UNK         0.1400 
      6 C6         -2.6177  -12.6762  -47.7552 C.3       23 UNK        -0.0398 
      7 S7         -2.5071  -14.5031  -47.6785 S.3       23 UNK        -0.2404 
      8 C8         -2.2017  -14.8867  -49.4321 C.3       23 UNK        -0.0205 
      9 C9         -2.3258  -16.3756  -49.7167 C.ar      23 UNK        -0.0193 
     10 C10        -3.5898  -16.9539  -49.8763 C.ar      23 UNK        -0.1150 
     11 C11        -3.7162  -18.3168  -50.1588 C.ar      23 UNK        -0.0193 
     12 C12        -2.5678  -19.1019  -50.2671 C.ar      23 UNK        -0.1150 
     13 C13        -1.2976  -18.5371  -50.1272 C.ar      23 UNK        -0.0193 
     14 C14        -1.1826  -17.1693  -49.8546 C.ar      23 UNK        -0.1150 
     15 C15        -0.0715  -19.4211  -50.3261 C.3       23 UNK        -0.0205 
     16 S16         1.2488  -19.2019  -49.0898 S.3       23 UNK        -0.2404 
     17 C17         0.3583  -19.3272  -47.5059 C.3       23 UNK        -0.0398 
     18 CA         -0.0446  -20.7749  -47.1122 C.3       11 UNK         0.1400 
     19 N           0.2417  -21.0530  -45.7016 N.am      11 UNK        -0.5000 
     20 C           0.0799  -22.2313  -45.0847 C.2       10 UNK         0.5000 
     21 O          -0.2663  -23.2630  -45.6594 O.2       10 UNK        -0.5000 
     22 CA          0.2809  -22.2417  -43.5565 C.3       10 UNK         0.1400 
     23 CB          1.7655  -22.3863  -43.1906 C.3       10 UNK        -0.1800 
     24 N          -0.2756  -21.0478  -42.9143 N.am      10 UNK        -0.5000 
     25 C          -1.5846  -20.7569  -42.8824 C.2       9 UNK         0.5000 
     26 O          -2.4575  -21.4995  -43.3303 O.2       9 UNK        -0.5000 
     27 CA         -1.9862  -19.3881  -42.3040 C.3       9 UNK         0.1400 
     28 CB         -2.0282  -19.4341  -40.7696 C.3       9 UNK        -0.1800 
     29 N          -1.1059  -18.3065  -42.7497 N.am      9 UNK        -0.5000 
     30 C          -0.9729  -17.9182  -44.0269 C.2       8 UNK         0.5000 
     31 O          -1.6248  -18.3940  -44.9541 O.2       8 UNK        -0.5000 
     32 CA          0.1053  -16.8656  -44.3356 C.3       8 UNK         0.1400 
     33 CB         -0.4248  -15.4500  -44.0746 C.3       8 UNK        -0.1800 
     34 N           1.3327  -17.0780  -43.5718 N.am      8 UNK        -0.5000 
     35 C           2.1181  -18.1596  -43.6516 C.2       7 UNK         0.5000 
     36 O           1.9131  -19.0982  -44.4181 O.2       7 UNK        -0.5000 
     37 CA          3.2955  -18.2316  -42.6668 C.3       7 UNK         0.1400 
     38 CB          4.4783  -17.3757  -43.1437 C.3       7 UNK        -0.1800 
     39 N           2.8982  -17.8170  -41.3229 N.am      7 UNK        -0.5000 
     40 C           2.1073  -18.5340  -40.5139 C.2       6 UNK         0.5000 
     41 O           1.6565  -19.6427  -40.8052 O.2       6 UNK        -0.5000 
     42 CA          1.7390  -17.8876  -39.1649 C.3       6 UNK         0.1400 
     43 CB          2.8408  -18.1412  -38.1252 C.3       6 UNK        -0.1800 
     44 N           1.4953  -16.4465  -39.2713 N.am      6 UNK        -0.5000 
     45 C           0.4404  -15.9108  -39.9003 C.2       5 UNK         0.5000 
     46 O          -0.4340  -16.5770  -40.4531 O.2       5 UNK        -0.5000 
     47 CA          0.3704  -14.3722  -39.9636 C.3       5 UNK         0.1400 
     48 CB         -0.1943  -13.8021  -38.6540 C.3       5 UNK        -0.1800 
     49 N           1.6379  -13.7011  -40.2812 N.am      5 UNK        -0.5000 
     50 C           2.4090  -13.9748  -41.3416 C.2       4 UNK         0.5000 
     51 O           2.2214  -14.9346  -42.0888 O.2       4 UNK        -0.5000 
     52 CA          3.6035  -13.0393  -41.6103 C.3       4 UNK         0.1400 
     53 CB          4.8255  -13.4936  -40.7977 C.3       4 UNK        -0.1800 
     54 N           3.9598  -13.0283  -43.0330 N.am      4 UNK        -0.5000 
     55 C           3.1548  -12.5934  -44.0123 C.2       3 UNK         0.5000 
     56 O           2.0908  -12.0044  -43.8055 O.2       3 UNK        -0.5000 
     57 CA          3.6032  -12.9135  -45.4526 C.3       3 UNK         0.1400 
     58 CB          3.4907  -14.4219  -45.7346 C.3       3 UNK        -0.1800 
     59 N           2.7893  -12.2077  -46.4383 N.am      3 UNK        -0.5000 
     60 C           2.8879  -10.9127  -46.7506 C.2       2 UNK         0.5000 
     61 O           3.7752  -10.1737  -46.3208 O.2       2 UNK        -0.5000 
     62 CA          1.8102  -10.3365  -47.6922 C.3       2 UNK         0.1400 
     63 CB          2.1062  -10.6840  -49.1641 C.3       2 UNK        -0.1800 
     64 N           0.4285  -10.6800  -47.3207 N.am      2 UNK        -0.5000 
     65 C          -0.1855  -11.8726  -47.3382 C.2       1 UNK         0.5000 
     66 O           0.3616  -12.9209  -47.6847 O.2       1 UNK        -0.5000 
     67 C          -1.5250  -21.0540  -47.4497 C.2       11 UNK         0.5000 
     68 O          -1.8129  -21.7791  -48.4015 O.2       11 UNK        -0.5000 
     69 N          -2.4354  -20.5072  -46.6328 N.am      12 UNK        -0.5000 
     70 CA         -3.8813  -20.6788  -46.7557 C.3       12 UNK         0.1400 
     71 CB         -4.5943  -19.7203  -45.7914 C.3       12 UNK        -0.1800 
     72 C          -4.3456  -22.1293  -46.5349 C.2       12 UNK         0.5000 
     73 O          -5.2850  -22.5645  -47.1998 O.2       12 UNK        -0.5000 
     74 N          -3.6737  -22.8563  -45.6309 N.am      13 UNK        -0.5000 
     75 CA         -3.8913  -24.2832  -45.3913 C.3       13 UNK         0.1400 
     76 CB         -3.1849  -24.7050  -44.0940 C.3       13 UNK        -0.1800 
     77 C          -3.4344  -25.1565  -46.5753 C.2       13 UNK         0.5000 
     78 O          -4.1129  -26.1312  -46.9017 O.2       13 UNK        -0.5000 
     79 N          -2.3096  -24.7869  -47.2055 N.am      14 UNK        -0.5000 
     80 CA         -1.7985  -25.4149  -48.4251 C.3       14 UNK         0.1400 
     81 CB         -0.3511  -24.9615  -48.6713 C.3       14 UNK        -0.1800 
     82 C          -2.6873  -25.1262  -49.6496 C.2       14 UNK         0.5000 
     83 O          -2.9132  -26.0289  -50.4573 O.2       14 UNK        -0.5000 
     84 N          -3.1901  -23.8856  -49.7489 N.am      15 UNK        -0.5000 
     85 CA         -4.1135  -23.3802  -50.7683 C.3       15 UNK         0.1400 
     86 CB         -5.5245  -23.9697  -50.5475 C.3       15 UNK        -0.1800 
     87 C          -3.5528  -23.6052  -52.1857 C.2       15 UNK         0.5000 
     88 O          -2.4930  -23.0641  -52.4975 O.2       15 UNK        -0.5000 
     89 N          -4.2227  -24.4398  -52.9907 N.am      16 UNK        -0.5000 
     90 CA         -3.8497  -24.8263  -54.3542 C.3       16 UNK         0.1400 
     91 CB         -4.9524  -25.7388  -54.9152 C.3       16 UNK        -0.1800 
     92 C          -2.4752  -25.5180  -54.4908 C.2       16 UNK         0.5000 
     93 O          -1.9560  -25.6005  -55.6041 O.2       16 UNK        -0.5000 
     94 N          -1.9079  -26.0139  -53.3815 N.am      17 UNK        -0.5000 
     95 CA         -0.5613  -26.5861  -53.3409 C.3       17 UNK         0.1400 
     96 CB         -0.4631  -27.5604  -52.1565 C.3       17 UNK        -0.1800 
     97 C           0.5502  -25.5180  -53.2608 C.2       17 UNK         0.5000 
     98 O           1.7131  -25.8619  -53.4779 O.2       17 UNK        -0.5000 
     99 N           0.1966  -24.2649  -52.9399 N.am      18 UNK        -0.5000 
    100 CA         1.1328  -23.1528  -52.7608 C.3       18 UNK         0.1400 
    101 CB         1.1658  -22.7677  -51.2736 C.3       18 UNK        -0.1800 
    102 C          0.7740  -21.9435  -53.6421 C.2       18 UNK         0.5000 
    103 O          1.6691  -21.3496  -54.2449 O.2       18 UNK        -0.5000 
    104 N         -0.5173  -21.6065  -53.7123 N.am      19 UNK        -0.5000 
    105 CA        -1.0909  -20.5628  -54.5584 C.3       19 UNK         0.1400 
    106 CB        -2.0568  -19.7290  -53.7020 C.3       19 UNK        -0.1800 
    107 C         -1.8100  -21.1878  -55.7684 C.2       19 UNK         0.5000 
    108 O         -1.7356  -22.3996  -55.9787 O.2       19 UNK        -0.5000 
    109 N         -2.4825  -20.3427  -56.5616 N.am      20 UNK        -0.5000 
    110 CA        -3.1830  -20.7279  -57.7883 C.3       20 UNK         0.1400 
    111 CB        -3.6367  -19.4617  -58.5315 C.3       20 UNK        -0.1800 
    112 C         -4.3756  -21.6762  -57.5594 C.2       20 UNK         0.5000 
    113 O         -4.5538  -22.6095  -58.3432 O.2       20 UNK        -0.5000 
    114 N         -5.1608  -21.4298  -56.5008 N.am      21 UNK        -0.5000 
    115 CA        -6.3265  -22.2352  -56.1341 C.3       21 UNK         0.1400 
    116 CB        -7.4658  -22.0876  -57.1655 C.3       21 UNK        -0.1800 
    117 C         -6.8290  -21.8786  -54.7298 C.2       21 UNK         0.5000 
    118 O         -6.9518  -22.7672  -53.8879 O.2       21 UNK        -0.5000 
    119 N         -7.1349  -20.5896  -54.5198 N.am      22 UNK        -0.5000 
    120 CA        -7.7969  -20.0402  -53.3164 C.3       22 UNK         0.1400 
    121 C         -9.2839  -20.4849  -53.1365 C.2       22 UNK         0.5000 
    122 N         -9.9511  -21.0007  -54.1620 N.am      22 UNK        -0.7600 
    123 O         -9.8602  -20.3310  -52.0629 O.2       22 UNK        -0.5000 
    124 C124       -6.9682  -20.2103  -52.0110 C.3       23 UNK        -0.0398 
    125 S125       -5.3433  -19.3948  -52.1100 S.3       23 UNK        -0.2404 
    126 C126       -5.0840  -18.9478  -50.3658 C.3       23 UNK        -0.0205 
    127 H127       -2.0216  -13.1656  -43.0354 H         1 UNK         0.0600 
    128 H128       -1.8369  -11.5829  -42.2818 H         1 UNK         0.0600 
    129 H129       -0.4051  -12.5318  -42.6940 H         1 UNK         0.0600 
    130 H130       -1.9422  -13.3119  -45.3228 H         1 UNK         0.3000 
    131 H131       -2.0015  -10.8562  -46.8580 H         1 UNK         0.0600 
    132 H132       -2.5043  -12.3382  -48.7865 H         1 UNK         0.0800 
    133 H133       -3.6413  -12.4147  -47.4839 H         1 UNK         0.0800 
    134 H134       -1.2108  -14.5231  -49.7096 H         1 UNK         0.0800 
    135 H135       -2.9161  -14.3462  -50.0550 H         1 UNK         0.0800 
    136 H136       -4.4736  -16.3379  -49.7872 H         1 UNK         0.1150 
    137 H137       -2.6665  -20.1549  -50.4926 H         1 UNK         0.1150 
    138 H138       -0.2037  -16.7227  -49.7526 H         1 UNK         0.1150 
    139 H139       -0.3672  -20.4690  -50.3221 H         1 UNK         0.0800 
    140 H140        0.3447  -19.2264  -51.3150 H         1 UNK         0.0800 
    141 H141        1.0528  -18.9194  -46.7742 H         1 UNK         0.0800 
    142 H142       -0.4853  -18.6349  -47.4911 H         1 UNK         0.0800 
    143 H143        0.5583  -21.4808  -47.6874 H         1 UNK         0.0600 
    144 H144        0.5984  -20.2756  -45.1529 H         1 UNK         0.3000 
    145 H145       -0.2479  -23.1107  -43.1596 H         1 UNK         0.0600 
    146 H146        1.9008  -22.4424  -42.1103 H         1 UNK         0.0600 
    147 H147        2.1841  -23.2975  -43.6197 H         1 UNK         0.0600 
    148 H148        2.3592  -21.5495  -43.5573 H         1 UNK         0.0600 
    149 H149        0.3829  -20.3967  -42.5040 H         1 UNK         0.3000 
    150 H150       -2.9932  -19.1630  -42.6609 H         1 UNK         0.0600 
    151 H151       -2.6780  -20.2375  -40.4203 H         1 UNK         0.0600 
    152 H152       -2.4165  -18.5020  -40.3590 H         1 UNK         0.0600 
    153 H153       -1.0394  -19.6016  -40.3427 H         1 UNK         0.0600 
    154 H154       -0.5817  -17.8200  -42.0295 H         1 UNK         0.3000 
    155 H155        0.3548  -16.9427  -45.3955 H         1 UNK         0.0600 
    156 H156        0.3034  -14.6928  -44.3663 H         1 UNK         0.0600 
    157 H157       -0.6584  -15.3001  -43.0204 H         1 UNK         0.0600 
    158 H158       -1.3352  -15.2666  -44.6459 H         1 UNK         0.0600 
    159 H159        1.6033  -16.3314  -42.9318 H         1 UNK         0.3000 
    160 H160        3.6278  -19.2712  -42.6233 H         1 UNK         0.0600 
    161 H161        4.2378  -16.3133  -43.1367 H         1 UNK         0.0600 
    162 H162        4.7695  -17.6418  -44.1606 H         1 UNK         0.0600 
    163 H163        5.3502  -17.5229  -42.5064 H         1 UNK         0.0600 
    164 H164        3.1551  -16.8816  -41.0433 H         1 UNK         0.3000 
    165 H165        0.8220  -18.3632  -38.8102 H         1 UNK         0.0600 
    166 H166        3.7814  -17.6676  -38.4094 H         1 UNK         0.0600 
    167 H167        2.5541  -17.7581  -37.1457 H         1 UNK         0.0600 
    168 H168        3.0318  -19.2092  -38.0121 H         1 UNK         0.0600 
    169 H169        2.1766  -15.8296  -38.8541 H         1 UNK         0.3000 
    170 H170       -0.3290  -14.1218  -40.7632 H         1 UNK         0.0600 
    171 H171       -1.1452  -14.2726  -38.4001 H         1 UNK         0.0600 
    172 H172        0.4863  -13.9643  -37.8173 H         1 UNK         0.0600 
    173 H173       -0.3767  -12.7305  -38.7363 H         1 UNK         0.0600 
    174 H174        1.8777  -12.9106  -39.7005 H         1 UNK         0.3000 
    175 H175        3.3310  -12.0244  -41.3139 H         1 UNK         0.0600 
    176 H176        5.6753  -12.8300  -40.9589 H         1 UNK         0.0600 
    177 H177        4.6103  -13.4886  -39.7284 H         1 UNK         0.0600 
    178 H178        5.1338  -14.5053  -41.0656 H         1 UNK         0.0600 
    179 H179        4.8037  -13.5219  -43.2824 H         1 UNK         0.3000 
    180 H180        4.6447  -12.6070  -45.5692 H         1 UNK         0.0600 
    181 H181        3.7590  -14.6525  -46.7658 H         1 UNK         0.0600 
    182 H182        4.1615  -14.9939  -45.0946 H         1 UNK         0.0600 
    183 H183        2.4784  -14.7901  -45.5628 H         1 UNK         0.0600 
    184 H184        1.9935  -12.7119  -46.8208 H         1 UNK         0.3000 
    185 H185        1.8711   -9.2508  -47.6010 H         1 UNK         0.0600 
    186 H186        1.3816  -10.2189  -49.8324 H         1 UNK         0.0600 
    187 H187        3.0941  -10.3251  -49.4552 H         1 UNK         0.0600 
    188 H188        2.0871  -11.7591  -49.3442 H         1 UNK         0.0600 
    189 H189       -0.0948   -9.9084  -46.9287 H         1 UNK         0.3000 
    190 H190       -2.1174  -19.8788  -45.8973 H         1 UNK         0.3000 
    191 H191       -4.1549  -20.4000  -47.7732 H         1 UNK         0.0600 
    192 H192       -5.6776  -19.8072  -45.8829 H         1 UNK         0.0600 
    193 H193       -4.3313  -18.6834  -46.0024 H         1 UNK         0.0600 
    194 H194       -4.3327  -19.9276  -44.7534 H         1 UNK         0.0600 
    195 H195       -2.9691  -22.3982  -45.0622 H         1 UNK         0.3000 
    196 H196       -4.9633  -24.4416  -45.2565 H         1 UNK         0.0600 
    197 H197       -3.3630  -25.7591  -43.8782 H         1 UNK         0.0600 
    198 H198       -3.5508  -24.1321  -43.2418 H         1 UNK         0.0600 
    199 H199       -2.1064  -24.5609  -44.1556 H         1 UNK         0.0600 
    200 H200       -1.7765  -24.0063  -46.8367 H         1 UNK         0.3000 
    201 H201       -1.7898  -26.4960  -48.2721 H         1 UNK         0.0600 
    202 H202        0.2981  -25.2585  -47.8475 H         1 UNK         0.0600 
    203 H203       -0.2778  -23.8796  -48.7753 H         1 UNK         0.0600 
    204 H204        0.0531  -25.4052  -49.5812 H         1 UNK         0.0600 
    205 H205       -2.8458  -23.1891  -49.0922 H         1 UNK         0.3000 
    206 H206       -4.1753  -22.2999  -50.6286 H         1 UNK         0.0600 
    207 H207       -5.9050  -23.7040  -49.5618 H         1 UNK         0.0600 
    208 H208       -6.2359  -23.5819  -51.2772 H         1 UNK         0.0600 
    209 H209       -5.5337  -25.0580  -50.6165 H         1 UNK         0.0600 
    210 H210       -5.0738  -24.8498  -52.6349 H         1 UNK         0.3000 
    211 H211       -3.8154  -23.9139  -54.9523 H         1 UNK         0.0600 
    212 H212       -4.9936  -26.6894  -54.3817 H         1 UNK         0.0600 
    213 H213       -4.7772  -25.9603  -55.9688 H         1 UNK         0.0600 
    214 H214       -5.9354  -25.2745  -54.8401 H         1 UNK         0.0600 
    215 H215       -2.3980  -25.9373  -52.4962 H         1 UNK         0.3000 
    216 H216       -0.3943  -27.1608  -54.2543 H         1 UNK         0.0600 
    217 H217        0.4993  -28.0735  -52.1525 H         1 UNK         0.0600 
    218 H218       -1.2383  -28.3252  -52.2078 H         1 UNK         0.0600 
    219 H219       -0.5613  -27.0470  -51.2011 H         1 UNK         0.0600 
    220 H220       -0.7873  -24.0512  -52.8161 H         1 UNK         0.3000 
    221 H221        2.1430  -23.4520  -53.0474 H         1 UNK         0.0600 
    222 H222        0.1616  -22.5989  -50.8847 H         1 UNK         0.0600 
    223 H223        1.6214  -23.5582  -50.6775 H         1 UNK         0.0600 
    224 H224        1.7488  -21.8605  -51.1091 H         1 UNK         0.0600 
    225 H225       -1.2057  -22.1760  -53.2221 H         1 UNK         0.3000 
    226 H226       -0.3086  -19.9052  -54.9421 H         1 UNK         0.0600 
    227 H227       -1.5234  -19.2376  -52.8915 H         1 UNK         0.0600 
    228 H228       -2.5455  -18.9407  -54.2746 H         1 UNK         0.0600 
    229 H229       -2.8351  -20.3531  -53.2630 H         1 UNK         0.0600 
    230 H230       -2.4913  -19.3599  -56.3309 H         1 UNK         0.3000 
    231 H231       -2.4671  -21.2523  -58.4250 H         1 UNK         0.0600 
    232 H232       -4.1462  -19.7166  -59.4618 H         1 UNK         0.0600 
    233 H233       -2.7868  -18.8304  -58.7914 H         1 UNK         0.0600 
    234 H234       -4.3269  -18.8669  -57.9320 H         1 UNK         0.0600 
    235 H235       -4.9168  -20.6763  -55.8732 H         1 UNK         0.3000 
    236 H236       -6.0205  -23.2819  -56.1143 H         1 UNK         0.0600 
    237 H237       -7.7350  -21.0431  -57.3256 H         1 UNK         0.0600 
    238 H238       -7.1917  -22.5102  -58.1317 H         1 UNK         0.0600 
    239 H239       -8.3628  -22.6137  -56.8360 H         1 UNK         0.0600 
    240 H240       -7.0180  -19.9358  -55.2801 H         1 UNK         0.3000 
    241 H241       -7.8703  -18.9679  -53.5006 H         1 UNK         0.0600 
    242 H242      -10.9138  -21.2731  -54.0376 H         1 UNK         0.3800 
    243 H243       -9.5106  -21.1162  -55.0595 H         1 UNK         0.3800 
    244 H244       -6.8238  -21.2626  -51.7681 H         1 UNK         0.0800 
    245 H245       -7.5056  -19.7784  -51.1654 H         1 UNK         0.0800 
    246 H246       -5.1720  -19.8445  -49.7523 H         1 UNK         0.0800 
    247 H247       -5.8737  -18.2676  -50.0430 H         1 UNK         0.0800 
@<TRIPOS>BOND
     1    1    2 1    
     2    1  127 1    
     3    1  128 1    
     4    1  129 1    
     5    2    3 2    
     6    2    4 am   BACKBONE|DICT|INTERRES
     7    4    5 1    
     8    4  130 1    
     9    5    6 1    
    10    5   65 1    
    11    5  131 1    
    12    6    7 1    
    13    6  132 1    
    14    6  133 1    
    15    7    8 1    
    16    8    9 1    
    17    8  134 1    
    18    8  135 1    
    19    9   10 ar   
    20    9   14 ar   
    21   10   11 ar   
    22   10  136 1    
    23   11   12 ar   
    24   11  126 1    
    25   12   13 ar   
    26   12  137 1    
    27   13   14 ar   
    28   13   15 1    
    29   14  138 1    
    30   15   16 1    
    31   15  139 1    
    32   15  140 1    
    33   16   17 1    
    34   17   18 1    
    35   17  141 1    
    36   17  142 1    
    37   18   19 1    
    38   18   67 1    
    39   18  143 1    
    40   19   20 am   BACKBONE|DICT|INTERRES
    41   19  144 1    
    42   20   21 2    
    43   20   22 1    
    44   22   23 1    
    45   22   24 1    
    46   22  145 1    
    47   23  146 1    
    48   23  147 1    
    49   23  148 1    
    50   24   25 am   BACKBONE|DICT|INTERRES
    51   24  149 1    
    52   25   26 2    
    53   25   27 1    
    54   27   28 1    
    55   27   29 1    
    56   27  150 1    
    57   28  151 1    
    58   28  152 1    
    59   28  153 1    
    60   29   30 am   BACKBONE|DICT|INTERRES
    61   29  154 1    
    62   30   31 2    
    63   30   32 1    
    64   32   33 1    
    65   32   34 1    
    66   32  155 1    
    67   33  156 1    
    68   33  157 1    
    69   33  158 1    
    70   34   35 am   BACKBONE|DICT|INTERRES
    71   34  159 1    
    72   35   36 2    
    73   35   37 1    
    74   37   38 1    
    75   37   39 1    
    76   37  160 1    
    77   38  161 1    
    78   38  162 1    
    79   38  163 1    
    80   39   40 am   BACKBONE|DICT|INTERRES
    81   39  164 1    
    82   40   41 2    
    83   40   42 1    
    84   42   43 1    
    85   42   44 1    
    86   42  165 1    
    87   43  166 1    
    88   43  167 1    
    89   43  168 1    
    90   44   45 am   BACKBONE|DICT|INTERRES
    91   44  169 1    
    92   45   46 2    
    93   45   47 1    
    94   47   48 1    
    95   47   49 1    
    96   47  170 1    
    97   48  171 1    
    98   48  172 1    
    99   48  173 1    
   100   49   50 am   BACKBONE|DICT|INTERRES
   101   49  174 1    
   102   50   51 2    
   103   50   52 1    
   104   52   53 1    
   105   52   54 1    
   106   52  175 1    
   107   53  176 1    
   108   53  177 1    
   109   53  178 1    
   110   54   55 am   BACKBONE|DICT|INTERRES
   111   54  179 1    
   112   55   56 2    
   113   55   57 1    
   114   57   58 1    
   115   57   59 1    
   116   57  180 1    
   117   58  181 1    
   118   58  182 1    
   119   58  183 1    
   120   59   60 am   BACKBONE|DICT|INTERRES
   121   59  184 1    
   122   60   61 2    
   123   60   62 1    
   124   62   63 1    
   125   62   64 1    
   126   62  185 1    
   127   63  186 1    
   128   63  187 1    
   129   63  188 1    
   130   64   65 am   BACKBONE|DICT|INTERRES
   131   64  189 1    
   132   65   66 2    
   133   67   68 2    
   134   67   69 am   BACKBONE|DICT|INTERRES
   135   69   70 1    
   136   69  190 1    
   137   70   71 1    
   138   70   72 1    
   139   70  191 1    
   140   71  192 1    
   141   71  193 1    
   142   71  194 1    
   143   72   73 2    
   144   72   74 am   BACKBONE|DICT|INTERRES
   145   74   75 1    
   146   74  195 1    
   147   75   76 1    
   148   75   77 1    
   149   75  196 1    
   150   76  197 1    
   151   76  198 1    
   152   76  199 1    
   153   77   78 2    
   154   77   79 am   BACKBONE|DICT|INTERRES
   155   79   80 1    
   156   79  200 1    
   157   80   81 1    
   158   80   82 1    
   159   80  201 1    
   160   81  202 1    
   161   81  203 1    
   162   81  204 1    
   163   82   83 2    
   164   82   84 am   BACKBONE|DICT|INTERRES
   165   84   85 1    
   166   84  205 1    
   167   85   86 1    
   168   85   87 1    
   169   85  206 1    
   170   86  207 1    
   171   86  208 1    
   172   86  209 1    
   173   87   88 2    
   174   87   89 am   BACKBONE|DICT|INTERRES
   175   89   90 1    
   176   89  210 1    
   177   90   91 1    
   178   90   92 1    
   179   90  211 1    
   180   91  212 1    
   181   91  213 1    
   182   91  214 1    
   183   92   93 2    
   184   92   94 am   BACKBONE|DICT|INTERRES
   185   94   95 1    
   186   94  215 1    
   187   95   96 1    
   188   95   97 1    
   189   95  216 1    
   190   96  217 1    
   191   96  218 1    
   192   96  219 1    
   193   97   98 2    
   194   97   99 am   BACKBONE|DICT|INTERRES
   195   99  100 1    
   196   99  220 1    
   197  100  101 1    
   198  100  102 1    
   199  100  221 1    
   200  101  222 1    
   201  101  223 1    
   202  101  224 1    
   203  102  103 2    
   204  102  104 am   BACKBONE|DICT|INTERRES
   205  104  105 1    
   206  104  225 1    
   207  105  106 1    
   208  105  107 1    
   209  105  226 1    
   210  106  227 1    
   211  106  228 1    
   212  106  229 1    
   213  107  108 2    
   214  107  109 am   BACKBONE|DICT|INTERRES
   215  109  110 1    
   216  109  230 1    
   217  110  111 1    
   218  110  112 1    
   219  110  231 1    
   220  111  232 1    
   221  111  233 1    
   222  111  234 1    
   223  112  113 2    
   224  112  114 am   BACKBONE|DICT|INTERRES
   225  114  115 1    
   226  114  235 1    
   227  115  116 1    
   228  115  117 1    
   229  115  236 1    
   230  116  237 1    
   231  116  238 1    
   232  116  239 1    
   233  117  118 2    
   234  117  119 am   BACKBONE|DICT|INTERRES
   235  119  120 1    
   236  119  240 1    
   237  120  121 1    
   238  120  124 1    
   239  120  241 1    
   240  121  122 am   BACKBONE|DICT|INTERRES
   241  121  123 2    
   242  122  242 1    
   243  122  243 1    
   244  124  125 1    
   245  124  244 1    
   246  124  245 1    
   247  125  126 1    
   248  126  246 1    
   249  126  247 1    
@<TRIPOS>SUBSTRUCTURE
     1 UNK         1 GROUP             0       ****    0 ROOT    
