@<TRIPOS>MOLECULE
3R540
247   249    1
SMALL
USER_CHARGES


@<TRIPOS>ATOM
      1 CA          4.5620   -7.8560  -50.1181 C.3       0 UNK        -0.1800 
      2 C           4.1323   -9.1518  -49.4444 C.2       0 UNK         0.5000 
      3 O           4.9830   -9.9645  -49.0814 O.2       0 UNK        -0.5000 
      4 N           2.8180   -9.3500  -49.2836 N.am      1 UNK        -0.5000 
      5 CA          2.2198  -10.4972  -48.5949 C.3       1 UNK         0.1400 
      6 C6          0.7090  -10.6224  -48.9186 C.3       23 UNK        -0.0398 
      7 S7          0.1403  -12.3549  -48.9625 S.3       23 UNK        -0.2404 
      8 C8          0.0511  -12.6231  -50.7617 C.3       23 UNK        -0.0205 
      9 C9         -0.7069  -13.8946  -51.1036 C.ar      23 UNK        -0.0193 
     10 C10        -2.1048  -13.8879  -51.1124 C.ar      23 UNK        -0.1150 
     11 C11        -2.8199  -15.0430  -51.4402 C.ar      23 UNK        -0.0193 
     12 C12        -2.1230  -16.2123  -51.7509 C.ar      23 UNK        -0.1150 
     13 C13        -0.7264  -16.2283  -51.7645 C.ar      23 UNK        -0.0193 
     14 C14        -0.0215  -15.0656  -51.4399 C.ar      23 UNK        -0.1150 
     15 C15         0.0142  -17.4938  -52.1648 C.3       23 UNK        -0.0205 
     16 S16         0.8518  -18.2876  -50.7608 S.3       23 UNK        -0.2404 
     17 C17        -0.5556  -18.7340  -49.6901 C.3       23 UNK        -0.0398 
     18 CA         -0.1214  -19.7364  -48.5844 C.3       11 UNK         0.1400 
     19 N          -0.6959  -19.4375  -47.2730 N.am      11 UNK        -0.5000 
     20 C          -1.9848  -19.5100  -46.9237 C.2       10 UNK         0.5000 
     21 O          -2.8861  -19.8486  -47.6903 O.2       10 UNK        -0.5000 
     22 CA         -2.2801  -19.1849  -45.4468 C.3       10 UNK         0.1400 
     23 CB         -3.7611  -19.3547  -45.0567 C.3       10 UNK        -0.1800 
     24 N          -1.4171  -19.9324  -44.5272 N.am      10 UNK        -0.5000 
     25 C          -1.2812  -21.2643  -44.4170 C.2       9 UNK         0.5000 
     26 O          -1.8777  -22.0857  -45.1144 O.2       9 UNK        -0.5000 
     27 CA         -0.2928  -21.7785  -43.3513 C.3       9 UNK         0.1400 
     28 CB          1.0488  -22.1424  -44.0046 C.3       9 UNK        -0.1800 
     29 N          -0.0537  -20.8199  -42.2723 N.am      9 UNK        -0.5000 
     30 C          -0.9516  -20.4774  -41.3385 C.2       8 UNK         0.5000 
     31 O          -2.0589  -21.0049  -41.2263 O.2       8 UNK        -0.5000 
     32 CA         -0.5658  -19.3275  -40.3862 C.3       8 UNK         0.1400 
     33 CB          0.9555  -19.2084  -40.1407 C.3       8 UNK        -0.1800 
     34 N          -1.1222  -18.0433  -40.8286 N.am      8 UNK        -0.5000 
     35 C          -0.9030  -17.4253  -41.9987 C.2       7 UNK         0.5000 
     36 O          -0.1941  -17.8915  -42.8921 O.2       7 UNK        -0.5000 
     37 CA         -1.6042  -16.0738  -42.2141 C.3       7 UNK         0.1400 
     38 CB         -1.5160  -15.1529  -40.9805 C.3       7 UNK        -0.1800 
     39 N          -1.0078  -15.3942  -43.3601 N.am      7 UNK        -0.5000 
     40 C          -1.6466  -14.5688  -44.1943 C.2       6 UNK         0.5000 
     41 O          -2.8506  -14.3197  -44.1194 O.2       6 UNK        -0.5000 
     42 CA         -0.8027  -13.8834  -45.2829 C.3       6 UNK         0.1400 
     43 CB         -0.2242  -12.5617  -44.7563 C.3       6 UNK        -0.1800 
     44 N           0.2925  -14.7172  -45.7759 N.am      6 UNK        -0.5000 
     45 C           0.1513  -15.6666  -46.7096 C.2       5 UNK         0.5000 
     46 O          -0.9306  -15.9993  -47.1922 O.2       5 UNK        -0.5000 
     47 CA          1.4416  -16.3617  -47.1759 C.3       5 UNK         0.1400 
     48 CB          2.2039  -15.4870  -48.1822 C.3       5 UNK        -0.1800 
     49 N           2.3076  -16.6902  -46.0441 N.am      5 UNK        -0.5000 
     50 C           2.1380  -17.7786  -45.2798 C.2       4 UNK         0.5000 
     51 O           1.3221  -18.6636  -45.5381 O.2       4 UNK        -0.5000 
     52 CA          3.0224  -17.9362  -44.0273 C.3       4 UNK         0.1400 
     53 CB          4.0835  -19.0236  -44.2555 C.3       4 UNK        -0.1800 
     54 N           3.6919  -16.7139  -43.5816 N.am      4 UNK        -0.5000 
     55 C           3.0926  -15.6083  -43.1205 C.2       3 UNK         0.5000 
     56 O           1.8712  -15.4621  -43.0640 O.2       3 UNK        -0.5000 
     57 CA          4.0076  -14.4498  -42.6688 C.3       3 UNK         0.1400 
     58 CB          5.5183  -14.7377  -42.8274 C.3       3 UNK        -0.1800 
     59 N           3.6795  -13.1812  -43.3262 N.am      3 UNK        -0.5000 
     60 C           3.5731  -12.9578  -44.6430 C.2       2 UNK         0.5000 
     61 O           3.6390  -13.8375  -45.5076 O.2       2 UNK        -0.5000 
     62 CA          3.3797  -11.4927  -45.0554 C.3       2 UNK         0.1400 
     63 CB          4.6664  -10.6796  -44.8064 C.3       2 UNK        -0.1800 
     64 N           3.0209  -11.4338  -46.4682 N.am      2 UNK        -0.5000 
     65 C           2.4679  -10.3815  -47.0771 C.2       1 UNK         0.5000 
     66 O           2.1575   -9.3394  -46.4939 O.2       1 UNK        -0.5000 
     67 C          -0.3008  -21.2262  -48.9466 C.2       11 UNK         0.5000 
     68 O          -0.7323  -21.5660  -50.0470 O.2       11 UNK        -0.5000 
     69 N           0.0265  -22.0828  -47.9682 N.am      12 UNK        -0.5000 
     70 CA         -0.0134  -23.5474  -47.9965 C.3       12 UNK         0.1400 
     71 CB          0.8633  -24.1178  -49.1311 C.3       12 UNK        -0.1800 
     72 C          -1.4267  -24.1610  -47.9960 C.2       12 UNK         0.5000 
     73 O          -1.5330  -25.3823  -48.1102 O.2       12 UNK        -0.5000 
     74 N          -2.4810  -23.3553  -47.7941 N.am      13 UNK        -0.5000 
     75 CA         -3.8751  -23.8052  -47.6850 C.3       13 UNK         0.1400 
     76 CB         -4.7973  -22.5985  -47.4796 C.3       13 UNK        -0.1800 
     77 C          -4.1107  -24.8254  -46.5573 C.2       13 UNK         0.5000 
     78 O          -4.9706  -25.6935  -46.6947 O.2       13 UNK        -0.5000 
     79 N          -3.3074  -24.7399  -45.4889 N.am      14 UNK        -0.5000 
     80 CA         -3.2770  -25.6949  -44.3804 C.3       14 UNK         0.1400 
     81 CB         -2.3140  -25.1677  -43.3063 C.3       14 UNK        -0.1800 
     82 C          -2.8980  -27.1381  -44.7854 C.2       14 UNK         0.5000 
     83 O          -3.2275  -28.0654  -44.0443 O.2       14 UNK        -0.5000 
     84 N          -2.2227  -27.3081  -45.9317 N.am      15 UNK        -0.5000 
     85 CA         -1.8042  -28.6018  -46.4724 C.3       15 UNK         0.1400 
     86 CB         -0.2726  -28.6137  -46.6061 C.3       15 UNK        -0.1800 
     87 C          -2.4623  -28.8945  -47.8317 C.2       15 UNK         0.5000 
     88 O          -2.9207  -30.0155  -48.0542 O.2       15 UNK        -0.5000 
     89 N          -2.4859  -27.8952  -48.7224 N.am      16 UNK        -0.5000 
     90 CA         -2.9115  -28.0218  -50.1175 C.3       16 UNK         0.1400 
     91 CB         -2.0696  -27.0532  -50.9657 C.3       16 UNK        -0.1800 
     92 C          -4.4125  -27.7574  -50.3390 C.2       16 UNK         0.5000 
     93 O          -4.8767  -27.8979  -51.4717 O.2       16 UNK        -0.5000 
     94 N          -5.1382  -27.3486  -49.2874 N.am      17 UNK        -0.5000 
     95 CA         -6.5438  -26.9174  -49.2518 C.3       17 UNK         0.1400 
     96 CB         -7.5045  -28.0008  -49.7806 C.3       17 UNK        -0.1800 
     97 C          -6.7735  -25.5586  -49.9412 C.2       17 UNK         0.5000 
     98 O          -7.3279  -24.6495  -49.3229 O.2       17 UNK        -0.5000 
     99 N          -6.3202  -25.4307  -51.1926 N.am      18 UNK        -0.5000 
    100 CA        -6.2608  -24.1770  -51.9363 C.3       18 UNK         0.1400 
    101 CB        -6.1798  -24.4896  -53.4380 C.3       18 UNK        -0.1800 
    102 C         -5.0374  -23.3586  -51.4937 C.2       18 UNK         0.5000 
    103 O         -3.9605  -23.9253  -51.2965 O.2       18 UNK        -0.5000 
    104 N         -5.2062  -22.0368  -51.3933 N.am      19 UNK        -0.5000 
    105 CA        -4.1738  -21.0740  -51.0016 C.3       19 UNK         0.1400 
    106 CB        -4.8733  -19.8369  -50.4071 C.3       19 UNK        -0.1800 
    107 C         -3.2266  -20.7171  -52.1659 C.2       19 UNK         0.5000 
    108 O         -3.0179  -19.5348  -52.4412 O.2       19 UNK        -0.5000 
    109 N         -2.6919  -21.7439  -52.8436 N.am      20 UNK        -0.5000 
    110 CA        -1.7615  -21.6898  -53.9759 C.3       20 UNK         0.1400 
    111 CB        -0.3358  -21.3805  -53.4719 C.3       20 UNK        -0.1800 
    112 C         -2.2553  -20.7421  -55.0897 C.2       20 UNK         0.5000 
    113 O         -3.2004  -21.0917  -55.7983 O.2       20 UNK        -0.5000 
    114 N         -1.6556  -19.5470  -55.1885 N.am      21 UNK        -0.5000 
    115 CA        -2.0354  -18.4654  -56.1031 C.3       21 UNK         0.1400 
    116 CB        -1.0448  -17.3030  -55.9333 C.3       21 UNK        -0.1800 
    117 C         -3.4841  -17.9603  -55.9279 C.2       21 UNK         0.5000 
    118 O         -4.0827  -17.5068  -56.9044 O.2       21 UNK        -0.5000 
    119 N         -4.0229  -18.0692  -54.7077 N.am      22 UNK        -0.5000 
    120 CA        -5.4298  -17.8000  -54.3732 C.3       22 UNK         0.1400 
    121 C         -6.3181  -19.0820  -54.3907 C.2       22 UNK         0.5000 
    122 N         -5.8278  -20.2482  -54.7958 N.am      22 UNK        -0.7600 
    123 O         -7.4953  -19.0191  -54.0476 O.2       22 UNK        -0.5000 
    124 C124       -5.5568  -17.0341  -53.0297 C.3       23 UNK        -0.0398 
    125 S125       -5.0010  -15.2993  -53.1399 S.3       23 UNK        -0.2404 
    126 C126       -4.3411  -15.0237  -51.4619 C.3       23 UNK        -0.0205 
    127 H127        5.1304   -8.0736  -51.0224 H         1 UNK         0.0600 
    128 H128        5.1958   -7.2767  -49.4467 H         1 UNK         0.0600 
    129 H129        3.7065   -7.2392  -50.3947 H         1 UNK         0.0600 
    130 H130        2.1745   -8.6264  -49.5705 H         1 UNK         0.3000 
    131 H131        2.7307  -11.3885  -48.9673 H         1 UNK         0.0600 
    132 H132        0.4926  -10.1688  -49.8865 H         1 UNK         0.0800 
    133 H133        0.0921  -10.0684  -48.2081 H         1 UNK         0.0800 
    134 H134       -0.4493  -11.7793  -51.2392 H         1 UNK         0.0800 
    135 H135        1.0618  -12.6551  -51.1717 H         1 UNK         0.0800 
    136 H136       -2.6338  -12.9784  -50.8646 H         1 UNK         0.1150 
    137 H137       -2.6728  -17.1047  -52.0048 H         1 UNK         0.1150 
    138 H138        1.0593  -15.0749  -51.4524 H         1 UNK         0.1150 
    139 H139       -0.6726  -18.2049  -52.6223 H         1 UNK         0.0800 
    140 H140        0.7556  -17.2499  -52.9268 H         1 UNK         0.0800 
    141 H141       -0.9154  -17.8065  -49.2430 H         1 UNK         0.0800 
    142 H142       -1.3884  -19.1088  -50.2860 H         1 UNK         0.0800 
    143 H143        0.9510  -19.6162  -48.4222 H         1 UNK         0.0600 
    144 H144       -0.0226  -19.1670  -46.5554 H         1 UNK         0.3000 
    145 H145       -2.0268  -18.1313  -45.3157 H         1 UNK         0.0600 
    146 H146       -3.9388  -19.0006  -44.0413 H         1 UNK         0.0600 
    147 H147       -4.4107  -18.7818  -45.7193 H         1 UNK         0.0600 
    148 H148       -4.0764  -20.3958  -45.1036 H         1 UNK         0.0600 
    149 H149       -0.8344  -19.3495  -43.9305 H         1 UNK         0.3000 
    150 H150       -0.7166  -22.6829  -42.9125 H         1 UNK         0.0600 
    151 H151        0.9148  -22.9070  -44.7703 H         1 UNK         0.0600 
    152 H152        1.7510  -22.5396  -43.2715 H         1 UNK         0.0600 
    153 H153        1.5117  -21.2771  -44.4800 H         1 UNK         0.0600 
    154 H154        0.8078  -20.2958  -42.3149 H         1 UNK         0.3000 
    155 H155       -1.0324  -19.5553  -39.4266 H         1 UNK         0.0600 
    156 H156        1.3753  -20.1609  -39.8145 H         1 UNK         0.0600 
    157 H157        1.1636  -18.4809  -39.3562 H         1 UNK         0.0600 
    158 H158        1.5018  -18.8927  -41.0291 H         1 UNK         0.0600 
    159 H159       -1.7496  -17.6017  -40.1716 H         1 UNK         0.3000 
    160 H160       -2.6526  -16.2931  -42.4257 H         1 UNK         0.0600 
    161 H161       -0.4794  -14.9751  -40.6908 H         1 UNK         0.0600 
    162 H162       -2.0345  -15.5782  -40.1211 H         1 UNK         0.0600 
    163 H163       -1.9755  -14.1842  -41.1781 H         1 UNK         0.0600 
    164 H164       -0.0129  -15.5701  -43.4852 H         1 UNK         0.3000 
    165 H165       -1.4667  -13.6472  -46.1176 H         1 UNK         0.0600 
    166 H166        0.4770  -12.7275  -43.9375 H         1 UNK         0.0600 
    167 H167        0.2953  -12.0200  -45.5462 H         1 UNK         0.0600 
    168 H168       -1.0151  -11.9091  -44.3846 H         1 UNK         0.0600 
    169 H169        1.2101  -14.5484  -45.3887 H         1 UNK         0.3000 
    170 H170        1.1633  -17.2794  -47.6939 H         1 UNK         0.0600 
    171 H171        1.5877  -15.2879  -49.0585 H         1 UNK         0.0600 
    172 H172        2.4840  -14.5230  -47.7591 H         1 UNK         0.0600 
    173 H173        3.1112  -15.9816  -48.5286 H         1 UNK         0.0600 
    174 H174        2.9931  -15.9961  -45.7725 H         1 UNK         0.3000 
    175 H175        2.3717  -18.2673  -43.2175 H         1 UNK         0.0600 
    176 H176        3.6242  -19.9648  -44.5601 H         1 UNK         0.0600 
    177 H177        4.7900  -18.7370  -45.0354 H         1 UNK         0.0600 
    178 H178        4.6485  -19.2217  -43.3445 H         1 UNK         0.0600 
    179 H179        4.7007  -16.7228  -43.6186 H         1 UNK         0.3000 
    180 H180        3.8077  -14.3088  -41.6058 H         1 UNK         0.0600 
    181 H181        5.8186  -15.6199  -42.2605 H         1 UNK         0.0600 
    182 H182        5.7987  -14.8927  -43.8701 H         1 UNK         0.0600 
    183 H183        6.1122  -13.9048  -42.4507 H         1 UNK         0.0600 
    184 H184        3.5658  -12.3959  -42.7010 H         1 UNK         0.3000 
    185 H185        2.5625  -11.0789  -44.4610 H         1 UNK         0.0600 
    186 H186        4.9641  -10.7153  -43.7579 H         1 UNK         0.0600 
    187 H187        5.4996  -11.0615  -45.3977 H         1 UNK         0.0600 
    188 H188        4.5317   -9.6287  -45.0625 H         1 UNK         0.0600 
    189 H189        3.2273  -12.2820  -46.9813 H         1 UNK         0.3000 
    190 H190        0.3215  -21.6814  -47.0898 H         1 UNK         0.3000 
    191 H191        0.4365  -23.8658  -47.0555 H         1 UNK         0.0600 
    192 H192        0.4297  -23.9302  -50.1138 H         1 UNK         0.0600 
    193 H193        0.9776  -25.1979  -49.0313 H         1 UNK         0.0600 
    194 H194        1.8633  -23.6847  -49.1151 H         1 UNK         0.0600 
    195 H195       -2.3125  -22.3690  -47.6483 H         1 UNK         0.3000 
    196 H196       -4.1386  -24.2893  -48.6265 H         1 UNK         0.0600 
    197 H197       -5.8445  -22.9035  -47.4670 H         1 UNK         0.0600 
    198 H198       -4.6829  -21.8711  -48.2773 H         1 UNK         0.0600 
    199 H199       -4.5880  -22.0945  -46.5370 H         1 UNK         0.0600 
    200 H200       -2.6669  -23.9536  -45.4384 H         1 UNK         0.3000 
    201 H201       -4.2802  -25.7337  -43.9513 H         1 UNK         0.0600 
    202 H202       -2.2689  -25.8441  -42.4517 H         1 UNK         0.0600 
    203 H203       -1.3007  -25.0597  -43.6952 H         1 UNK         0.0600 
    204 H204       -2.6387  -24.1965  -42.9325 H         1 UNK         0.0600 
    205 H205       -2.0129  -26.4942  -46.4986 H         1 UNK         0.3000 
    206 H206       -2.0863  -29.4124  -45.7975 H         1 UNK         0.0600 
    207 H207        0.2063  -28.4860  -45.6352 H         1 UNK         0.0600 
    208 H208        0.0774  -29.5605  -47.0193 H         1 UNK         0.0600 
    209 H209        0.0826  -27.8165  -47.2608 H         1 UNK         0.0600 
    210 H210       -2.0905  -26.9906  -48.4682 H         1 UNK         0.3000 
    211 H211       -2.7078  -29.0365  -50.4660 H         1 UNK         0.0600 
    212 H212       -2.2983  -27.1562  -52.0271 H         1 UNK         0.0600 
    213 H213       -1.0034  -27.2447  -50.8436 H         1 UNK         0.0600 
    214 H214       -2.2557  -26.0141  -50.6913 H         1 UNK         0.0600 
    215 H215       -4.6472  -27.2283  -48.4108 H         1 UNK         0.3000 
    216 H216       -6.7839  -26.7783  -48.1973 H         1 UNK         0.0600 
    217 H217       -8.5419  -27.7092  -49.6128 H         1 UNK         0.0600 
    218 H218       -7.3470  -28.9502  -49.2689 H         1 UNK         0.0600 
    219 H219       -7.3889  -28.1725  -50.8507 H         1 UNK         0.0600 
    220 H220       -5.8244  -26.2234  -51.5894 H         1 UNK         0.3000 
    221 H221       -7.1705  -23.6031  -51.7469 H         1 UNK         0.0600 
    222 H222       -5.2928  -25.0773  -53.6792 H         1 UNK         0.0600 
    223 H223       -7.0535  -25.0499  -53.7714 H         1 UNK         0.0600 
    224 H224       -6.1362  -23.5726  -54.0270 H         1 UNK         0.0600 
    225 H225       -6.1085  -21.6439  -51.6189 H         1 UNK         0.3000 
    226 H226       -3.5460  -21.5127  -50.2238 H         1 UNK         0.0600 
    227 H227       -5.4331  -20.0896  -49.5076 H         1 UNK         0.0600 
    228 H228       -4.1526  -19.0672  -50.1267 H         1 UNK         0.0600 
    229 H229       -5.5768  -19.4002  -51.1145 H         1 UNK         0.0600 
    230 H230       -2.9388  -22.6727  -52.5188 H         1 UNK         0.3000 
    231 H231       -1.7451  -22.6889  -54.4134 H         1 UNK         0.0600 
    232 H232        0.0222  -22.1794  -52.8222 H         1 UNK         0.0600 
    233 H233       -0.2925  -20.4583  -52.8945 H         1 UNK         0.0600 
    234 H234        0.3716  -21.2982  -54.2980 H         1 UNK         0.0600 
    235 H235       -0.9098  -19.3430  -54.5413 H         1 UNK         0.3000 
    236 H236       -1.9435  -18.8504  -57.1207 H         1 UNK         0.0600 
    237 H237       -0.0187  -17.6255  -56.1105 H         1 UNK         0.0600 
    238 H238       -1.2596  -16.5017  -56.6417 H         1 UNK         0.0600 
    239 H239       -1.0968  -16.8746  -54.9316 H         1 UNK         0.0600 
    240 H240       -3.4762  -18.4995  -53.9661 H         1 UNK         0.3000 
    241 H241       -5.8616  -17.1613  -55.1455 H         1 UNK         0.0600 
    242 H242       -4.8757  -20.3405  -55.1340 H         1 UNK         0.3800 
    243 H243       -6.4409  -21.0458  -54.8273 H         1 UNK         0.3800 
    244 H244       -6.5907  -17.0074  -52.6818 H         1 UNK         0.0800 
    245 H245       -4.9880  -17.5488  -52.2573 H         1 UNK         0.0800 
    246 H246       -4.7264  -15.7686  -50.7645 H         1 UNK         0.0800 
    247 H247       -4.7122  -14.0615  -51.1060 H         1 UNK         0.0800 
@<TRIPOS>BOND
     1    1    2 1    
     2    1  127 1    
     3    1  128 1    
     4    1  129 1    
     5    2    3 2    
     6    2    4 am   BACKBONE|DICT|INTERRES
     7    4    5 1    
     8    4  130 1    
     9    5    6 1    
    10    5   65 1    
    11    5  131 1    
    12    6    7 1    
    13    6  132 1    
    14    6  133 1    
    15    7    8 1    
    16    8    9 1    
    17    8  134 1    
    18    8  135 1    
    19    9   10 ar   
    20    9   14 ar   
    21   10   11 ar   
    22   10  136 1    
    23   11   12 ar   
    24   11  126 1    
    25   12   13 ar   
    26   12  137 1    
    27   13   14 ar   
    28   13   15 1    
    29   14  138 1    
    30   15   16 1    
    31   15  139 1    
    32   15  140 1    
    33   16   17 1    
    34   17   18 1    
    35   17  141 1    
    36   17  142 1    
    37   18   19 1    
    38   18   67 1    
    39   18  143 1    
    40   19   20 am   BACKBONE|DICT|INTERRES
    41   19  144 1    
    42   20   21 2    
    43   20   22 1    
    44   22   23 1    
    45   22   24 1    
    46   22  145 1    
    47   23  146 1    
    48   23  147 1    
    49   23  148 1    
    50   24   25 am   BACKBONE|DICT|INTERRES
    51   24  149 1    
    52   25   26 2    
    53   25   27 1    
    54   27   28 1    
    55   27   29 1    
    56   27  150 1    
    57   28  151 1    
    58   28  152 1    
    59   28  153 1    
    60   29   30 am   BACKBONE|DICT|INTERRES
    61   29  154 1    
    62   30   31 2    
    63   30   32 1    
    64   32   33 1    
    65   32   34 1    
    66   32  155 1    
    67   33  156 1    
    68   33  157 1    
    69   33  158 1    
    70   34   35 am   BACKBONE|DICT|INTERRES
    71   34  159 1    
    72   35   36 2    
    73   35   37 1    
    74   37   38 1    
    75   37   39 1    
    76   37  160 1    
    77   38  161 1    
    78   38  162 1    
    79   38  163 1    
    80   39   40 am   BACKBONE|DICT|INTERRES
    81   39  164 1    
    82   40   41 2    
    83   40   42 1    
    84   42   43 1    
    85   42   44 1    
    86   42  165 1    
    87   43  166 1    
    88   43  167 1    
    89   43  168 1    
    90   44   45 am   BACKBONE|DICT|INTERRES
    91   44  169 1    
    92   45   46 2    
    93   45   47 1    
    94   47   48 1    
    95   47   49 1    
    96   47  170 1    
    97   48  171 1    
    98   48  172 1    
    99   48  173 1    
   100   49   50 am   BACKBONE|DICT|INTERRES
   101   49  174 1    
   102   50   51 2    
   103   50   52 1    
   104   52   53 1    
   105   52   54 1    
   106   52  175 1    
   107   53  176 1    
   108   53  177 1    
   109   53  178 1    
   110   54   55 am   BACKBONE|DICT|INTERRES
   111   54  179 1    
   112   55   56 2    
   113   55   57 1    
   114   57   58 1    
   115   57   59 1    
   116   57  180 1    
   117   58  181 1    
   118   58  182 1    
   119   58  183 1    
   120   59   60 am   BACKBONE|DICT|INTERRES
   121   59  184 1    
   122   60   61 2    
   123   60   62 1    
   124   62   63 1    
   125   62   64 1    
   126   62  185 1    
   127   63  186 1    
   128   63  187 1    
   129   63  188 1    
   130   64   65 am   BACKBONE|DICT|INTERRES
   131   64  189 1    
   132   65   66 2    
   133   67   68 2    
   134   67   69 am   BACKBONE|DICT|INTERRES
   135   69   70 1    
   136   69  190 1    
   137   70   71 1    
   138   70   72 1    
   139   70  191 1    
   140   71  192 1    
   141   71  193 1    
   142   71  194 1    
   143   72   73 2    
   144   72   74 am   BACKBONE|DICT|INTERRES
   145   74   75 1    
   146   74  195 1    
   147   75   76 1    
   148   75   77 1    
   149   75  196 1    
   150   76  197 1    
   151   76  198 1    
   152   76  199 1    
   153   77   78 2    
   154   77   79 am   BACKBONE|DICT|INTERRES
   155   79   80 1    
   156   79  200 1    
   157   80   81 1    
   158   80   82 1    
   159   80  201 1    
   160   81  202 1    
   161   81  203 1    
   162   81  204 1    
   163   82   83 2    
   164   82   84 am   BACKBONE|DICT|INTERRES
   165   84   85 1    
   166   84  205 1    
   167   85   86 1    
   168   85   87 1    
   169   85  206 1    
   170   86  207 1    
   171   86  208 1    
   172   86  209 1    
   173   87   88 2    
   174   87   89 am   BACKBONE|DICT|INTERRES
   175   89   90 1    
   176   89  210 1    
   177   90   91 1    
   178   90   92 1    
   179   90  211 1    
   180   91  212 1    
   181   91  213 1    
   182   91  214 1    
   183   92   93 2    
   184   92   94 am   BACKBONE|DICT|INTERRES
   185   94   95 1    
   186   94  215 1    
   187   95   96 1    
   188   95   97 1    
   189   95  216 1    
   190   96  217 1    
   191   96  218 1    
   192   96  219 1    
   193   97   98 2    
   194   97   99 am   BACKBONE|DICT|INTERRES
   195   99  100 1    
   196   99  220 1    
   197  100  101 1    
   198  100  102 1    
   199  100  221 1    
   200  101  222 1    
   201  101  223 1    
   202  101  224 1    
   203  102  103 2    
   204  102  104 am   BACKBONE|DICT|INTERRES
   205  104  105 1    
   206  104  225 1    
   207  105  106 1    
   208  105  107 1    
   209  105  226 1    
   210  106  227 1    
   211  106  228 1    
   212  106  229 1    
   213  107  108 2    
   214  107  109 am   BACKBONE|DICT|INTERRES
   215  109  110 1    
   216  109  230 1    
   217  110  111 1    
   218  110  112 1    
   219  110  231 1    
   220  111  232 1    
   221  111  233 1    
   222  111  234 1    
   223  112  113 2    
   224  112  114 am   BACKBONE|DICT|INTERRES
   225  114  115 1    
   226  114  235 1    
   227  115  116 1    
   228  115  117 1    
   229  115  236 1    
   230  116  237 1    
   231  116  238 1    
   232  116  239 1    
   233  117  118 2    
   234  117  119 am   BACKBONE|DICT|INTERRES
   235  119  120 1    
   236  119  240 1    
   237  120  121 1    
   238  120  124 1    
   239  120  241 1    
   240  121  122 am   BACKBONE|DICT|INTERRES
   241  121  123 2    
   242  122  242 1    
   243  122  243 1    
   244  124  125 1    
   245  124  244 1    
   246  124  245 1    
   247  125  126 1    
   248  126  246 1    
   249  126  247 1    
@<TRIPOS>SUBSTRUCTURE
     1 UNK         1 GROUP             0       ****    0 ROOT    
