@<TRIPOS>MOLECULE
3R540
247   249    1
SMALL
USER_CHARGES


@<TRIPOS>ATOM
      1 CA         -2.1233  -10.2993  -49.2144 C.3       0 UNK        -0.1800 
      2 C          -0.9872  -11.0141  -48.4962 C.2       0 UNK         0.5000 
      3 O          -0.9187  -10.9676  -47.2683 O.2       0 UNK        -0.5000 
      4 N          -0.1048  -11.6719  -49.2599 N.am      1 UNK        -0.5000 
      5 CA          1.0772  -12.4120  -48.8026 C.3       1 UNK         0.1400 
      6 C6          0.7493  -13.6615  -47.9350 C.3       23 UNK        -0.0398 
      7 S7         -0.2177  -14.9062  -48.8498 S.3       23 UNK        -0.2404 
      8 C8          1.1242  -15.9214  -49.5401 C.3       23 UNK        -0.0205 
      9 C9          0.5722  -17.0510  -50.3923 C.ar      23 UNK        -0.0193 
     10 C10         0.2136  -16.8175  -51.7233 C.ar      23 UNK        -0.1150 
     11 C11        -0.3212  -17.8463  -52.5045 C.ar      23 UNK        -0.0193 
     12 C12        -0.4655  -19.1192  -51.9505 C.ar      23 UNK        -0.1150 
     13 C13        -0.0913  -19.3748  -50.6291 C.ar      23 UNK        -0.0193 
     14 C14         0.4155  -18.3295  -49.8500 C.ar      23 UNK        -0.1150 
     15 C15        -0.2928  -20.7705  -50.0548 C.3       23 UNK        -0.0205 
     16 S16         1.1746  -21.4487  -49.2078 S.3       23 UNK        -0.2404 
     17 C17         0.7801  -21.1030  -47.4576 C.3       23 UNK        -0.0398 
     18 CA          0.0795  -22.2837  -46.7393 C.3       11 UNK         0.1400 
     19 N           0.0927  -22.1177  -45.2838 N.am      11 UNK        -0.5000 
     20 C          -0.3463  -23.0259  -44.4001 C.2       10 UNK         0.5000 
     21 O          -0.7554  -24.1431  -44.7110 O.2       10 UNK        -0.5000 
     22 CA         -0.4031  -22.5905  -42.9262 C.3       10 UNK         0.1400 
     23 CB          0.9853  -22.6692  -42.2753 C.3       10 UNK        -0.1800 
     24 N          -0.9611  -21.2466  -42.7668 N.am      10 UNK        -0.5000 
     25 C          -2.2110  -20.9040  -43.1136 C.2       9 UNK         0.5000 
     26 O          -3.0413  -21.7033  -43.5479 O.2       9 UNK        -0.5000 
     27 CA         -2.5853  -19.4154  -42.9982 C.3       9 UNK         0.1400 
     28 CB         -2.9494  -19.0573  -41.5499 C.3       9 UNK        -0.1800 
     29 N          -1.5281  -18.5232  -43.4776 N.am      9 UNK        -0.5000 
     30 C          -1.0880  -18.4696  -44.7433 C.2       8 UNK         0.5000 
     31 O          -1.5548  -19.1482  -45.6573 O.2       8 UNK        -0.5000 
     32 CA          0.1181  -17.5527  -45.0243 C.3       8 UNK         0.1400 
     33 CB         -0.3090  -16.0813  -45.1246 C.3       8 UNK        -0.1800 
     34 N           1.1687  -17.6965  -44.0156 N.am      8 UNK        -0.5000 
     35 C           1.8462  -18.8313  -43.7888 C.2       7 UNK         0.5000 
     36 O           1.7025  -19.8584  -44.4519 O.2       7 UNK        -0.5000 
     37 CA          2.8025  -18.8363  -42.5854 C.3       7 UNK         0.1400 
     38 CB          4.1638  -18.2313  -42.9598 C.3       7 UNK        -0.1800 
     39 N           2.2336  -18.1223  -41.4417 N.am      7 UNK        -0.5000 
     40 C           1.2149  -18.5835  -40.7012 C.2       6 UNK         0.5000 
     41 O           0.6751  -19.6732  -40.8881 O.2       6 UNK        -0.5000 
     42 CA          0.6820  -17.6562  -39.5933 C.3       6 UNK         0.1400 
     43 CB          1.5234  -17.7984  -38.3164 C.3       6 UNK        -0.1800 
     44 N           0.6502  -16.2511  -40.0001 N.am      6 UNK        -0.5000 
     45 C          -0.1348  -15.7603  -40.9695 C.2       5 UNK         0.5000 
     46 O          -0.9531  -16.4357  -41.5913 O.2       5 UNK        -0.5000 
     47 CA          0.0613  -14.2795  -41.3417 C.3       5 UNK         0.1400 
     48 CB         -0.8611  -13.3839  -40.5024 C.3       5 UNK        -0.1800 
     49 N           1.4430  -13.8159  -41.1992 N.am      5 UNK        -0.5000 
     50 C           2.5016  -14.3085  -41.8542 C.2       4 UNK         0.5000 
     51 O           2.4299  -15.2572  -42.6384 O.2       4 UNK        -0.5000 
     52 CA          3.8526  -13.6109  -41.5837 C.3       4 UNK         0.1400 
     53 CB          5.0372  -14.3527  -42.2279 C.3       4 UNK        -0.1800 
     54 N           3.8450  -12.2302  -42.0669 N.am      4 UNK        -0.5000 
     55 C           3.2039  -11.1979  -41.5003 C.2       3 UNK         0.5000 
     56 O           2.6200  -11.2749  -40.4178 O.2       3 UNK        -0.5000 
     57 CA          3.1832   -9.8655  -42.2800 C.3       3 UNK         0.1400 
     58 CB          4.1912   -8.8756  -41.6762 C.3       3 UNK        -0.1800 
     59 N           3.4545  -10.0034  -43.7162 N.am      3 UNK        -0.5000 
     60 C           2.6859  -10.6702  -44.5884 C.2       2 UNK         0.5000 
     61 O           1.6351  -11.2394  -44.2794 O.2       2 UNK        -0.5000 
     62 CA          3.2004  -10.7403  -46.0352 C.3       2 UNK         0.1400 
     63 CB          4.5886  -11.4088  -46.1127 C.3       2 UNK        -0.1800 
     64 N           2.2471  -11.5046  -46.8299 N.am      2 UNK        -0.5000 
     65 C           2.1076  -11.4583  -48.1582 C.2       1 UNK         0.5000 
     66 O           2.7650  -10.7101  -48.8847 O.2       1 UNK        -0.5000 
     67 C          -1.3531  -22.4991  -47.2702 C.2       11 UNK         0.5000 
     68 O          -1.5813  -23.4304  -48.0428 O.2       11 UNK        -0.5000 
     69 N          -2.2958  -21.6473  -46.8405 N.am      12 UNK        -0.5000 
     70 CA         -3.7080  -21.7127  -47.2191 C.3       12 UNK         0.1400 
     71 CB         -4.4710  -20.5270  -46.6123 C.3       12 UNK        -0.1800 
     72 C          -4.3712  -23.0499  -46.8444 C.2       12 UNK         0.5000 
     73 O          -5.1460  -23.5797  -47.6395 O.2       12 UNK        -0.5000 
     74 N          -4.0189  -23.5878  -45.6705 N.am      13 UNK        -0.5000 
     75 CA         -4.4452  -24.9041  -45.2074 C.3       13 UNK         0.1400 
     76 CB         -4.1873  -25.0193  -43.6964 C.3       13 UNK        -0.1800 
     77 C          -3.7632  -26.0535  -45.9745 C.2       13 UNK         0.5000 
     78 O          -4.4554  -26.9372  -46.4807 O.2       13 UNK        -0.5000 
     79 N          -2.4240  -26.0398  -46.0255 N.am      14 UNK        -0.5000 
     80 CA         -1.6100  -27.1517  -46.5205 C.3       14 UNK         0.1400 
     81 CB         -0.1721  -27.0048  -45.9990 C.3       14 UNK        -0.1800 
     82 C          -1.6055  -27.2958  -48.0509 C.2       14 UNK         0.5000 
     83 O          -1.6877  -28.4192  -48.5493 O.2       14 UNK        -0.5000 
     84 N          -1.4890  -26.1712  -48.7673 N.am      15 UNK        -0.5000 
     85 CA         -1.3518  -26.1294  -50.2254 C.3       15 UNK         0.1400 
     86 CB         -0.2499  -25.1183  -50.5905 C.3       15 UNK        -0.1800 
     87 C          -2.6705  -25.7703  -50.9311 C.2       15 UNK         0.5000 
     88 O          -2.6719  -25.6325  -52.1557 O.2       15 UNK        -0.5000 
     89 N          -3.7545  -25.5781  -50.1628 N.am      16 UNK        -0.5000 
     90 CA         -5.0852  -25.1518  -50.6149 C.3       16 UNK         0.1400 
     91 CB         -5.7514  -26.2558  -51.4633 C.3       16 UNK        -0.1800 
     92 C          -5.0410  -23.7870  -51.3347 C.2       16 UNK         0.5000 
     93 O          -5.6655  -23.6206  -52.3818 O.2       16 UNK        -0.5000 
     94 N          -4.2432  -22.8570  -50.7869 N.am      17 UNK        -0.5000 
     95 CA         -3.9197  -21.5363  -51.3443 C.3       17 UNK         0.1400 
     96 CB         -5.1625  -20.6254  -51.3691 C.3       17 UNK        -0.1800 
     97 C          -3.2075  -21.6338  -52.7112 C.2       17 UNK         0.5000 
     98 O          -3.5008  -20.8580  -53.6233 O.2       17 UNK        -0.5000 
     99 N          -2.2876  -22.6073  -52.8059 N.am      18 UNK        -0.5000 
    100 CA        -1.5312  -23.0252  -53.9901 C.3       18 UNK         0.1400 
    101 CB        -0.5468  -21.9297  -54.4466 C.3       18 UNK        -0.1800 
    102 C         -2.4680  -23.5180  -55.1073 C.2       18 UNK         0.5000 
    103 O         -2.4522  -22.9821  -56.2151 O.2       18 UNK        -0.5000 
    104 N         -3.3002  -24.5126  -54.7653 N.am      19 UNK        -0.5000 
    105 CA        -4.3496  -25.1070  -55.6020 C.3       19 UNK         0.1400 
    106 CB        -3.7284  -25.9339  -56.7466 C.3       19 UNK        -0.1800 
    107 C         -5.3698  -24.0568  -56.0937 C.2       19 UNK         0.5000 
    108 O         -5.6910  -23.9995  -57.2820 O.2       19 UNK        -0.5000 
    109 N         -5.8332  -23.2288  -55.1487 N.am      20 UNK        -0.5000 
    110 CA        -6.7872  -22.1280  -55.2868 C.3       20 UNK         0.1400 
    111 CB        -8.1575  -22.6411  -55.7760 C.3       20 UNK        -0.1800 
    112 C         -6.2850  -20.9200  -56.1054 C.2       20 UNK         0.5000 
    113 O         -7.0890  -20.0323  -56.3956 O.2       20 UNK        -0.5000 
    114 N         -4.9821  -20.8504  -56.4225 N.am      21 UNK        -0.5000 
    115 CA        -4.3628  -19.7320  -57.1463 C.3       21 UNK         0.1400 
    116 CB        -2.8978  -20.0609  -57.4631 C.3       21 UNK        -0.1800 
    117 C         -4.4613  -18.3881  -56.3984 C.2       21 UNK         0.5000 
    118 O         -4.6512  -17.3525  -57.0380 O.2       21 UNK        -0.5000 
    119 N         -4.3766  -18.4435  -55.0651 N.am      22 UNK        -0.5000 
    120 CA        -4.6429  -17.3260  -54.1464 C.3       22 UNK         0.1400 
    121 C         -5.9929  -17.4952  -53.3857 C.2       22 UNK         0.5000 
    122 N         -6.9260  -18.3154  -53.8563 N.am      22 UNK        -0.7600 
    123 O         -6.2175  -16.8590  -52.3599 O.2       22 UNK        -0.5000 
    124 C124       -3.4403  -17.0763  -53.1987 C.3       23 UNK        -0.0398 
    125 S125       -2.0331  -16.3149  -54.0802 S.3       23 UNK        -0.2404 
    126 C126       -0.7446  -17.5935  -53.9458 C.3       23 UNK        -0.0205 
    127 H127       -2.0648  -10.4271  -50.2956 H         1 UNK         0.0600 
    128 H128       -2.0925   -9.2319  -48.9960 H         1 UNK         0.0600 
    129 H129       -3.0837  -10.6898  -48.8779 H         1 UNK         0.0600 
    130 H130       -0.2227  -11.6466  -50.2629 H         1 UNK         0.3000 
    131 H131        1.5609  -12.7762  -49.7104 H         1 UNK         0.0600 
    132 H132        1.6645  -14.1340  -47.5734 H         1 UNK         0.0800 
    133 H133        0.1806  -13.3855  -47.0462 H         1 UNK         0.0800 
    134 H134        1.7847  -15.2962  -50.1427 H         1 UNK         0.0800 
    135 H135        1.7321  -16.3237  -48.7281 H         1 UNK         0.0800 
    136 H136        0.3280  -15.8286  -52.1449 H         1 UNK         0.1150 
    137 H137       -0.8820  -19.9115  -52.5519 H         1 UNK         0.1150 
    138 H138        0.6903  -18.5051  -48.8209 H         1 UNK         0.1150 
    139 H139       -1.1508  -20.7390  -49.3861 H         1 UNK         0.0800 
    140 H140       -0.5518  -21.4700  -50.8498 H         1 UNK         0.0800 
    141 H141        0.1939  -20.1879  -47.3734 H         1 UNK         0.0800 
    142 H142        1.7290  -20.8904  -46.9636 H         1 UNK         0.0800 
    143 H143        0.6451  -23.1932  -46.9534 H         1 UNK         0.0600 
    144 H144        0.4545  -21.2348  -44.9332 H         1 UNK         0.3000 
    145 H145       -1.0610  -23.2863  -42.4014 H         1 UNK         0.0600 
    146 H146        0.9349  -22.4382  -41.2112 H         1 UNK         0.0600 
    147 H147        1.4039  -23.6718  -42.3704 H         1 UNK         0.0600 
    148 H148        1.6883  -21.9754  -42.7356 H         1 UNK         0.0600 
    149 H149       -0.3522  -20.5457  -42.3567 H         1 UNK         0.3000 
    150 H150       -3.4671  -19.2467  -43.6193 H         1 UNK         0.0600 
    151 H151       -3.3020  -18.0284  -41.4758 H         1 UNK         0.0600 
    152 H152       -3.7459  -19.7018  -41.1759 H         1 UNK         0.0600 
    153 H153       -2.0956  -19.1667  -40.8808 H         1 UNK         0.0600 
    154 H154       -1.1275  -17.8885  -42.7917 H         1 UNK         0.3000 
    155 H155        0.5414  -17.8458  -45.9874 H         1 UNK         0.0600 
    156 H156       -0.7699  -15.7287  -44.2025 H         1 UNK         0.0600 
    157 H157       -1.0352  -15.9425  -45.9265 H         1 UNK         0.0600 
    158 H158        0.5432  -15.4369  -45.3408 H         1 UNK         0.0600 
    159 H159        1.3790  -16.8852  -43.4445 H         1 UNK         0.3000 
    160 H160        2.9673  -19.8749  -42.2913 H         1 UNK         0.0600 
    161 H161        4.0708  -17.2047  -43.3136 H         1 UNK         0.0600 
    162 H162        4.6358  -18.8071  -43.7568 H         1 UNK         0.0600 
    163 H163        4.8457  -18.2340  -42.1094 H         1 UNK         0.0600 
    164 H164        2.5748  -17.1864  -41.2767 H         1 UNK         0.3000 
    165 H165       -0.3402  -17.9651  -39.3646 H         1 UNK         0.0600 
    166 H166        1.1074  -17.2048  -37.5021 H         1 UNK         0.0600 
    167 H167        1.5493  -18.8359  -37.9805 H         1 UNK         0.0600 
    168 H168        2.5541  -17.4782  -38.4736 H         1 UNK         0.0600 
    169 H169        1.2929  -15.6241  -39.5393 H         1 UNK         0.3000 
    170 H170       -0.2151  -14.1648  -42.3914 H         1 UNK         0.0600 
    171 H171       -1.9032  -13.6887  -40.6073 H         1 UNK         0.0600 
    172 H172       -0.6098  -13.4287  -39.4420 H         1 UNK         0.0600 
    173 H173       -0.7941  -12.3430  -40.8196 H         1 UNK         0.0600 
    174 H174        1.5945  -12.9979  -40.6179 H         1 UNK         0.3000 
    175 H175        4.0098  -13.6047  -40.5032 H         1 UNK         0.0600 
    176 H176        4.9442  -14.3980  -43.3139 H         1 UNK         0.0600 
    177 H177        5.9831  -13.8645  -41.9926 H         1 UNK         0.0600 
    178 H178        5.1028  -15.3771  -41.8596 H         1 UNK         0.0600 
    179 H179        4.2781  -12.0726  -42.9640 H         1 UNK         0.3000 
    180 H180        2.1819   -9.4441  -42.1696 H         1 UNK         0.0600 
    181 H181        5.2166   -9.2335  -41.7779 H         1 UNK         0.0600 
    182 H182        4.0010   -8.7228  -40.6129 H         1 UNK         0.0600 
    183 H183        4.1252   -7.9003  -42.1588 H         1 UNK         0.0600 
    184 H184        4.2995   -9.5630  -44.0510 H         1 UNK         0.3000 
    185 H185        3.2578   -9.7203  -46.4204 H         1 UNK         0.0600 
    186 H186        5.3382  -10.8426  -45.5594 H         1 UNK         0.0600 
    187 H187        4.5693  -12.4199  -45.7035 H         1 UNK         0.0600 
    188 H188        4.9403  -11.4746  -47.1423 H         1 UNK         0.0600 
    189 H189        1.5933  -12.0385  -46.2703 H         1 UNK         0.3000 
    190 H190       -2.0249  -20.8727  -46.2389 H         1 UNK         0.3000 
    191 H191       -3.7558  -21.6137  -48.3033 H         1 UNK         0.0600 
    192 H192       -4.0439  -19.5769  -46.9339 H         1 UNK         0.0600 
    193 H193       -5.5160  -20.5357  -46.9244 H         1 UNK         0.0600 
    194 H194       -4.4542  -20.5504  -45.5232 H         1 UNK         0.0600 
    195 H195       -3.4085  -23.0585  -45.0563 H         1 UNK         0.3000 
    196 H196       -5.5221  -24.9898  -45.3684 H         1 UNK         0.0600 
    197 H197       -4.5021  -25.9927  -43.3186 H         1 UNK         0.0600 
    198 H198       -4.7426  -24.2602  -43.1450 H         1 UNK         0.0600 
    199 H199       -3.1310  -24.8975  -43.4543 H         1 UNK         0.0600 
    200 H200       -1.9172  -25.2737  -45.5861 H         1 UNK         0.3000 
    201 H201       -2.0174  -28.0763  -46.1057 H         1 UNK         0.0600 
    202 H202       -0.1486  -26.9776  -44.9094 H         1 UNK         0.0600 
    203 H203        0.2977  -26.0915  -46.3666 H         1 UNK         0.0600 
    204 H204        0.4479  -27.8440  -46.3169 H         1 UNK         0.0600 
    205 H205       -1.4662  -25.2701  -48.2937 H         1 UNK         0.3000 
    206 H206       -1.0430  -27.1057  -50.6040 H         1 UNK         0.0600 
    207 H207        0.6786  -25.3392  -50.0638 H         1 UNK         0.0600 
    208 H208       -0.0285  -25.1484  -51.6578 H         1 UNK         0.0600 
    209 H209       -0.5358  -24.0955  -50.3456 H         1 UNK         0.0600 
    210 H210       -3.6466  -25.7020  -49.1656 H         1 UNK         0.3000 
    211 H211       -5.6966  -25.0152  -49.7232 H         1 UNK         0.0600 
    212 H212       -5.2293  -26.4179  -52.4066 H         1 UNK         0.0600 
    213 H213       -6.7827  -25.9943  -51.7029 H         1 UNK         0.0600 
    214 H214       -5.7746  -27.2039  -50.9262 H         1 UNK         0.0600 
    215 H215       -3.7682  -23.1106  -49.9318 H         1 UNK         0.3000 
    216 H216       -3.2017  -21.0813  -50.6625 H         1 UNK         0.0600 
    217 H217       -4.8842  -19.6013  -51.6163 H         1 UNK         0.0600 
    218 H218       -5.6531  -20.5998  -50.3961 H         1 UNK         0.0600 
    219 H219       -5.8955  -20.9521  -52.1068 H         1 UNK         0.0600 
    220 H220       -2.1917  -23.2227  -52.0119 H         1 UNK         0.3000 
    221 H221       -0.9360  -23.8892  -53.6914 H         1 UNK         0.0600 
    222 H222       -1.0584  -21.0090  -54.7233 H         1 UNK         0.0600 
    223 H223        0.1711  -21.6967  -53.6607 H         1 UNK         0.0600 
    224 H224        0.0251  -22.2575  -55.3153 H         1 UNK         0.0600 
    225 H225       -3.2197  -24.8900  -53.8236 H         1 UNK         0.3000 
    226 H226       -4.9023  -25.7943  -54.9600 H         1 UNK         0.0600 
    227 H227       -3.0352  -26.6811  -56.3605 H         1 UNK         0.0600 
    228 H228       -4.4989  -26.4652  -57.3065 H         1 UNK         0.0600 
    229 H229       -3.1852  -25.3058  -57.4533 H         1 UNK         0.0600 
    230 H230       -5.5290  -23.3878  -54.1894 H         1 UNK         0.3000 
    231 H231       -6.9303  -21.7487  -54.2742 H         1 UNK         0.0600 
    232 H232       -8.1206  -22.9713  -56.8143 H         1 UNK         0.0600 
    233 H233       -8.9153  -21.8596  -55.7108 H         1 UNK         0.0600 
    234 H234       -8.5050  -23.4769  -55.1687 H         1 UNK         0.0600 
    235 H235       -4.3653  -21.5964  -56.1265 H         1 UNK         0.3000 
    236 H236       -4.8954  -19.6202  -58.0928 H         1 UNK         0.0600 
    237 H237       -2.8175  -20.9657  -58.0656 H         1 UNK         0.0600 
    238 H238       -2.4275  -19.2531  -58.0251 H         1 UNK         0.0600 
    239 H239       -2.3169  -20.2085  -56.5529 H         1 UNK         0.0600 
    240 H240       -4.1962  -19.3433  -54.6262 H         1 UNK         0.3000 
    241 H241       -4.7895  -16.4103  -54.7215 H         1 UNK         0.0600 
    242 H242       -7.7973  -18.4000  -53.3576 H         1 UNK         0.3800 
    243 H243       -6.8074  -18.7917  -54.7412 H         1 UNK         0.3800 
    244 H244       -3.7043  -16.3878  -52.3947 H         1 UNK         0.0800 
    245 H245       -3.1377  -18.0049  -52.7132 H         1 UNK         0.0800 
    246 H246        0.1276  -17.2784  -54.5196 H         1 UNK         0.0800 
    247 H247       -1.1097  -18.5082  -54.4159 H         1 UNK         0.0800 
@<TRIPOS>BOND
     1    1    2 1    
     2    1  127 1    
     3    1  128 1    
     4    1  129 1    
     5    2    3 2    
     6    2    4 am   BACKBONE|DICT|INTERRES
     7    4    5 1    
     8    4  130 1    
     9    5    6 1    
    10    5   65 1    
    11    5  131 1    
    12    6    7 1    
    13    6  132 1    
    14    6  133 1    
    15    7    8 1    
    16    8    9 1    
    17    8  134 1    
    18    8  135 1    
    19    9   10 ar   
    20    9   14 ar   
    21   10   11 ar   
    22   10  136 1    
    23   11   12 ar   
    24   11  126 1    
    25   12   13 ar   
    26   12  137 1    
    27   13   14 ar   
    28   13   15 1    
    29   14  138 1    
    30   15   16 1    
    31   15  139 1    
    32   15  140 1    
    33   16   17 1    
    34   17   18 1    
    35   17  141 1    
    36   17  142 1    
    37   18   19 1    
    38   18   67 1    
    39   18  143 1    
    40   19   20 am   BACKBONE|DICT|INTERRES
    41   19  144 1    
    42   20   21 2    
    43   20   22 1    
    44   22   23 1    
    45   22   24 1    
    46   22  145 1    
    47   23  146 1    
    48   23  147 1    
    49   23  148 1    
    50   24   25 am   BACKBONE|DICT|INTERRES
    51   24  149 1    
    52   25   26 2    
    53   25   27 1    
    54   27   28 1    
    55   27   29 1    
    56   27  150 1    
    57   28  151 1    
    58   28  152 1    
    59   28  153 1    
    60   29   30 am   BACKBONE|DICT|INTERRES
    61   29  154 1    
    62   30   31 2    
    63   30   32 1    
    64   32   33 1    
    65   32   34 1    
    66   32  155 1    
    67   33  156 1    
    68   33  157 1    
    69   33  158 1    
    70   34   35 am   BACKBONE|DICT|INTERRES
    71   34  159 1    
    72   35   36 2    
    73   35   37 1    
    74   37   38 1    
    75   37   39 1    
    76   37  160 1    
    77   38  161 1    
    78   38  162 1    
    79   38  163 1    
    80   39   40 am   BACKBONE|DICT|INTERRES
    81   39  164 1    
    82   40   41 2    
    83   40   42 1    
    84   42   43 1    
    85   42   44 1    
    86   42  165 1    
    87   43  166 1    
    88   43  167 1    
    89   43  168 1    
    90   44   45 am   BACKBONE|DICT|INTERRES
    91   44  169 1    
    92   45   46 2    
    93   45   47 1    
    94   47   48 1    
    95   47   49 1    
    96   47  170 1    
    97   48  171 1    
    98   48  172 1    
    99   48  173 1    
   100   49   50 am   BACKBONE|DICT|INTERRES
   101   49  174 1    
   102   50   51 2    
   103   50   52 1    
   104   52   53 1    
   105   52   54 1    
   106   52  175 1    
   107   53  176 1    
   108   53  177 1    
   109   53  178 1    
   110   54   55 am   BACKBONE|DICT|INTERRES
   111   54  179 1    
   112   55   56 2    
   113   55   57 1    
   114   57   58 1    
   115   57   59 1    
   116   57  180 1    
   117   58  181 1    
   118   58  182 1    
   119   58  183 1    
   120   59   60 am   BACKBONE|DICT|INTERRES
   121   59  184 1    
   122   60   61 2    
   123   60   62 1    
   124   62   63 1    
   125   62   64 1    
   126   62  185 1    
   127   63  186 1    
   128   63  187 1    
   129   63  188 1    
   130   64   65 am   BACKBONE|DICT|INTERRES
   131   64  189 1    
   132   65   66 2    
   133   67   68 2    
   134   67   69 am   BACKBONE|DICT|INTERRES
   135   69   70 1    
   136   69  190 1    
   137   70   71 1    
   138   70   72 1    
   139   70  191 1    
   140   71  192 1    
   141   71  193 1    
   142   71  194 1    
   143   72   73 2    
   144   72   74 am   BACKBONE|DICT|INTERRES
   145   74   75 1    
   146   74  195 1    
   147   75   76 1    
   148   75   77 1    
   149   75  196 1    
   150   76  197 1    
   151   76  198 1    
   152   76  199 1    
   153   77   78 2    
   154   77   79 am   BACKBONE|DICT|INTERRES
   155   79   80 1    
   156   79  200 1    
   157   80   81 1    
   158   80   82 1    
   159   80  201 1    
   160   81  202 1    
   161   81  203 1    
   162   81  204 1    
   163   82   83 2    
   164   82   84 am   BACKBONE|DICT|INTERRES
   165   84   85 1    
   166   84  205 1    
   167   85   86 1    
   168   85   87 1    
   169   85  206 1    
   170   86  207 1    
   171   86  208 1    
   172   86  209 1    
   173   87   88 2    
   174   87   89 am   BACKBONE|DICT|INTERRES
   175   89   90 1    
   176   89  210 1    
   177   90   91 1    
   178   90   92 1    
   179   90  211 1    
   180   91  212 1    
   181   91  213 1    
   182   91  214 1    
   183   92   93 2    
   184   92   94 am   BACKBONE|DICT|INTERRES
   185   94   95 1    
   186   94  215 1    
   187   95   96 1    
   188   95   97 1    
   189   95  216 1    
   190   96  217 1    
   191   96  218 1    
   192   96  219 1    
   193   97   98 2    
   194   97   99 am   BACKBONE|DICT|INTERRES
   195   99  100 1    
   196   99  220 1    
   197  100  101 1    
   198  100  102 1    
   199  100  221 1    
   200  101  222 1    
   201  101  223 1    
   202  101  224 1    
   203  102  103 2    
   204  102  104 am   BACKBONE|DICT|INTERRES
   205  104  105 1    
   206  104  225 1    
   207  105  106 1    
   208  105  107 1    
   209  105  226 1    
   210  106  227 1    
   211  106  228 1    
   212  106  229 1    
   213  107  108 2    
   214  107  109 am   BACKBONE|DICT|INTERRES
   215  109  110 1    
   216  109  230 1    
   217  110  111 1    
   218  110  112 1    
   219  110  231 1    
   220  111  232 1    
   221  111  233 1    
   222  111  234 1    
   223  112  113 2    
   224  112  114 am   BACKBONE|DICT|INTERRES
   225  114  115 1    
   226  114  235 1    
   227  115  116 1    
   228  115  117 1    
   229  115  236 1    
   230  116  237 1    
   231  116  238 1    
   232  116  239 1    
   233  117  118 2    
   234  117  119 am   BACKBONE|DICT|INTERRES
   235  119  120 1    
   236  119  240 1    
   237  120  121 1    
   238  120  124 1    
   239  120  241 1    
   240  121  122 am   BACKBONE|DICT|INTERRES
   241  121  123 2    
   242  122  242 1    
   243  122  243 1    
   244  124  125 1    
   245  124  244 1    
   246  124  245 1    
   247  125  126 1    
   248  126  246 1    
   249  126  247 1    
@<TRIPOS>SUBSTRUCTURE
     1 UNK         1 GROUP             0       ****    0 ROOT    
