@<TRIPOS>MOLECULE
3R540
247   249    1
SMALL
USER_CHARGES


@<TRIPOS>ATOM
      1 CA         -0.7210  -15.7504  -54.1172 C.3       0 UNK        -0.1800 
      2 C          -0.4336  -15.4599  -52.6523 C.2       0 UNK         0.5000 
      3 O           0.0330  -14.3681  -52.3256 O.2       0 UNK        -0.5000 
      4 N          -0.7105  -16.4245  -51.7669 N.am      1 UNK        -0.5000 
      5 CA         -0.4277  -16.3851  -50.3236 C.3       1 UNK         0.1400 
      6 C6         -0.3335  -17.8096  -49.7080 C.3       23 UNK        -0.0398 
      7 S7          0.5946  -19.0181  -50.7039 S.3       23 UNK        -0.2404 
      8 C8          2.3140  -18.7568  -50.1758 C.3       23 UNK        -0.0205 
      9 C9          3.2236  -19.7278  -50.9118 C.ar      23 UNK        -0.0193 
     10 C10         3.3559  -19.6269  -52.2986 C.ar      23 UNK        -0.1150 
     11 C11         4.0854  -20.5755  -53.0168 C.ar      23 UNK        -0.0193 
     12 C12         4.7432  -21.5977  -52.3276 C.ar      23 UNK        -0.1150 
     13 C13         4.6605  -21.6845  -50.9333 C.ar      23 UNK        -0.0193 
     14 C14         3.8910  -20.7502  -50.2301 C.ar      23 UNK        -0.1150 
     15 C15         5.4134  -22.7840  -50.1978 C.3       23 UNK        -0.0205 
     16 S16         4.3128  -24.1303  -49.6557 S.3       23 UNK        -0.2404 
     17 C17         4.0572  -23.6998  -47.9014 C.3       23 UNK        -0.0398 
     18 CA          2.6621  -24.1039  -47.3674 C.3       11 UNK         0.1400 
     19 N           2.6754  -24.2222  -45.9053 N.am      11 UNK        -0.5000 
     20 C           1.6802  -24.7312  -45.1652 C.2       10 UNK         0.5000 
     21 O           0.6609  -25.2233  -45.6454 O.2       10 UNK        -0.5000 
     22 CA          1.8280  -24.6292  -43.6348 C.3       10 UNK         0.1400 
     23 CB          2.4643  -25.9075  -43.0700 C.3       10 UNK        -0.1800 
     24 N           2.6188  -23.4679  -43.2176 N.am      10 UNK        -0.5000 
     25 C           2.2240  -22.1935  -43.3401 C.2       9 UNK         0.5000 
     26 O           1.1291  -21.8550  -43.7935 O.2       9 UNK        -0.5000 
     27 CA          3.2714  -21.1321  -42.9844 C.3       9 UNK         0.1400 
     28 CB          3.9905  -20.6455  -44.2556 C.3       9 UNK        -0.1800 
     29 N           2.6633  -19.9926  -42.3016 N.am      9 UNK        -0.5000 
     30 C           3.3051  -19.2422  -41.3942 C.2       8 UNK         0.5000 
     31 O           4.4552  -19.4707  -41.0153 O.2       8 UNK        -0.5000 
     32 CA          2.5640  -18.0313  -40.8045 C.3       8 UNK         0.1400 
     33 CB          2.7678  -16.7911  -41.6901 C.3       8 UNK        -0.1800 
     34 N           1.1338  -18.2795  -40.6421 N.am      8 UNK        -0.5000 
     35 C           0.5602  -18.7201  -39.5134 C.2       7 UNK         0.5000 
     36 O           1.1908  -18.9952  -38.4917 O.2       7 UNK        -0.5000 
     37 CA         -0.9757  -18.8598  -39.5039 C.3       7 UNK         0.1400 
     38 CB         -1.6177  -17.6609  -38.7887 C.3       7 UNK        -0.1800 
     39 N          -1.5444  -18.9639  -40.8464 N.am      7 UNK        -0.5000 
     40 C          -1.5162  -20.0767  -41.5932 C.2       6 UNK         0.5000 
     41 O          -1.0923  -21.1584  -41.1870 O.2       6 UNK        -0.5000 
     42 CA         -2.0315  -19.9568  -43.0421 C.3       6 UNK         0.1400 
     43 CB         -3.4983  -20.4106  -43.1138 C.3       6 UNK        -0.1800 
     44 N          -1.9137  -18.6071  -43.6065 N.am      6 UNK        -0.5000 
     45 C          -0.7648  -17.9299  -43.7496 C.2       5 UNK         0.5000 
     46 O           0.3330  -18.3955  -43.4471 O.2       5 UNK        -0.5000 
     47 CA         -0.8448  -16.4790  -44.2619 C.3       5 UNK         0.1400 
     48 CB         -0.4294  -16.4008  -45.7347 C.3       5 UNK        -0.1800 
     49 N          -2.1573  -15.8479  -44.1075 N.am      5 UNK        -0.5000 
     50 C          -2.7541  -15.5672  -42.9423 C.2       4 UNK         0.5000 
     51 O          -2.2950  -15.9157  -41.8525 O.2       4 UNK        -0.5000 
     52 CA         -4.0735  -14.7655  -43.0157 C.3       4 UNK         0.1400 
     53 CB         -4.5226  -14.2465  -41.6377 C.3       4 UNK        -0.1800 
     54 N          -3.9988  -13.6302  -43.9436 N.am      4 UNK        -0.5000 
     55 C          -4.1305  -13.7011  -45.2747 C.2       3 UNK         0.5000 
     56 O          -4.3140  -14.7643  -45.8692 O.2       3 UNK        -0.5000 
     57 CA         -4.0792  -12.3767  -46.0671 C.3       3 UNK         0.1400 
     58 CB         -3.1545  -11.3094  -45.4391 C.3       3 UNK        -0.1800 
     59 N          -3.7711  -12.5999  -47.4855 N.am      3 UNK        -0.5000 
     60 C          -2.6088  -13.0032  -48.0209 C.2       2 UNK         0.5000 
     61 O          -1.5476  -13.0966  -47.3991 O.2       2 UNK        -0.5000 
     62 CA         -2.6563  -13.3103  -49.5340 C.3       2 UNK         0.1400 
     63 CB         -2.5224  -12.0152  -50.3505 C.3       2 UNK        -0.1800 
     64 N          -1.6475  -14.2615  -50.0088 N.am      2 UNK        -0.5000 
     65 C          -1.4399  -15.5018  -49.5484 C.2       1 UNK         0.5000 
     66 O          -2.0365  -15.9673  -48.5792 O.2       1 UNK        -0.5000 
     67 C           1.5575  -23.1339  -47.8416 C.2       11 UNK         0.5000 
     68 O           0.8467  -23.4295  -48.8019 O.2       11 UNK        -0.5000 
     69 N           1.3896  -22.0230  -47.1094 N.am      12 UNK        -0.5000 
     70 CA          0.3170  -21.0573  -47.3275 C.3       12 UNK         0.1400 
     71 CB          0.6259  -19.7667  -46.5663 C.3       12 UNK        -0.1800 
     72 C          -1.0604  -21.6084  -46.9247 C.2       12 UNK         0.5000 
     73 O          -2.0429  -21.3202  -47.6055 O.2       12 UNK        -0.5000 
     74 N          -1.1100  -22.4182  -45.8566 N.am      13 UNK        -0.5000 
     75 CA         -2.3145  -23.1308  -45.4246 C.3       13 UNK         0.1400 
     76 CB         -2.0837  -23.7799  -44.0518 C.3       13 UNK        -0.1800 
     77 C          -2.7814  -24.1709  -46.4600 C.2       13 UNK         0.5000 
     78 O          -3.9771  -24.2487  -46.7392 O.2       13 UNK        -0.5000 
     79 N          -1.8315  -24.9038  -47.0589 N.am      14 UNK        -0.5000 
     80 CA         -2.0664  -25.8414  -48.1614 C.3       14 UNK         0.1400 
     81 CB         -0.7849  -26.6439  -48.4315 C.3       14 UNK        -0.1800 
     82 C          -2.5631  -25.1491  -49.4476 C.2       14 UNK         0.5000 
     83 O          -3.3777  -25.7223  -50.1709 O.2       14 UNK        -0.5000 
     84 N          -2.1034  -23.9125  -49.6810 N.am      15 UNK        -0.5000 
     85 CA         -2.5685  -23.0181  -50.7450 C.3       15 UNK         0.1400 
     86 CB         -1.4669  -21.9840  -51.0270 C.3       15 UNK        -0.1800 
     87 C          -3.9091  -22.3186  -50.4202 C.2       15 UNK         0.5000 
     88 O          -4.4111  -21.5674  -51.2567 O.2       15 UNK        -0.5000 
     89 N          -4.4583  -22.5585  -49.2191 N.am      16 UNK        -0.5000 
     90 CA         -5.6926  -21.9923  -48.6670 C.3       16 UNK         0.1400 
     91 CB         -6.9270  -22.4889  -49.4479 C.3       16 UNK        -0.1800 
     92 C          -5.6439  -20.4602  -48.4823 C.2       16 UNK         0.5000 
     93 O          -6.6848  -19.8020  -48.5373 O.2       16 UNK        -0.5000 
     94 N          -4.4338  -19.9353  -48.2332 N.am      17 UNK        -0.5000 
     95 CA         -4.0847  -18.5516  -47.9095 C.3       17 UNK         0.1400 
     96 CB         -4.3286  -18.3032  -46.4093 C.3       17 UNK        -0.1800 
     97 C          -4.7535  -17.5210  -48.8409 C.2       17 UNK         0.5000 
     98 O          -4.3658  -17.4207  -50.0064 O.2       17 UNK        -0.5000 
     99 N          -5.7695  -16.8134  -48.3265 N.am      18 UNK        -0.5000 
    100 CA        -6.5614  -15.7823  -49.0014 C.3       18 UNK         0.1400 
    101 CB        -7.5702  -15.2053  -47.9966 C.3       18 UNK        -0.1800 
    102 C         -7.2715  -16.2262  -50.2998 C.2       18 UNK         0.5000 
    103 O         -7.7027  -15.3623  -51.0644 O.2       18 UNK        -0.5000 
    104 N         -7.3469  -17.5413  -50.5592 N.am      19 UNK        -0.5000 
    105 CA        -7.7133  -18.1193  -51.8567 C.3       19 UNK         0.1400 
    106 CB        -7.8014  -19.6445  -51.7163 C.3       19 UNK        -0.1800 
    107 C         -6.7305  -17.7507  -52.9918 C.2       19 UNK         0.5000 
    108 O         -7.1306  -17.7545  -54.1565 O.2       19 UNK        -0.5000 
    109 N         -5.4823  -17.4170  -52.6270 N.am      20 UNK        -0.5000 
    110 CA        -4.4155  -16.8778  -53.4710 C.3       20 UNK         0.1400 
    111 CB        -4.7975  -15.4837  -54.0109 C.3       20 UNK        -0.1800 
    112 C         -3.9302  -17.8470  -54.5667 C.2       20 UNK         0.5000 
    113 O         -3.5748  -17.4106  -55.6640 O.2       20 UNK        -0.5000 
    114 N         -3.8761  -19.1460  -54.2409 N.am      21 UNK        -0.5000 
    115 CA        -3.1779  -20.1488  -55.0469 C.3       21 UNK         0.1400 
    116 CB        -3.6024  -21.5546  -54.5986 C.3       21 UNK        -0.1800 
    117 C         -1.6507  -19.9685  -54.9303 C.2       21 UNK         0.5000 
    118 O         -1.1732  -19.4101  -53.9394 O.2       21 UNK        -0.5000 
    119 N         -0.9180  -20.4416  -55.9465 N.am      22 UNK        -0.5000 
    120 CA         0.5416  -20.2783  -56.0991 C.3       22 UNK         0.1400 
    121 C          0.9863  -18.8333  -56.4980 C.2       22 UNK         0.5000 
    122 N          0.0793  -17.9332  -56.8601 N.am      22 UNK        -0.7600 
    123 O          2.1731  -18.5237  -56.5228 O.2       22 UNK        -0.5000 
    124 C124        1.3367  -20.8607  -54.8918 C.3       23 UNK        -0.0398 
    125 S125        2.9462  -21.6063  -55.3407 S.3       23 UNK        -0.2404 
    126 C126        4.1517  -20.4966  -54.5353 C.3       23 UNK        -0.0205 
    127 H127       -1.4651  -15.0540  -54.5024 H         1 UNK         0.0600 
    128 H128       -1.0926  -16.7634  -54.2633 H         1 UNK         0.0600 
    129 H129        0.1894  -15.6393  -54.7060 H         1 UNK         0.0600 
    130 H130       -1.0612  -17.3113  -52.1039 H         1 UNK         0.3000 
    131 H131        0.5509  -15.9184  -50.1939 H         1 UNK         0.0600 
    132 H132        0.0950  -17.7627  -48.7066 H         1 UNK         0.0800 
    133 H133       -1.3305  -18.2370  -49.5969 H         1 UNK         0.0800 
    134 H134        2.3938  -18.8905  -49.0971 H         1 UNK         0.0800 
    135 H135        2.6154  -17.7318  -50.3957 H         1 UNK         0.0800 
    136 H136        2.8436  -18.8319  -52.8226 H         1 UNK         0.1150 
    137 H137        5.3171  -22.3282  -52.8805 H         1 UNK         0.1150 
    138 H138        3.7994  -20.8263  -49.1566 H         1 UNK         0.1150 
    139 H139        6.1774  -23.2118  -50.8490 H         1 UNK         0.0800 
    140 H140        5.9540  -22.3618  -49.3496 H         1 UNK         0.0800 
    141 H141        4.2468  -22.6390  -47.7318 H         1 UNK         0.0800 
    142 H142        4.8322  -24.2290  -47.3449 H         1 UNK         0.0800 
    143 H143        2.4180  -25.0937  -47.7602 H         1 UNK         0.0600 
    144 H144        3.4849  -23.8577  -45.4264 H         1 UNK         0.3000 
    145 H145        0.8282  -24.5288  -43.2084 H         1 UNK         0.0600 
    146 H146        2.5099  -25.8773  -41.9812 H         1 UNK         0.0600 
    147 H147        1.8810  -26.7874  -43.3449 H         1 UNK         0.0600 
    148 H148        3.4777  -26.0547  -43.4456 H         1 UNK         0.0600 
    149 H149        3.5350  -23.6638  -42.8399 H         1 UNK         0.3000 
    150 H150        4.0049  -21.6006  -42.3245 H         1 UNK         0.0600 
    151 H151        4.4373  -21.4771  -44.8016 H         1 UNK         0.0600 
    152 H152        4.7948  -19.9514  -44.0115 H         1 UNK         0.0600 
    153 H153        3.3051  -20.1340  -44.9325 H         1 UNK         0.0600 
    154 H154        1.7215  -19.7491  -42.5924 H         1 UNK         0.3000 
    155 H155        3.0085  -17.8131  -39.8310 H         1 UNK         0.0600 
    156 H156        2.3959  -16.9461  -42.7029 H         1 UNK         0.0600 
    157 H157        3.8265  -16.5407  -41.7681 H         1 UNK         0.0600 
    158 H158        2.2581  -15.9216  -41.2748 H         1 UNK         0.0600 
    159 H159        0.5634  -18.1475  -41.4688 H         1 UNK         0.3000 
    160 H160       -1.2240  -19.7635  -38.9432 H         1 UNK         0.0600 
    161 H161       -1.3978  -16.7228  -39.3001 H         1 UNK         0.0600 
    162 H162       -1.2488  -17.5718  -37.7661 H         1 UNK         0.0600 
    163 H163       -2.7014  -17.7670  -38.7348 H         1 UNK         0.0600 
    164 H164       -1.9048  -18.1086  -41.2518 H         1 UNK         0.3000 
    165 H165       -1.4266  -20.6246  -43.6575 H         1 UNK         0.0600 
    166 H166       -3.8515  -20.4699  -44.1413 H         1 UNK         0.0600 
    167 H167       -3.6229  -21.4027  -42.6776 H         1 UNK         0.0600 
    168 H168       -4.1558  -19.7307  -42.5707 H         1 UNK         0.0600 
    169 H169       -2.7724  -18.1411  -43.8565 H         1 UNK         0.3000 
    170 H170       -0.1295  -15.8962  -43.6780 H         1 UNK         0.0600 
    171 H171        0.5696  -16.8114  -45.8860 H         1 UNK         0.0600 
    172 H172       -1.1210  -16.9579  -46.3660 H         1 UNK         0.0600 
    173 H173       -0.4129  -15.3696  -46.0884 H         1 UNK         0.0600 
    174 H174       -2.6213  -15.5436  -44.9567 H         1 UNK         0.3000 
    175 H175       -4.8406  -15.4571  -43.3705 H         1 UNK         0.0600 
    176 H176       -3.7898  -13.5628  -41.2073 H         1 UNK         0.0600 
    177 H177       -5.4745  -13.7197  -41.7056 H         1 UNK         0.0600 
    178 H178       -4.6600  -15.0679  -40.9332 H         1 UNK         0.0600 
    179 H179       -3.8211  -12.7285  -43.5257 H         1 UNK         0.3000 
    180 H180       -5.0948  -11.9791  -46.0474 H         1 UNK         0.0600 
    181 H181       -2.1495  -11.6927  -45.2594 H         1 UNK         0.0600 
    182 H182       -3.5468  -10.9583  -44.4843 H         1 UNK         0.0600 
    183 H183       -3.0672  -10.4361  -46.0856 H         1 UNK         0.0600 
    184 H184       -4.5744  -12.5559  -48.0956 H         1 UNK         0.3000 
    185 H185       -3.6285  -13.7567  -49.7518 H         1 UNK         0.0600 
    186 H186       -1.5473  -11.5494  -50.2019 H         1 UNK         0.0600 
    187 H187       -2.6439  -12.2060  -51.4171 H         1 UNK         0.0600 
    188 H188       -3.2814  -11.2860  -50.0643 H         1 UNK         0.0600 
    189 H189       -1.0927  -13.9743  -50.8092 H         1 UNK         0.3000 
    190 H190        1.9715  -21.8755  -46.2992 H         1 UNK         0.3000 
    191 H191        0.2805  -20.8227  -48.3921 H         1 UNK         0.0600 
    192 H192       -0.1860  -19.0528  -46.6913 H         1 UNK         0.0600 
    193 H193        1.5409  -19.2967  -46.9239 H         1 UNK         0.0600 
    194 H194        0.7401  -19.9489  -45.4997 H         1 UNK         0.0600 
    195 H195       -0.2686  -22.5571  -45.3105 H         1 UNK         0.3000 
    196 H196       -3.1112  -22.3928  -45.3195 H         1 UNK         0.0600 
    197 H197       -3.0217  -24.1565  -43.6426 H         1 UNK         0.0600 
    198 H198       -1.6772  -23.0685  -43.3331 H         1 UNK         0.0600 
    199 H199       -1.3975  -24.6235  -44.1111 H         1 UNK         0.0600 
    200 H200       -0.8760  -24.8309  -46.7198 H         1 UNK         0.3000 
    201 H201       -2.8429  -26.5399  -47.8430 H         1 UNK         0.0600 
    202 H202       -0.4650  -27.1867  -47.5418 H         1 UNK         0.0600 
    203 H203        0.0373  -25.9993  -48.7424 H         1 UNK         0.0600 
    204 H204       -0.9433  -27.3783  -49.2221 H         1 UNK         0.0600 
    205 H205       -1.3915  -23.5411  -49.0639 H         1 UNK         0.3000 
    206 H206       -2.7222  -23.6046  -51.6528 H         1 UNK         0.0600 
    207 H207       -0.5260  -22.4659  -51.2938 H         1 UNK         0.0600 
    208 H208       -1.7369  -21.3235  -51.8510 H         1 UNK         0.0600 
    209 H209       -1.2830  -21.3525  -50.1593 H         1 UNK         0.0600 
    210 H210       -3.9615  -23.1774  -48.5903 H         1 UNK         0.3000 
    211 H211       -5.7758  -22.3938  -47.6566 H         1 UNK         0.0600 
    212 H212       -6.9103  -22.1692  -50.4885 H         1 UNK         0.0600 
    213 H213       -7.8523  -22.1194  -49.0048 H         1 UNK         0.0600 
    214 H214       -6.9792  -23.5776  -49.4388 H         1 UNK         0.0600 
    215 H215       -3.6448  -20.5777  -48.2071 H         1 UNK         0.3000 
    216 H216       -3.0119  -18.4629  -48.0752 H         1 UNK         0.0600 
    217 H217       -4.0512  -17.2884  -46.1293 H         1 UNK         0.0600 
    218 H218       -3.7081  -18.9728  -45.8182 H         1 UNK         0.0600 
    219 H219       -5.3676  -18.4679  -46.1221 H         1 UNK         0.0600 
    220 H220       -6.0144  -16.9905  -47.3637 H         1 UNK         0.3000 
    221 H221       -5.8691  -14.9863  -49.2813 H         1 UNK         0.0600 
    222 H222       -8.2694  -15.9672  -47.6498 H         1 UNK         0.0600 
    223 H223       -7.0642  -14.7898  -47.1246 H         1 UNK         0.0600 
    224 H224       -8.1554  -14.4009  -48.4440 H         1 UNK         0.0600 
    225 H225       -7.0000  -18.1895  -49.8596 H         1 UNK         0.3000 
    226 H226       -8.6990  -17.7372  -52.1293 H         1 UNK         0.0600 
    227 H227       -6.8262  -20.0717  -51.4810 H         1 UNK         0.0600 
    228 H228       -8.4966  -19.9336  -50.9279 H         1 UNK         0.0600 
    229 H229       -8.1463  -20.1048  -52.6429 H         1 UNK         0.0600 
    230 H230       -5.2429  -17.4787  -51.6388 H         1 UNK         0.3000 
    231 H231       -3.5622  -16.7391  -52.8059 H         1 UNK         0.0600 
    232 H232       -3.9550  -15.0136  -54.5186 H         1 UNK         0.0600 
    233 H233       -5.0989  -14.8182  -53.2017 H         1 UNK         0.0600 
    234 H234       -5.6196  -15.5376  -54.7250 H         1 UNK         0.0600 
    235 H235       -4.1553  -19.4268  -53.3114 H         1 UNK         0.3000 
    236 H236       -3.4693  -20.0182  -56.0913 H         1 UNK         0.0600 
    237 H237       -4.6868  -21.6660  -54.6119 H         1 UNK         0.0600 
    238 H238       -3.1884  -22.3164  -55.2601 H         1 UNK         0.0600 
    239 H239       -3.2546  -21.7778  -53.5919 H         1 UNK         0.0600 
    240 H240       -1.3872  -20.8882  -56.7218 H         1 UNK         0.3000 
    241 H241        0.7831  -20.8865  -56.9713 H         1 UNK         0.0600 
    242 H242        0.3838  -17.0135  -57.1363 H         1 UNK         0.3800 
    243 H243       -0.9036  -18.1543  -56.8539 H         1 UNK         0.3800 
    244 H244        1.4520  -20.1059  -54.1165 H         1 UNK         0.0800 
    245 H245        0.7632  -21.6612  -54.4228 H         1 UNK         0.0800 
    246 H246        3.9911  -19.4717  -54.8712 H         1 UNK         0.0800 
    247 H247        5.1544  -20.7683  -54.8682 H         1 UNK         0.0800 
@<TRIPOS>BOND
     1    1    2 1    
     2    1  127 1    
     3    1  128 1    
     4    1  129 1    
     5    2    3 2    
     6    2    4 am   BACKBONE|DICT|INTERRES
     7    4    5 1    
     8    4  130 1    
     9    5    6 1    
    10    5   65 1    
    11    5  131 1    
    12    6    7 1    
    13    6  132 1    
    14    6  133 1    
    15    7    8 1    
    16    8    9 1    
    17    8  134 1    
    18    8  135 1    
    19    9   10 ar   
    20    9   14 ar   
    21   10   11 ar   
    22   10  136 1    
    23   11   12 ar   
    24   11  126 1    
    25   12   13 ar   
    26   12  137 1    
    27   13   14 ar   
    28   13   15 1    
    29   14  138 1    
    30   15   16 1    
    31   15  139 1    
    32   15  140 1    
    33   16   17 1    
    34   17   18 1    
    35   17  141 1    
    36   17  142 1    
    37   18   19 1    
    38   18   67 1    
    39   18  143 1    
    40   19   20 am   BACKBONE|DICT|INTERRES
    41   19  144 1    
    42   20   21 2    
    43   20   22 1    
    44   22   23 1    
    45   22   24 1    
    46   22  145 1    
    47   23  146 1    
    48   23  147 1    
    49   23  148 1    
    50   24   25 am   BACKBONE|DICT|INTERRES
    51   24  149 1    
    52   25   26 2    
    53   25   27 1    
    54   27   28 1    
    55   27   29 1    
    56   27  150 1    
    57   28  151 1    
    58   28  152 1    
    59   28  153 1    
    60   29   30 am   BACKBONE|DICT|INTERRES
    61   29  154 1    
    62   30   31 2    
    63   30   32 1    
    64   32   33 1    
    65   32   34 1    
    66   32  155 1    
    67   33  156 1    
    68   33  157 1    
    69   33  158 1    
    70   34   35 am   BACKBONE|DICT|INTERRES
    71   34  159 1    
    72   35   36 2    
    73   35   37 1    
    74   37   38 1    
    75   37   39 1    
    76   37  160 1    
    77   38  161 1    
    78   38  162 1    
    79   38  163 1    
    80   39   40 am   BACKBONE|DICT|INTERRES
    81   39  164 1    
    82   40   41 2    
    83   40   42 1    
    84   42   43 1    
    85   42   44 1    
    86   42  165 1    
    87   43  166 1    
    88   43  167 1    
    89   43  168 1    
    90   44   45 am   BACKBONE|DICT|INTERRES
    91   44  169 1    
    92   45   46 2    
    93   45   47 1    
    94   47   48 1    
    95   47   49 1    
    96   47  170 1    
    97   48  171 1    
    98   48  172 1    
    99   48  173 1    
   100   49   50 am   BACKBONE|DICT|INTERRES
   101   49  174 1    
   102   50   51 2    
   103   50   52 1    
   104   52   53 1    
   105   52   54 1    
   106   52  175 1    
   107   53  176 1    
   108   53  177 1    
   109   53  178 1    
   110   54   55 am   BACKBONE|DICT|INTERRES
   111   54  179 1    
   112   55   56 2    
   113   55   57 1    
   114   57   58 1    
   115   57   59 1    
   116   57  180 1    
   117   58  181 1    
   118   58  182 1    
   119   58  183 1    
   120   59   60 am   BACKBONE|DICT|INTERRES
   121   59  184 1    
   122   60   61 2    
   123   60   62 1    
   124   62   63 1    
   125   62   64 1    
   126   62  185 1    
   127   63  186 1    
   128   63  187 1    
   129   63  188 1    
   130   64   65 am   BACKBONE|DICT|INTERRES
   131   64  189 1    
   132   65   66 2    
   133   67   68 2    
   134   67   69 am   BACKBONE|DICT|INTERRES
   135   69   70 1    
   136   69  190 1    
   137   70   71 1    
   138   70   72 1    
   139   70  191 1    
   140   71  192 1    
   141   71  193 1    
   142   71  194 1    
   143   72   73 2    
   144   72   74 am   BACKBONE|DICT|INTERRES
   145   74   75 1    
   146   74  195 1    
   147   75   76 1    
   148   75   77 1    
   149   75  196 1    
   150   76  197 1    
   151   76  198 1    
   152   76  199 1    
   153   77   78 2    
   154   77   79 am   BACKBONE|DICT|INTERRES
   155   79   80 1    
   156   79  200 1    
   157   80   81 1    
   158   80   82 1    
   159   80  201 1    
   160   81  202 1    
   161   81  203 1    
   162   81  204 1    
   163   82   83 2    
   164   82   84 am   BACKBONE|DICT|INTERRES
   165   84   85 1    
   166   84  205 1    
   167   85   86 1    
   168   85   87 1    
   169   85  206 1    
   170   86  207 1    
   171   86  208 1    
   172   86  209 1    
   173   87   88 2    
   174   87   89 am   BACKBONE|DICT|INTERRES
   175   89   90 1    
   176   89  210 1    
   177   90   91 1    
   178   90   92 1    
   179   90  211 1    
   180   91  212 1    
   181   91  213 1    
   182   91  214 1    
   183   92   93 2    
   184   92   94 am   BACKBONE|DICT|INTERRES
   185   94   95 1    
   186   94  215 1    
   187   95   96 1    
   188   95   97 1    
   189   95  216 1    
   190   96  217 1    
   191   96  218 1    
   192   96  219 1    
   193   97   98 2    
   194   97   99 am   BACKBONE|DICT|INTERRES
   195   99  100 1    
   196   99  220 1    
   197  100  101 1    
   198  100  102 1    
   199  100  221 1    
   200  101  222 1    
   201  101  223 1    
   202  101  224 1    
   203  102  103 2    
   204  102  104 am   BACKBONE|DICT|INTERRES
   205  104  105 1    
   206  104  225 1    
   207  105  106 1    
   208  105  107 1    
   209  105  226 1    
   210  106  227 1    
   211  106  228 1    
   212  106  229 1    
   213  107  108 2    
   214  107  109 am   BACKBONE|DICT|INTERRES
   215  109  110 1    
   216  109  230 1    
   217  110  111 1    
   218  110  112 1    
   219  110  231 1    
   220  111  232 1    
   221  111  233 1    
   222  111  234 1    
   223  112  113 2    
   224  112  114 am   BACKBONE|DICT|INTERRES
   225  114  115 1    
   226  114  235 1    
   227  115  116 1    
   228  115  117 1    
   229  115  236 1    
   230  116  237 1    
   231  116  238 1    
   232  116  239 1    
   233  117  118 2    
   234  117  119 am   BACKBONE|DICT|INTERRES
   235  119  120 1    
   236  119  240 1    
   237  120  121 1    
   238  120  124 1    
   239  120  241 1    
   240  121  122 am   BACKBONE|DICT|INTERRES
   241  121  123 2    
   242  122  242 1    
   243  122  243 1    
   244  124  125 1    
   245  124  244 1    
   246  124  245 1    
   247  125  126 1    
   248  126  246 1    
   249  126  247 1    
@<TRIPOS>SUBSTRUCTURE
     1 UNK         1 GROUP             0       ****    0 ROOT    
