@<TRIPOS>MOLECULE
3R540
247   249    1
SMALL
USER_CHARGES


@<TRIPOS>ATOM
      1 CA          0.8942   -9.0943  -53.1543 C.3       0 UNK        -0.1800 
      2 C           1.7149  -10.1505  -52.4272 C.2       0 UNK         0.5000 
      3 O           2.9386  -10.0320  -52.3524 O.2       0 UNK        -0.5000 
      4 N           1.0489  -11.1848  -51.9012 N.am      1 UNK        -0.5000 
      5 CA          1.6510  -12.2546  -51.1001 C.3       1 UNK         0.1400 
      6 C6          0.7413  -13.5072  -51.0426 C.3       23 UNK        -0.0398 
      7 S7         -0.9399  -13.2037  -50.3876 S.3       23 UNK        -0.2404 
      8 C8         -1.8989  -14.4972  -51.2420 C.3       23 UNK        -0.0205 
      9 C9         -1.3359  -15.8903  -50.9965 C.ar      23 UNK        -0.0193 
     10 C10        -0.8455  -16.6511  -52.0620 C.ar      23 UNK        -0.1150 
     11 C11        -0.3159  -17.9257  -51.8404 C.ar      23 UNK        -0.0193 
     12 C12        -0.2723  -18.4367  -50.5399 C.ar      23 UNK        -0.1150 
     13 C13        -0.7666  -17.6873  -49.4680 C.ar      23 UNK        -0.0193 
     14 C14        -1.3009  -16.4180  -49.7030 C.ar      23 UNK        -0.1150 
     15 C15        -0.7152  -18.2381  -48.0544 C.3       23 UNK        -0.0205 
     16 S16        -2.2108  -19.1853  -47.6482 S.3       23 UNK        -0.2404 
     17 C17        -1.8369  -19.6827  -45.9307 C.3       23 UNK        -0.0398 
     18 CA         -1.0363  -21.0063  -45.8421 C.3       11 UNK         0.1400 
     19 N          -0.2757  -21.0907  -44.5890 N.am      11 UNK        -0.5000 
     20 C           0.5936  -22.0555  -44.2548 C.2       10 UNK         0.5000 
     21 O           0.9207  -22.9667  -45.0152 O.2       10 UNK        -0.5000 
     22 CA          1.1229  -22.0556  -42.8054 C.3       10 UNK         0.1400 
     23 CB          2.4917  -21.3647  -42.7244 C.3       10 UNK        -0.1800 
     24 N           0.2139  -21.4595  -41.8172 N.am      10 UNK        -0.5000 
     25 C          -1.0555  -21.8391  -41.5950 C.2       9 UNK         0.5000 
     26 O          -1.6206  -22.7178  -42.2473 O.2       9 UNK        -0.5000 
     27 CA         -1.8196  -21.1105  -40.4673 C.3       9 UNK         0.1400 
     28 CB         -3.1075  -21.8443  -40.0395 C.3       9 UNK        -0.1800 
     29 N          -0.9807  -20.8157  -39.3030 N.am      9 UNK        -0.5000 
     30 C          -0.2834  -21.6884  -38.5557 C.2       8 UNK         0.5000 
     31 O          -0.3498  -22.9110  -38.6931 O.2       8 UNK        -0.5000 
     32 CA          0.6551  -21.0951  -37.4775 C.3       8 UNK         0.1400 
     33 CB          1.9481  -21.9209  -37.3113 C.3       8 UNK        -0.1800 
     34 N           0.9768  -19.6746  -37.6779 N.am      8 UNK        -0.5000 
     35 C           1.5770  -19.1245  -38.7432 C.2       7 UNK         0.5000 
     36 O           1.9851  -19.7600  -39.7178 O.2       7 UNK        -0.5000 
     37 CA          1.6674  -17.5901  -38.7463 C.3       7 UNK         0.1400 
     38 CB          3.1283  -17.1257  -38.6528 C.3       7 UNK        -0.1800 
     39 N           1.0413  -17.0357  -39.9474 N.am      7 UNK        -0.5000 
     40 C          -0.2657  -17.1382  -40.2423 C.2       6 UNK         0.5000 
     41 O          -1.0825  -17.7029  -39.5122 O.2       6 UNK        -0.5000 
     42 CA         -0.7520  -16.5198  -41.5685 C.3       6 UNK         0.1400 
     43 CB         -1.3495  -15.1269  -41.3219 C.3       6 UNK        -0.1800 
     44 N           0.3109  -16.4212  -42.5685 N.am      6 UNK        -0.5000 
     45 C           0.8088  -17.4753  -43.2313 C.2       5 UNK         0.5000 
     46 O           0.3153  -18.6017  -43.1627 O.2       5 UNK        -0.5000 
     47 CA          2.0623  -17.2560  -44.1074 C.3       5 UNK         0.1400 
     48 CB          1.7184  -17.3936  -45.5952 C.3       5 UNK        -0.1800 
     49 N           2.7296  -15.9695  -43.8972 N.am      5 UNK        -0.5000 
     50 C           3.3700  -15.6091  -42.7764 C.2       4 UNK         0.5000 
     51 O           3.4941  -16.3479  -41.8016 O.2       4 UNK        -0.5000 
     52 CA          3.9180  -14.1698  -42.7063 C.3       4 UNK         0.1400 
     53 CB          5.4131  -14.1498  -43.0579 C.3       4 UNK        -0.1800 
     54 N           3.2164  -13.2116  -43.5658 N.am      4 UNK        -0.5000 
     55 C           1.9071  -12.9214  -43.5220 C.2       3 UNK         0.5000 
     56 O           1.1192  -13.4551  -42.7412 O.2       3 UNK        -0.5000 
     57 CA          1.3849  -11.8800  -44.5317 C.3       3 UNK         0.1400 
     58 CB          1.1364  -10.5347  -43.8326 C.3       3 UNK        -0.1800 
     59 N           2.2848  -11.6661  -45.6698 N.am      3 UNK        -0.5000 
     60 C           2.4842  -12.5462  -46.6592 C.2       2 UNK         0.5000 
     61 O           1.9356  -13.6490  -46.7188 O.2       2 UNK        -0.5000 
     62 CA          3.5142  -12.1453  -47.7303 C.3       2 UNK         0.1400 
     63 CB          4.8405  -12.8870  -47.4993 C.3       2 UNK        -0.1800 
     64 N           3.0311  -12.4343  -49.0796 N.am      2 UNK        -0.5000 
     65 C           2.0494  -11.7585  -49.6908 C.2       1 UNK         0.5000 
     66 O           1.4738  -10.7897  -49.1856 O.2       1 UNK        -0.5000 
     67 C          -1.9302  -22.2412  -46.1246 C.2       11 UNK         0.5000 
     68 O          -2.2923  -22.4643  -47.2795 O.2       11 UNK        -0.5000 
     69 N          -2.2264  -23.0728  -45.1127 N.am      12 UNK        -0.5000 
     70 CA         -2.8776  -24.3764  -45.2819 C.3       12 UNK         0.1400 
     71 CB         -3.1444  -25.0031  -43.9064 C.3       12 UNK        -0.1800 
     72 C          -2.0770  -25.3515  -46.1723 C.2       12 UNK         0.5000 
     73 O          -2.6855  -26.1648  -46.8678 O.2       12 UNK        -0.5000 
     74 N          -0.7408  -25.2167  -46.1968 N.am      13 UNK        -0.5000 
     75 CA          0.1491  -25.9552  -47.0998 C.3       13 UNK         0.1400 
     76 CB          1.5978  -25.8235  -46.6069 C.3       13 UNK        -0.1800 
     77 C           0.0340  -25.4961  -48.5691 C.2       13 UNK         0.5000 
     78 O           0.3712  -26.2635  -49.4705 O.2       13 UNK        -0.5000 
     79 N          -0.4687  -24.2728  -48.7828 N.am      14 UNK        -0.5000 
     80 CA         -0.8131  -23.6973  -50.0829 C.3       14 UNK         0.1400 
     81 CB         -0.3184  -22.2401  -50.1254 C.3       14 UNK        -0.1800 
     82 C          -2.3316  -23.7836  -50.3441 C.2       14 UNK         0.5000 
     83 O          -2.8431  -23.0464  -51.1857 O.2       14 UNK        -0.5000 
     84 N          -3.0372  -24.6498  -49.5978 N.am      15 UNK        -0.5000 
     85 CA         -4.4782  -24.9169  -49.6616 C.3       15 UNK         0.1400 
     86 CB         -4.8204  -25.6585  -50.9693 C.3       15 UNK        -0.1800 
     87 C          -5.3471  -23.6598  -49.4350 C.2       15 UNK         0.5000 
     88 O          -6.3997  -23.5151  -50.0593 O.2       15 UNK        -0.5000 
     89 N          -4.8654  -22.7569  -48.5658 N.am      16 UNK        -0.5000 
     90 CA         -5.4287  -21.4390  -48.2522 C.3       16 UNK         0.1400 
     91 CB         -6.8006  -21.5720  -47.5594 C.3       16 UNK        -0.1800 
     92 C          -5.4540  -20.4858  -49.4674 C.2       16 UNK         0.5000 
     93 O          -6.3038  -19.5955  -49.5337 O.2       16 UNK        -0.5000 
     94 N          -4.5275  -20.7029  -50.4123 N.am      17 UNK        -0.5000 
     95 CA         -4.2751  -19.9826  -51.6626 C.3       17 UNK         0.1400 
     96 CB         -3.9793  -18.4948  -51.4090 C.3       17 UNK        -0.1800 
     97 C          -5.3692  -20.1460  -52.7299 C.2       17 UNK         0.5000 
     98 O          -5.0443  -20.3903  -53.8918 O.2       17 UNK        -0.5000 
     99 N          -6.6379  -20.0051  -52.3296 N.am      18 UNK        -0.5000 
    100 CA        -7.8141  -19.9867  -53.1986 C.3       18 UNK         0.1400 
    101 CB        -9.0558  -19.6611  -52.3551 C.3       18 UNK        -0.1800 
    102 C         -8.0261  -21.2850  -53.9962 C.2       18 UNK         0.5000 
    103 O         -8.3876  -21.2177  -55.1715 O.2       18 UNK        -0.5000 
    104 N         -7.7880  -22.4371  -53.3548 N.am      19 UNK        -0.5000 
    105 CA        -7.9252  -23.7531  -53.9817 C.3       19 UNK         0.1400 
    106 CB        -8.1568  -24.8118  -52.8957 C.3       19 UNK        -0.1800 
    107 C         -6.7171  -24.1221  -54.8627 C.2       19 UNK         0.5000 
    108 O         -6.8826  -24.8707  -55.8267 O.2       19 UNK        -0.5000 
    109 N         -5.5316  -23.5931  -54.5288 N.am      20 UNK        -0.5000 
    110 CA        -4.3025  -23.7806  -55.3018 C.3       20 UNK         0.1400 
    111 CB        -3.0880  -23.5403  -54.3930 C.3       20 UNK        -0.1800 
    112 C         -4.2352  -22.8599  -56.5328 C.2       20 UNK         0.5000 
    113 O         -3.6391  -23.2441  -57.5395 O.2       20 UNK        -0.5000 
    114 N         -4.8293  -21.6623  -56.4154 N.am      21 UNK        -0.5000 
    115 CA        -4.7994  -20.5508  -57.3711 C.3       21 UNK         0.1400 
    116 CB        -5.5189  -20.9230  -58.6843 C.3       21 UNK        -0.1800 
    117 C         -3.3700  -20.0062  -57.5837 C.2       21 UNK         0.5000 
    118 O         -3.0023  -19.6374  -58.7008 O.2       21 UNK        -0.5000 
    119 N         -2.5848  -19.9828  -56.4987 N.am      22 UNK        -0.5000 
    120 CA        -1.1758  -19.5576  -56.4763 C.3       22 UNK         0.1400 
    121 C         -0.9447  -18.0171  -56.5196 C.2       22 UNK         0.5000 
    122 N         -1.9710  -17.1838  -56.3987 N.am      22 UNK        -0.7600 
    123 O          0.1880  -17.5708  -56.6798 O.2       22 UNK        -0.5000 
    124 C124       -0.3999  -20.2378  -55.3172 C.3       23 UNK        -0.0398 
    125 S125       -1.0711  -19.8547  -53.6620 S.3       23 UNK        -0.2404 
    126 C126        0.2108  -18.7424  -53.0089 C.3       23 UNK        -0.0205 
    127 H127        1.2211   -9.0123  -54.1909 H         1 UNK         0.0600 
    128 H128       -0.1694   -9.3344  -53.1512 H         1 UNK         0.0600 
    129 H129        1.0248   -8.1234  -52.6763 H         1 UNK         0.0600 
    130 H130        0.0407  -11.2095  -51.9581 H         1 UNK         0.3000 
    131 H131        2.5736  -12.5531  -51.6030 H         1 UNK         0.0600 
    132 H132        0.6506  -13.9180  -52.0492 H         1 UNK         0.0800 
    133 H133        1.2056  -14.2958  -50.4475 H         1 UNK         0.0800 
    134 H134       -1.9285  -14.2713  -52.3091 H         1 UNK         0.0800 
    135 H135       -2.9315  -14.4640  -50.8920 H         1 UNK         0.0800 
    136 H136       -0.8772  -16.2544  -53.0672 H         1 UNK         0.1150 
    137 H137        0.1387  -19.4200  -50.3637 H         1 UNK         0.1150 
    138 H138       -1.6823  -15.8337  -48.8772 H         1 UNK         0.1150 
    139 H139        0.1648  -18.8715  -47.9353 H         1 UNK         0.0800 
    140 H140       -0.6134  -17.4154  -47.3470 H         1 UNK         0.0800 
    141 H141       -1.2802  -18.8696  -45.4631 H         1 UNK         0.0800 
    142 H142       -2.7713  -19.7537  -45.3711 H         1 UNK         0.0800 
    143 H143       -0.2838  -20.9953  -46.6333 H         1 UNK         0.0600 
    144 H144       -0.4156  -20.3427  -43.9174 H         1 UNK         0.3000 
    145 H145        1.2579  -23.1008  -42.5207 H         1 UNK         0.0600 
    146 H146        2.9352  -21.4868  -41.7361 H         1 UNK         0.0600 
    147 H147        3.1897  -21.7883  -43.4477 H         1 UNK         0.0600 
    148 H148        2.4162  -20.2967  -42.9255 H         1 UNK         0.0600 
    149 H149        0.6115  -20.7327  -41.2341 H         1 UNK         0.3000 
    150 H150       -2.1134  -20.1448  -40.8812 H         1 UNK         0.0600 
    151 H151       -3.7959  -21.9482  -40.8790 H         1 UNK         0.0600 
    152 H152       -3.6324  -21.2958  -39.2574 H         1 UNK         0.0600 
    153 H153       -2.8974  -22.8462  -39.6642 H         1 UNK         0.0600 
    154 H154       -0.8604  -19.8286  -39.1063 H         1 UNK         0.3000 
    155 H155        0.1041  -21.1522  -36.5378 H         1 UNK         0.0600 
    156 H156        2.5950  -21.4917  -36.5463 H         1 UNK         0.0600 
    157 H157        2.5165  -21.9743  -38.2404 H         1 UNK         0.0600 
    158 H158        1.7247  -22.9441  -37.0069 H         1 UNK         0.0600 
    159 H159        0.6490  -19.0571  -36.9477 H         1 UNK         0.3000 
    160 H160        1.1312  -17.1939  -37.8814 H         1 UNK         0.0600 
    161 H161        3.7360  -17.5424  -39.4566 H         1 UNK         0.0600 
    162 H162        3.5757  -17.4427  -37.7101 H         1 UNK         0.0600 
    163 H163        3.2044  -16.0393  -38.7018 H         1 UNK         0.0600 
    164 H164        1.6693  -16.6309  -40.6307 H         1 UNK         0.3000 
    165 H165       -1.5425  -17.1614  -41.9637 H         1 UNK         0.0600 
    166 H166       -0.6166  -14.4462  -40.8870 H         1 UNK         0.0600 
    167 H167       -1.7120  -14.6821  -42.2487 H         1 UNK         0.0600 
    168 H168       -2.1941  -15.1814  -40.6340 H         1 UNK         0.0600 
    169 H169        0.7378  -15.5089  -42.6879 H         1 UNK         0.3000 
    170 H170        2.7709  -18.0454  -43.8500 H         1 UNK         0.0600 
    171 H171        1.2407  -18.3530  -45.7960 H         1 UNK         0.0600 
    172 H172        1.0422  -16.6022  -45.9198 H         1 UNK         0.0600 
    173 H173        2.6141  -17.3428  -46.2145 H         1 UNK         0.0600 
    174 H174        2.6515  -15.2931  -44.6441 H         1 UNK         0.3000 
    175 H175        3.8026  -13.8306  -41.6749 H         1 UNK         0.0600 
    176 H176        5.5865  -14.4472  -44.0930 H         1 UNK         0.0600 
    177 H177        5.8392  -13.1564  -42.9170 H         1 UNK         0.0600 
    178 H178        5.9740  -14.8351  -42.4208 H         1 UNK         0.0600 
    179 H179        3.7818  -12.7184  -44.2399 H         1 UNK         0.3000 
    180 H180        0.4301  -12.2479  -44.9136 H         1 UNK         0.0600 
    181 H181        0.4447  -10.6502  -42.9969 H         1 UNK         0.0600 
    182 H182        2.0598  -10.1090  -43.4378 H         1 UNK         0.0600 
    183 H183        0.6968   -9.8093  -44.5175 H         1 UNK         0.0600 
    184 H184        2.7745  -10.7828  -45.6923 H         1 UNK         0.3000 
    185 H185        3.7055  -11.0723  -47.6587 H         1 UNK         0.0600 
    186 H186        5.2436  -12.6697  -46.5093 H         1 UNK         0.0600 
    187 H187        4.7162  -13.9684  -47.5722 H         1 UNK         0.0600 
    188 H188        5.5934  -12.5857  -48.2279 H         1 UNK         0.0600 
    189 H189        3.4399  -13.2363  -49.5365 H         1 UNK         0.3000 
    190 H190       -1.9119  -22.8485  -44.1723 H         1 UNK         0.3000 
    191 H191       -3.8398  -24.2034  -45.7686 H         1 UNK         0.0600 
    192 H192       -3.6696  -25.9540  -44.0046 H         1 UNK         0.0600 
    193 H193       -3.7635  -24.3517  -43.2892 H         1 UNK         0.0600 
    194 H194       -2.2163  -25.1939  -43.3660 H         1 UNK         0.0600 
    195 H195       -0.3040  -24.5006  -45.6249 H         1 UNK         0.3000 
    196 H196       -0.1271  -27.0111  -47.0613 H         1 UNK         0.0600 
    197 H197        2.2698  -26.4400  -47.2052 H         1 UNK         0.0600 
    198 H198        1.6952  -26.1473  -45.5705 H         1 UNK         0.0600 
    199 H199        1.9538  -24.7950  -46.6732 H         1 UNK         0.0600 
    200 H200       -0.7723  -23.7301  -47.9838 H         1 UNK         0.3000 
    201 H201       -0.3165  -24.2479  -50.8839 H         1 UNK         0.0600 
    202 H202        0.7495  -22.1785  -49.9166 H         1 UNK         0.0600 
    203 H203       -0.8393  -21.6149  -49.3994 H         1 UNK         0.0600 
    204 H204       -0.4807  -21.7997  -51.1102 H         1 UNK         0.0600 
    205 H205       -2.5373  -25.1837  -48.8990 H         1 UNK         0.3000 
    206 H206       -4.6981  -25.5909  -48.8326 H         1 UNK         0.0600 
    207 H207       -4.1477  -26.4999  -51.1350 H         1 UNK         0.0600 
    208 H208       -5.8321  -26.0618  -50.9310 H         1 UNK         0.0600 
    209 H209       -4.7546  -25.0010  -51.8369 H         1 UNK         0.0600 
    210 H210       -3.9527  -22.9299  -48.1528 H         1 UNK         0.3000 
    211 H211       -4.7448  -20.9859  -47.5337 H         1 UNK         0.0600 
    212 H212       -7.5658  -21.9450  -48.2405 H         1 UNK         0.0600 
    213 H213       -7.1426  -20.6073  -47.1829 H         1 UNK         0.0600 
    214 H214       -6.7477  -22.2505  -46.7080 H         1 UNK         0.0600 
    215 H215       -3.9302  -21.5139  -50.2919 H         1 UNK         0.3000 
    216 H216       -3.3713  -20.4369  -52.0666 H         1 UNK         0.0600 
    217 H217       -4.8656  -17.9456  -51.0910 H         1 UNK         0.0600 
    218 H218       -3.6024  -18.0149  -52.3130 H         1 UNK         0.0600 
    219 H219       -3.2221  -18.3772  -50.6368 H         1 UNK         0.0600 
    220 H220       -6.7878  -19.8072  -51.3436 H         1 UNK         0.3000 
    221 H221       -7.6724  -19.1799  -53.9205 H         1 UNK         0.0600 
    222 H222       -9.2234  -20.4107  -51.5805 H         1 UNK         0.0600 
    223 H223       -8.9568  -18.6916  -51.8663 H         1 UNK         0.0600 
    224 H224       -9.9521  -19.6219  -52.9755 H         1 UNK         0.0600 
    225 H225       -7.4918  -22.4132  -52.3883 H         1 UNK         0.3000 
    226 H226       -8.8073  -23.7453  -54.6259 H         1 UNK         0.0600 
    227 H227       -9.0646  -24.6038  -52.3292 H         1 UNK         0.0600 
    228 H228       -8.2642  -25.8059  -53.3315 H         1 UNK         0.0600 
    229 H229       -7.3267  -24.8476  -52.1936 H         1 UNK         0.0600 
    230 H230       -5.4825  -22.9709  -53.7355 H         1 UNK         0.3000 
    231 H231       -4.2583  -24.8129  -55.6556 H         1 UNK         0.0600 
    232 H232       -3.1017  -22.5427  -53.9518 H         1 UNK         0.0600 
    233 H233       -3.0581  -24.2670  -53.5817 H         1 UNK         0.0600 
    234 H234       -2.1546  -23.6394  -54.9486 H         1 UNK         0.0600 
    235 H235       -5.2147  -21.4223  -55.5066 H         1 UNK         0.3000 
    236 H236       -5.3647  -19.7415  -56.9068 H         1 UNK         0.0600 
    237 H237       -6.5210  -21.3045  -58.4883 H         1 UNK         0.0600 
    238 H238       -5.6247  -20.0512  -59.3308 H         1 UNK         0.0600 
    239 H239       -4.9745  -21.6814  -59.2471 H         1 UNK         0.0600 
    240 H240       -2.9723  -20.2746  -55.6119 H         1 UNK         0.3000 
    241 H241       -0.7248  -19.9288  -57.3986 H         1 UNK         0.0600 
    242 H242       -2.9036  -17.5385  -56.2643 H         1 UNK         0.3800 
    243 H243       -1.8114  -16.1897  -56.4388 H         1 UNK         0.3800 
    244 H244        0.6606  -19.9841  -55.3599 H         1 UNK         0.0800 
    245 H245       -0.4418  -21.3203  -55.4444 H         1 UNK         0.0800 
    246 H246        0.5568  -18.0724  -53.7975 H         1 UNK         0.0800 
    247 H247        1.0767  -19.3298  -52.6999 H         1 UNK         0.0800 
@<TRIPOS>BOND
     1    1    2 1    
     2    1  127 1    
     3    1  128 1    
     4    1  129 1    
     5    2    3 2    
     6    2    4 am   BACKBONE|DICT|INTERRES
     7    4    5 1    
     8    4  130 1    
     9    5    6 1    
    10    5   65 1    
    11    5  131 1    
    12    6    7 1    
    13    6  132 1    
    14    6  133 1    
    15    7    8 1    
    16    8    9 1    
    17    8  134 1    
    18    8  135 1    
    19    9   10 ar   
    20    9   14 ar   
    21   10   11 ar   
    22   10  136 1    
    23   11   12 ar   
    24   11  126 1    
    25   12   13 ar   
    26   12  137 1    
    27   13   14 ar   
    28   13   15 1    
    29   14  138 1    
    30   15   16 1    
    31   15  139 1    
    32   15  140 1    
    33   16   17 1    
    34   17   18 1    
    35   17  141 1    
    36   17  142 1    
    37   18   19 1    
    38   18   67 1    
    39   18  143 1    
    40   19   20 am   BACKBONE|DICT|INTERRES
    41   19  144 1    
    42   20   21 2    
    43   20   22 1    
    44   22   23 1    
    45   22   24 1    
    46   22  145 1    
    47   23  146 1    
    48   23  147 1    
    49   23  148 1    
    50   24   25 am   BACKBONE|DICT|INTERRES
    51   24  149 1    
    52   25   26 2    
    53   25   27 1    
    54   27   28 1    
    55   27   29 1    
    56   27  150 1    
    57   28  151 1    
    58   28  152 1    
    59   28  153 1    
    60   29   30 am   BACKBONE|DICT|INTERRES
    61   29  154 1    
    62   30   31 2    
    63   30   32 1    
    64   32   33 1    
    65   32   34 1    
    66   32  155 1    
    67   33  156 1    
    68   33  157 1    
    69   33  158 1    
    70   34   35 am   BACKBONE|DICT|INTERRES
    71   34  159 1    
    72   35   36 2    
    73   35   37 1    
    74   37   38 1    
    75   37   39 1    
    76   37  160 1    
    77   38  161 1    
    78   38  162 1    
    79   38  163 1    
    80   39   40 am   BACKBONE|DICT|INTERRES
    81   39  164 1    
    82   40   41 2    
    83   40   42 1    
    84   42   43 1    
    85   42   44 1    
    86   42  165 1    
    87   43  166 1    
    88   43  167 1    
    89   43  168 1    
    90   44   45 am   BACKBONE|DICT|INTERRES
    91   44  169 1    
    92   45   46 2    
    93   45   47 1    
    94   47   48 1    
    95   47   49 1    
    96   47  170 1    
    97   48  171 1    
    98   48  172 1    
    99   48  173 1    
   100   49   50 am   BACKBONE|DICT|INTERRES
   101   49  174 1    
   102   50   51 2    
   103   50   52 1    
   104   52   53 1    
   105   52   54 1    
   106   52  175 1    
   107   53  176 1    
   108   53  177 1    
   109   53  178 1    
   110   54   55 am   BACKBONE|DICT|INTERRES
   111   54  179 1    
   112   55   56 2    
   113   55   57 1    
   114   57   58 1    
   115   57   59 1    
   116   57  180 1    
   117   58  181 1    
   118   58  182 1    
   119   58  183 1    
   120   59   60 am   BACKBONE|DICT|INTERRES
   121   59  184 1    
   122   60   61 2    
   123   60   62 1    
   124   62   63 1    
   125   62   64 1    
   126   62  185 1    
   127   63  186 1    
   128   63  187 1    
   129   63  188 1    
   130   64   65 am   BACKBONE|DICT|INTERRES
   131   64  189 1    
   132   65   66 2    
   133   67   68 2    
   134   67   69 am   BACKBONE|DICT|INTERRES
   135   69   70 1    
   136   69  190 1    
   137   70   71 1    
   138   70   72 1    
   139   70  191 1    
   140   71  192 1    
   141   71  193 1    
   142   71  194 1    
   143   72   73 2    
   144   72   74 am   BACKBONE|DICT|INTERRES
   145   74   75 1    
   146   74  195 1    
   147   75   76 1    
   148   75   77 1    
   149   75  196 1    
   150   76  197 1    
   151   76  198 1    
   152   76  199 1    
   153   77   78 2    
   154   77   79 am   BACKBONE|DICT|INTERRES
   155   79   80 1    
   156   79  200 1    
   157   80   81 1    
   158   80   82 1    
   159   80  201 1    
   160   81  202 1    
   161   81  203 1    
   162   81  204 1    
   163   82   83 2    
   164   82   84 am   BACKBONE|DICT|INTERRES
   165   84   85 1    
   166   84  205 1    
   167   85   86 1    
   168   85   87 1    
   169   85  206 1    
   170   86  207 1    
   171   86  208 1    
   172   86  209 1    
   173   87   88 2    
   174   87   89 am   BACKBONE|DICT|INTERRES
   175   89   90 1    
   176   89  210 1    
   177   90   91 1    
   178   90   92 1    
   179   90  211 1    
   180   91  212 1    
   181   91  213 1    
   182   91  214 1    
   183   92   93 2    
   184   92   94 am   BACKBONE|DICT|INTERRES
   185   94   95 1    
   186   94  215 1    
   187   95   96 1    
   188   95   97 1    
   189   95  216 1    
   190   96  217 1    
   191   96  218 1    
   192   96  219 1    
   193   97   98 2    
   194   97   99 am   BACKBONE|DICT|INTERRES
   195   99  100 1    
   196   99  220 1    
   197  100  101 1    
   198  100  102 1    
   199  100  221 1    
   200  101  222 1    
   201  101  223 1    
   202  101  224 1    
   203  102  103 2    
   204  102  104 am   BACKBONE|DICT|INTERRES
   205  104  105 1    
   206  104  225 1    
   207  105  106 1    
   208  105  107 1    
   209  105  226 1    
   210  106  227 1    
   211  106  228 1    
   212  106  229 1    
   213  107  108 2    
   214  107  109 am   BACKBONE|DICT|INTERRES
   215  109  110 1    
   216  109  230 1    
   217  110  111 1    
   218  110  112 1    
   219  110  231 1    
   220  111  232 1    
   221  111  233 1    
   222  111  234 1    
   223  112  113 2    
   224  112  114 am   BACKBONE|DICT|INTERRES
   225  114  115 1    
   226  114  235 1    
   227  115  116 1    
   228  115  117 1    
   229  115  236 1    
   230  116  237 1    
   231  116  238 1    
   232  116  239 1    
   233  117  118 2    
   234  117  119 am   BACKBONE|DICT|INTERRES
   235  119  120 1    
   236  119  240 1    
   237  120  121 1    
   238  120  124 1    
   239  120  241 1    
   240  121  122 am   BACKBONE|DICT|INTERRES
   241  121  123 2    
   242  122  242 1    
   243  122  243 1    
   244  124  125 1    
   245  124  244 1    
   246  124  245 1    
   247  125  126 1    
   248  126  246 1    
   249  126  247 1    
@<TRIPOS>SUBSTRUCTURE
     1 UNK         1 GROUP             0       ****    0 ROOT    
