@<TRIPOS>MOLECULE
3R540
247   249    1
SMALL
USER_CHARGES


@<TRIPOS>ATOM
      1 CA          5.5039  -10.1241  -48.2895 C.3       0 UNK        -0.1800 
      2 C           4.4273  -11.1260  -47.8992 C.2       0 UNK         0.5000 
      3 O           3.9348  -11.0883  -46.7725 O.2       0 UNK        -0.5000 
      4 N           4.0564  -12.0233  -48.8209 N.am      1 UNK        -0.5000 
      5 CA          3.0043  -13.0280  -48.6342 C.3       1 UNK         0.1400 
      6 C6          2.9899  -14.0428  -49.8012 C.3       23 UNK        -0.0398 
      7 S7          2.1868  -15.6118  -49.3372 S.3       23 UNK        -0.2404 
      8 C8          0.7513  -15.6097  -50.4598 C.3       23 UNK        -0.0205 
      9 C9         -0.1589  -16.8014  -50.2074 C.ar      23 UNK        -0.0193 
     10 C10        -1.5105  -16.6130  -49.9040 C.ar      23 UNK        -0.1150 
     11 C11        -2.3447  -17.7110  -49.6713 C.ar      23 UNK        -0.0193 
     12 C12        -1.8072  -19.0008  -49.7025 C.ar      23 UNK        -0.1150 
     13 C13        -0.4567  -19.2007  -49.9953 C.ar      23 UNK        -0.0193 
     14 C14         0.3535  -18.0992  -50.2761 C.ar      23 UNK        -0.1150 
     15 C15         0.1412  -20.5967  -49.9758 C.3       23 UNK        -0.0205 
     16 S16         1.3253  -20.7498  -48.6053 S.3       23 UNK        -0.2404 
     17 C17         1.6476  -22.5389  -48.5714 C.3       23 UNK        -0.0398 
     18 CA          0.9085  -23.3020  -47.4455 C.3       11 UNK         0.1400 
     19 N           1.0674  -22.7108  -46.1119 N.am      11 UNK        -0.5000 
     20 C           0.8858  -23.4040  -44.9787 C.2       10 UNK         0.5000 
     21 O           0.5864  -24.5987  -44.9550 O.2       10 UNK        -0.5000 
     22 CA          1.0183  -22.6348  -43.6525 C.3       10 UNK         0.1400 
     23 CB          2.4875  -22.3120  -43.3413 C.3       10 UNK        -0.1800 
     24 N           0.2191  -21.4102  -43.6211 N.am      10 UNK        -0.5000 
     25 C          -1.1182  -21.3777  -43.7156 C.2       9 UNK         0.5000 
     26 O          -1.8181  -22.3806  -43.8433 O.2       9 UNK        -0.5000 
     27 CA         -1.7946  -19.9965  -43.6863 C.3       9 UNK         0.1400 
     28 CB         -2.0400  -19.5492  -42.2380 C.3       9 UNK        -0.1800 
     29 N          -1.0421  -18.9679  -44.4034 N.am      9 UNK        -0.5000 
     30 C          -0.7655  -19.0041  -45.7147 C.2       8 UNK         0.5000 
     31 O          -1.1335  -19.9115  -46.4594 O.2       8 UNK        -0.5000 
     32 CA          0.1007  -17.8577  -46.2700 C.3       8 UNK         0.1400 
     33 CB         -0.7317  -16.5826  -46.4704 C.3       8 UNK        -0.1800 
     34 N           1.2480  -17.5563  -45.4131 N.am      8 UNK        -0.5000 
     35 C           2.2442  -18.4126  -45.1430 C.2       7 UNK         0.5000 
     36 O           2.3411  -19.5406  -45.6247 O.2       7 UNK        -0.5000 
     37 CA          3.2770  -17.9455  -44.1052 C.3       7 UNK         0.1400 
     38 CB          4.2987  -16.9840  -44.7328 C.3       7 UNK        -0.1800 
     39 N           2.6318  -17.3099  -42.9558 N.am      7 UNK        -0.5000 
     40 C           1.8941  -17.9691  -42.0498 C.2       6 UNK         0.5000 
     41 O           1.7116  -19.1863  -42.0719 O.2       6 UNK        -0.5000 
     42 CA          1.2205  -17.1234  -40.9528 C.3       6 UNK         0.1400 
     43 CB          2.1808  -16.9039  -39.7745 C.3       6 UNK        -0.1800 
     44 N           0.7488  -15.8263  -41.4399 N.am      6 UNK        -0.5000 
     45 C          -0.2303  -15.6629  -42.3408 C.2       5 UNK         0.5000 
     46 O          -0.8602  -16.5925  -42.8402 O.2       5 UNK        -0.5000 
     47 CA         -0.5231  -14.2236  -42.7978 C.3       5 UNK         0.1400 
     48 CB         -1.5776  -13.5702  -41.8935 C.3       5 UNK        -0.1800 
     49 N           0.6682  -13.3749  -42.8425 N.am      5 UNK        -0.5000 
     50 C           1.7314  -13.5855  -43.6278 C.2       4 UNK         0.5000 
     51 O           1.8346  -14.5506  -44.3895 O.2       4 UNK        -0.5000 
     52 CA          2.8223  -12.4984  -43.5850 C.3       4 UNK         0.1400 
     53 CB          4.1696  -13.0070  -44.1265 C.3       4 UNK        -0.1800 
     54 N           2.3808  -11.3566  -44.3807 N.am      4 UNK        -0.5000 
     55 C           1.4602  -10.4586  -44.0003 C.2       3 UNK         0.5000 
     56 O           1.0697  -10.3293  -42.8390 O.2       3 UNK        -0.5000 
     57 CA          0.7801   -9.6645  -45.1318 C.3       3 UNK         0.1400 
     58 CB          1.6836   -8.5431  -45.6663 C.3       3 UNK        -0.1800 
     59 N           0.3983  -10.5683  -46.2202 N.am      3 UNK        -0.5000 
     60 C          -0.5561  -11.5061  -46.1230 C.2       2 UNK         0.5000 
     61 O          -1.3702  -11.5491  -45.2005 O.2       2 UNK        -0.5000 
     62 CA         -0.5707  -12.6320  -47.1761 C.3       2 UNK         0.1400 
     63 CB         -1.5184  -12.3160  -48.3488 C.3       2 UNK        -0.1800 
     64 N           0.7676  -13.0362  -47.6310 N.am      2 UNK        -0.5000 
     65 C           1.6205  -12.3719  -48.4221 C.2       1 UNK         0.5000 
     66 O           1.3685  -11.2827  -48.9428 O.2       1 UNK        -0.5000 
     67 C          -0.5672  -23.5887  -47.7871 C.2       11 UNK         0.5000 
     68 O          -0.8360  -24.6083  -48.4213 O.2       11 UNK        -0.5000 
     69 N          -1.5015  -22.7414  -47.3271 N.am      12 UNK        -0.5000 
     70 CA         -2.9426  -22.9680  -47.4696 C.3       12 UNK         0.1400 
     71 CB         -3.7239  -21.7244  -47.0238 C.3       12 UNK        -0.1800 
     72 C          -3.4361  -24.2173  -46.7159 C.2       12 UNK         0.5000 
     73 O          -4.3156  -24.9103  -47.2221 O.2       12 UNK        -0.5000 
     74 N          -2.8589  -24.4936  -45.5385 N.am      13 UNK        -0.5000 
     75 CA         -3.1332  -25.6942  -44.7490 C.3       13 UNK         0.1400 
     76 CB         -2.6488  -25.4809  -43.3068 C.3       13 UNK        -0.1800 
     77 C          -2.4975  -26.9621  -45.3489 C.2       13 UNK         0.5000 
     78 O          -3.0868  -28.0383  -45.2402 O.2       13 UNK        -0.5000 
     79 N          -1.3071  -26.8232  -45.9506 N.am      14 UNK        -0.5000 
     80 CA         -0.5850  -27.9122  -46.6111 C.3       14 UNK         0.1400 
     81 CB          0.8739  -27.4924  -46.8480 C.3       14 UNK        -0.1800 
     82 C          -1.2515  -28.3433  -47.9307 C.2       14 UNK         0.5000 
     83 O          -1.3886  -29.5415  -48.1833 O.2       14 UNK        -0.5000 
     84 N          -1.6541  -27.3584  -48.7419 N.am      15 UNK        -0.5000 
     85 CA         -2.4038  -27.5401  -49.9824 C.3       15 UNK         0.1400 
     86 CB         -2.1716  -26.3006  -50.8650 C.3       15 UNK        -0.1800 
     87 C          -3.9084  -27.7441  -49.7147 C.2       15 UNK         0.5000 
     88 O          -4.3658  -27.6687  -48.5727 O.2       15 UNK        -0.5000 
     89 N          -4.6783  -27.9488  -50.7903 N.am      16 UNK        -0.5000 
     90 CA         -6.1426  -27.9537  -50.7766 C.3       16 UNK         0.1400 
     91 CB         -6.6468  -28.7830  -51.9716 C.3       16 UNK        -0.1800 
     92 C          -6.6738  -26.5044  -50.7885 C.2       16 UNK         0.5000 
     93 O          -7.2201  -26.0560  -51.7966 O.2       16 UNK        -0.5000 
     94 N          -6.4199  -25.7757  -49.6909 N.am      17 UNK        -0.5000 
     95 CA         -6.7010  -24.3520  -49.4412 C.3       17 UNK         0.1400 
     96 CB         -8.1946  -24.0229  -49.6413 C.3       17 UNK        -0.1800 
     97 C          -5.7984  -23.3701  -50.2207 C.2       17 UNK         0.5000 
     98 O          -5.8579  -22.1689  -49.9555 O.2       17 UNK        -0.5000 
     99 N          -4.9835  -23.8830  -51.1548 N.am      18 UNK        -0.5000 
    100 CA        -4.1141  -23.1921  -52.1149 C.3       18 UNK         0.1400 
    101 CB        -3.0267  -22.3514  -51.4186 C.3       18 UNK        -0.1800 
    102 C         -4.9023  -22.3744  -53.1554 C.2       18 UNK         0.5000 
    103 O         -4.8233  -22.6813  -54.3453 O.2       18 UNK        -0.5000 
    104 N         -5.6627  -21.3787  -52.6813 N.am      19 UNK        -0.5000 
    105 CA        -6.6004  -20.4939  -53.3819 C.3       19 UNK         0.1400 
    106 CB        -7.7856  -21.2927  -53.9565 C.3       19 UNK        -0.1800 
    107 C         -5.9647  -19.5848  -54.4509 C.2       19 UNK         0.5000 
    108 O         -6.0622  -18.3631  -54.3416 O.2       19 UNK        -0.5000 
    109 N         -5.3216  -20.1835  -55.4602 N.am      20 UNK        -0.5000 
    110 CA        -4.6743  -19.4963  -56.5800 C.3       20 UNK         0.1400 
    111 CB        -4.2827  -20.5293  -57.6469 C.3       20 UNK        -0.1800 
    112 C         -3.4495  -18.6712  -56.1472 C.2       20 UNK         0.5000 
    113 O         -3.1988  -17.6059  -56.7123 O.2       20 UNK        -0.5000 
    114 N         -2.7350  -19.1592  -55.1235 N.am      21 UNK        -0.5000 
    115 CA        -1.5987  -18.4815  -54.4958 C.3       21 UNK         0.1400 
    116 CB        -0.8949  -19.4663  -53.5511 C.3       21 UNK        -0.1800 
    117 C         -2.0000  -17.2037  -53.7323 C.2       21 UNK         0.5000 
    118 O         -1.1632  -16.3177  -53.5573 O.2       21 UNK        -0.5000 
    119 N         -3.2680  -17.1292  -53.3074 N.am      22 UNK        -0.5000 
    120 CA        -3.8442  -16.0024  -52.5621 C.3       22 UNK         0.1400 
    121 C         -4.1944  -14.7635  -53.4386 C.2       22 UNK         0.5000 
    122 N         -4.0965  -14.8277  -54.7619 N.am      22 UNK        -0.7600 
    123 O         -4.5557  -13.7178  -52.9059 O.2       22 UNK        -0.5000 
    124 C124       -5.0583  -16.4259  -51.6895 C.3       23 UNK        -0.0398 
    125 S125       -4.8661  -17.9983  -50.7723 S.3       23 UNK        -0.2404 
    126 C126       -3.8207  -17.5169  -49.3606 C.3       23 UNK        -0.0205 
    127 H127        6.3610  -10.2172  -47.6227 H         1 UNK         0.0600 
    128 H128        5.1160   -9.1087  -48.2085 H         1 UNK         0.0600 
    129 H129        5.8490  -10.2769  -49.3123 H         1 UNK         0.0600 
    130 H130        4.4734  -11.9851  -49.7397 H         1 UNK         0.3000 
    131 H131        3.2617  -13.5653  -47.7180 H         1 UNK         0.0600 
    132 H132        2.5289  -13.6166  -50.6944 H         1 UNK         0.0800 
    133 H133        4.0123  -14.2948  -50.0866 H         1 UNK         0.0800 
    134 H134        0.2021  -14.6749  -50.3378 H         1 UNK         0.0800 
    135 H135        1.0950  -15.6408  -51.4947 H         1 UNK         0.0800 
    136 H136       -1.9138  -15.6122  -49.8505 H         1 UNK         0.1150 
    137 H137       -2.4422  -19.8476  -49.4892 H         1 UNK         0.1150 
    138 H138        1.3991  -18.2512  -50.5038 H         1 UNK         0.1150 
    139 H139       -0.6430  -21.3461  -49.8655 H         1 UNK         0.0800 
    140 H140        0.6431  -20.7971  -50.9233 H         1 UNK         0.0800 
    141 H141        1.4339  -22.9757  -49.5488 H         1 UNK         0.0800 
    142 H142        2.7221  -22.6614  -48.4303 H         1 UNK         0.0800 
    143 H143        1.3887  -24.2819  -47.4054 H         1 UNK         0.0600 
    144 H144        1.2841  -21.7217  -46.0717 H         1 UNK         0.3000 
    145 H145        0.6462  -23.2865  -42.8592 H         1 UNK         0.0600 
    146 H146        2.5895  -21.8514  -42.3586 H         1 UNK         0.0600 
    147 H147        3.0939  -23.2185  -43.3395 H         1 UNK         0.0600 
    148 H148        2.9184  -21.6311  -44.0752 H         1 UNK         0.0600 
    149 H149        0.7204  -20.5403  -43.4857 H         1 UNK         0.3000 
    150 H150       -2.7650  -20.0935  -44.1762 H         1 UNK         0.0600 
    151 H151       -2.6084  -20.3000  -41.6877 H         1 UNK         0.0600 
    152 H152       -2.6108  -18.6212  -42.2030 H         1 UNK         0.0600 
    153 H153       -1.1037  -19.3886  -41.7034 H         1 UNK         0.0600 
    154 H154       -0.7583  -18.1554  -43.8618 H         1 UNK         0.3000 
    155 H155        0.4794  -18.1712  -47.2445 H         1 UNK         0.0600 
    156 H156       -1.0199  -16.1307  -45.5219 H         1 UNK         0.0600 
    157 H157       -1.6485  -16.7958  -47.0198 H         1 UNK         0.0600 
    158 H158       -0.1740  -15.8430  -47.0436 H         1 UNK         0.0600 
    159 H159        1.2645  -16.6459  -44.9705 H         1 UNK         0.3000 
    160 H160        3.8167  -18.8257  -43.7487 H         1 UNK         0.0600 
    161 H161        3.8239  -16.0922  -45.1418 H         1 UNK         0.0600 
    162 H162        4.8341  -17.4693  -45.5497 H         1 UNK         0.0600 
    163 H163        5.0414  -16.6638  -44.0021 H         1 UNK         0.0600 
    164 H164        2.6830  -16.3029  -42.9053 H         1 UNK         0.3000 
    165 H165        0.3555  -17.6809  -40.5879 H         1 UNK         0.0600 
    166 H166        1.6888  -16.3752  -38.9579 H         1 UNK         0.0600 
    167 H167        2.5340  -17.8565  -39.3771 H         1 UNK         0.0600 
    168 H168        3.0574  -16.3260  -40.0700 H         1 UNK         0.0600 
    169 H169        1.2140  -15.0051  -41.0823 H         1 UNK         0.3000 
    170 H170       -0.9289  -14.2754  -43.8102 H         1 UNK         0.0600 
    171 H171       -2.4874  -14.1709  -41.8573 H         1 UNK         0.0600 
    172 H172       -1.2171  -13.4557  -40.8705 H         1 UNK         0.0600 
    173 H173       -1.8555  -12.5835  -42.2653 H         1 UNK         0.0600 
    174 H174        0.6343  -12.5168  -42.3066 H         1 UNK         0.3000 
    175 H175        2.9672  -12.1882  -42.5481 H         1 UNK         0.0600 
    176 H176        4.0934  -13.3354  -45.1639 H         1 UNK         0.0600 
    177 H177        4.9308  -12.2281  -44.0806 H         1 UNK         0.0600 
    178 H178        4.5312  -13.8528  -43.5407 H         1 UNK         0.0600 
    179 H179        2.7063  -11.3417  -45.3438 H         1 UNK         0.3000 
    180 H180       -0.1255   -9.2071  -44.7279 H         1 UNK         0.0600 
    181 H181        2.6045   -8.9303  -46.1009 H         1 UNK         0.0600 
    182 H182        1.9626   -7.8558  -44.8669 H         1 UNK         0.0600 
    183 H183        1.1730   -7.9601  -46.4329 H         1 UNK         0.0600 
    184 H184        0.9993  -10.5920  -47.0361 H         1 UNK         0.3000 
    185 H185       -0.9748  -13.5101  -46.6702 H         1 UNK         0.0600 
    186 H186       -2.5385  -12.1721  -47.9909 H         1 UNK         0.0600 
    187 H187       -1.2319  -11.4062  -48.8764 H         1 UNK         0.0600 
    188 H188       -1.5396  -13.1324  -49.0704 H         1 UNK         0.0600 
    189 H189        1.0925  -13.9088  -47.2369 H         1 UNK         0.3000 
    190 H190       -1.2171  -21.8866  -46.8568 H         1 UNK         0.3000 
    191 H191       -3.1491  -23.1279  -48.5286 H         1 UNK         0.0600 
    192 H192       -3.5478  -21.4960  -45.9731 H         1 UNK         0.0600 
    193 H193       -4.7968  -21.8708  -47.1546 H         1 UNK         0.0600 
    194 H194       -3.4452  -20.8498  -47.6100 H         1 UNK         0.0600 
    195 H195       -2.2052  -23.8265  -45.1397 H         1 UNK         0.3000 
    196 H196       -4.2141  -25.8475  -44.7214 H         1 UNK         0.0600 
    197 H197       -2.8430  -26.3616  -42.6935 H         1 UNK         0.0600 
    198 H198       -3.1624  -24.6403  -42.8399 H         1 UNK         0.0600 
    199 H199       -1.5773  -25.2813  -43.2677 H         1 UNK         0.0600 
    200 H200       -0.8599  -25.9147  -45.9400 H         1 UNK         0.3000 
    201 H201       -0.5814  -28.7738  -45.9402 H         1 UNK         0.0600 
    202 H202        1.3635  -27.2194  -45.9131 H         1 UNK         0.0600 
    203 H203        0.9434  -26.6407  -47.5244 H         1 UNK         0.0600 
    204 H204        1.4465  -28.3087  -47.2899 H         1 UNK         0.0600 
    205 H205       -1.4897  -26.3958  -48.4599 H         1 UNK         0.3000 
    206 H206       -2.0254  -28.4209  -50.5050 H         1 UNK         0.0600 
    207 H207       -1.1076  -26.1237  -51.0236 H         1 UNK         0.0600 
    208 H208       -2.6276  -26.4136  -51.8488 H         1 UNK         0.0600 
    209 H209       -2.5906  -25.4045  -50.4061 H         1 UNK         0.0600 
    210 H210       -4.2436  -27.9965  -51.7006 H         1 UNK         0.3000 
    211 H211       -6.5019  -28.4339  -49.8638 H         1 UNK         0.0600 
    212 H212       -6.3082  -28.3717  -52.9234 H         1 UNK         0.0600 
    213 H213       -7.7369  -28.8113  -51.9942 H         1 UNK         0.0600 
    214 H214       -6.2975  -29.8138  -51.9096 H         1 UNK         0.0600 
    215 H215       -5.8834  -26.2300  -48.9567 H         1 UNK         0.3000 
    216 H216       -6.4833  -24.1868  -48.3864 H         1 UNK         0.0600 
    217 H217       -8.4209  -23.0184  -49.2817 H         1 UNK         0.0600 
    218 H218       -8.8302  -24.7149  -49.0889 H         1 UNK         0.0600 
    219 H219       -8.4860  -24.0599  -50.6911 H         1 UNK         0.0600 
    220 H220       -5.0710  -24.8767  -51.3072 H         1 UNK         0.3000 
    221 H221       -3.6010  -23.9820  -52.6658 H         1 UNK         0.0600 
    222 H222       -3.4463  -21.5410  -50.8231 H         1 UNK         0.0600 
    223 H223       -2.4120  -22.9681  -50.7639 H         1 UNK         0.0600 
    224 H224       -2.3579  -21.9037  -52.1533 H         1 UNK         0.0600 
    225 H225       -5.6556  -21.2699  -51.6704 H         1 UNK         0.3000 
    226 H226       -7.0013  -19.8315  -52.6129 H         1 UNK         0.0600 
    227 H227       -8.2989  -21.8497  -53.1724 H         1 UNK         0.0600 
    228 H228       -8.5180  -20.6272  -54.4152 H         1 UNK         0.0600 
    229 H229       -7.4697  -22.0052  -54.7189 H         1 UNK         0.0600 
    230 H230       -5.2298  -21.1953  -55.4170 H         1 UNK         0.3000 
    231 H231       -5.3996  -18.8077  -57.0184 H         1 UNK         0.0600 
    232 H232       -3.8106  -20.0470  -58.5038 H         1 UNK         0.0600 
    233 H233       -5.1577  -21.0642  -58.0168 H         1 UNK         0.0600 
    234 H234       -3.5804  -21.2662  -57.2549 H         1 UNK         0.0600 
    235 H235       -3.0194  -20.0402  -54.7221 H         1 UNK         0.3000 
    236 H236       -0.8969  -18.1943  -55.2816 H         1 UNK         0.0600 
    237 H237       -0.5894  -20.3732  -54.0729 H         1 UNK         0.0600 
    238 H238        0.0032  -19.0188  -53.1238 H         1 UNK         0.0600 
    239 H239       -1.5423  -19.7521  -52.7220 H         1 UNK         0.0600 
    240 H240       -3.9063  -17.8819  -53.5220 H         1 UNK         0.3000 
    241 H241       -3.0744  -15.6459  -51.8799 H         1 UNK         0.0600 
    242 H242       -4.3225  -14.0174  -55.3169 H         1 UNK         0.3800 
    243 H243       -3.7986  -15.6796  -55.2143 H         1 UNK         0.3800 
    244 H244       -5.3056  -15.6359  -50.9787 H         1 UNK         0.0800 
    245 H245       -5.9417  -16.5405  -52.3198 H         1 UNK         0.0800 
    246 H246       -4.0301  -16.4875  -49.0666 H         1 UNK         0.0800 
    247 H247       -4.0846  -18.1379  -48.5032 H         1 UNK         0.0800 
@<TRIPOS>BOND
     1    1    2 1    
     2    1  127 1    
     3    1  128 1    
     4    1  129 1    
     5    2    3 2    
     6    2    4 am   BACKBONE|DICT|INTERRES
     7    4    5 1    
     8    4  130 1    
     9    5    6 1    
    10    5   65 1    
    11    5  131 1    
    12    6    7 1    
    13    6  132 1    
    14    6  133 1    
    15    7    8 1    
    16    8    9 1    
    17    8  134 1    
    18    8  135 1    
    19    9   10 ar   
    20    9   14 ar   
    21   10   11 ar   
    22   10  136 1    
    23   11   12 ar   
    24   11  126 1    
    25   12   13 ar   
    26   12  137 1    
    27   13   14 ar   
    28   13   15 1    
    29   14  138 1    
    30   15   16 1    
    31   15  139 1    
    32   15  140 1    
    33   16   17 1    
    34   17   18 1    
    35   17  141 1    
    36   17  142 1    
    37   18   19 1    
    38   18   67 1    
    39   18  143 1    
    40   19   20 am   BACKBONE|DICT|INTERRES
    41   19  144 1    
    42   20   21 2    
    43   20   22 1    
    44   22   23 1    
    45   22   24 1    
    46   22  145 1    
    47   23  146 1    
    48   23  147 1    
    49   23  148 1    
    50   24   25 am   BACKBONE|DICT|INTERRES
    51   24  149 1    
    52   25   26 2    
    53   25   27 1    
    54   27   28 1    
    55   27   29 1    
    56   27  150 1    
    57   28  151 1    
    58   28  152 1    
    59   28  153 1    
    60   29   30 am   BACKBONE|DICT|INTERRES
    61   29  154 1    
    62   30   31 2    
    63   30   32 1    
    64   32   33 1    
    65   32   34 1    
    66   32  155 1    
    67   33  156 1    
    68   33  157 1    
    69   33  158 1    
    70   34   35 am   BACKBONE|DICT|INTERRES
    71   34  159 1    
    72   35   36 2    
    73   35   37 1    
    74   37   38 1    
    75   37   39 1    
    76   37  160 1    
    77   38  161 1    
    78   38  162 1    
    79   38  163 1    
    80   39   40 am   BACKBONE|DICT|INTERRES
    81   39  164 1    
    82   40   41 2    
    83   40   42 1    
    84   42   43 1    
    85   42   44 1    
    86   42  165 1    
    87   43  166 1    
    88   43  167 1    
    89   43  168 1    
    90   44   45 am   BACKBONE|DICT|INTERRES
    91   44  169 1    
    92   45   46 2    
    93   45   47 1    
    94   47   48 1    
    95   47   49 1    
    96   47  170 1    
    97   48  171 1    
    98   48  172 1    
    99   48  173 1    
   100   49   50 am   BACKBONE|DICT|INTERRES
   101   49  174 1    
   102   50   51 2    
   103   50   52 1    
   104   52   53 1    
   105   52   54 1    
   106   52  175 1    
   107   53  176 1    
   108   53  177 1    
   109   53  178 1    
   110   54   55 am   BACKBONE|DICT|INTERRES
   111   54  179 1    
   112   55   56 2    
   113   55   57 1    
   114   57   58 1    
   115   57   59 1    
   116   57  180 1    
   117   58  181 1    
   118   58  182 1    
   119   58  183 1    
   120   59   60 am   BACKBONE|DICT|INTERRES
   121   59  184 1    
   122   60   61 2    
   123   60   62 1    
   124   62   63 1    
   125   62   64 1    
   126   62  185 1    
   127   63  186 1    
   128   63  187 1    
   129   63  188 1    
   130   64   65 am   BACKBONE|DICT|INTERRES
   131   64  189 1    
   132   65   66 2    
   133   67   68 2    
   134   67   69 am   BACKBONE|DICT|INTERRES
   135   69   70 1    
   136   69  190 1    
   137   70   71 1    
   138   70   72 1    
   139   70  191 1    
   140   71  192 1    
   141   71  193 1    
   142   71  194 1    
   143   72   73 2    
   144   72   74 am   BACKBONE|DICT|INTERRES
   145   74   75 1    
   146   74  195 1    
   147   75   76 1    
   148   75   77 1    
   149   75  196 1    
   150   76  197 1    
   151   76  198 1    
   152   76  199 1    
   153   77   78 2    
   154   77   79 am   BACKBONE|DICT|INTERRES
   155   79   80 1    
   156   79  200 1    
   157   80   81 1    
   158   80   82 1    
   159   80  201 1    
   160   81  202 1    
   161   81  203 1    
   162   81  204 1    
   163   82   83 2    
   164   82   84 am   BACKBONE|DICT|INTERRES
   165   84   85 1    
   166   84  205 1    
   167   85   86 1    
   168   85   87 1    
   169   85  206 1    
   170   86  207 1    
   171   86  208 1    
   172   86  209 1    
   173   87   88 2    
   174   87   89 am   BACKBONE|DICT|INTERRES
   175   89   90 1    
   176   89  210 1    
   177   90   91 1    
   178   90   92 1    
   179   90  211 1    
   180   91  212 1    
   181   91  213 1    
   182   91  214 1    
   183   92   93 2    
   184   92   94 am   BACKBONE|DICT|INTERRES
   185   94   95 1    
   186   94  215 1    
   187   95   96 1    
   188   95   97 1    
   189   95  216 1    
   190   96  217 1    
   191   96  218 1    
   192   96  219 1    
   193   97   98 2    
   194   97   99 am   BACKBONE|DICT|INTERRES
   195   99  100 1    
   196   99  220 1    
   197  100  101 1    
   198  100  102 1    
   199  100  221 1    
   200  101  222 1    
   201  101  223 1    
   202  101  224 1    
   203  102  103 2    
   204  102  104 am   BACKBONE|DICT|INTERRES
   205  104  105 1    
   206  104  225 1    
   207  105  106 1    
   208  105  107 1    
   209  105  226 1    
   210  106  227 1    
   211  106  228 1    
   212  106  229 1    
   213  107  108 2    
   214  107  109 am   BACKBONE|DICT|INTERRES
   215  109  110 1    
   216  109  230 1    
   217  110  111 1    
   218  110  112 1    
   219  110  231 1    
   220  111  232 1    
   221  111  233 1    
   222  111  234 1    
   223  112  113 2    
   224  112  114 am   BACKBONE|DICT|INTERRES
   225  114  115 1    
   226  114  235 1    
   227  115  116 1    
   228  115  117 1    
   229  115  236 1    
   230  116  237 1    
   231  116  238 1    
   232  116  239 1    
   233  117  118 2    
   234  117  119 am   BACKBONE|DICT|INTERRES
   235  119  120 1    
   236  119  240 1    
   237  120  121 1    
   238  120  124 1    
   239  120  241 1    
   240  121  122 am   BACKBONE|DICT|INTERRES
   241  121  123 2    
   242  122  242 1    
   243  122  243 1    
   244  124  125 1    
   245  124  244 1    
   246  124  245 1    
   247  125  126 1    
   248  126  246 1    
   249  126  247 1    
@<TRIPOS>SUBSTRUCTURE
     1 UNK         1 GROUP             0       ****    0 ROOT    
