@<TRIPOS>MOLECULE
3R540
247   249    1
SMALL
USER_CHARGES


@<TRIPOS>ATOM
      1 CA         -3.7617  -11.3590  -50.0179 C.3       0 UNK        -0.1800 
      2 C          -2.9141  -12.6132  -49.8630 C.2       0 UNK         0.5000 
      3 O          -3.4236  -13.7201  -50.0369 O.2       0 UNK        -0.5000 
      4 N          -1.6272  -12.4436  -49.5277 N.am      1 UNK        -0.5000 
      5 CA         -0.6142  -13.4839  -49.3039 C.3       1 UNK         0.1400 
      6 C6         -0.4030  -14.4142  -50.5277 C.3       23 UNK        -0.0398 
      7 S7          1.1326  -15.3998  -50.4475 S.3       23 UNK        -0.2404 
      8 C8          0.4930  -17.0028  -49.8598 C.3       23 UNK        -0.0205 
      9 C9          1.2962  -18.1710  -50.4081 C.ar      23 UNK        -0.0193 
     10 C10         1.3062  -18.4172  -51.7828 C.ar      23 UNK        -0.1150 
     11 C11         2.0044  -19.5041  -52.3098 C.ar      23 UNK        -0.0193 
     12 C12         2.6946  -20.3590  -51.4465 C.ar      23 UNK        -0.1150 
     13 C13         2.6942  -20.1260  -50.0665 C.ar      23 UNK        -0.0193 
     14 C14         1.9994  -19.0249  -49.5528 C.ar      23 UNK        -0.1150 
     15 C15         3.4569  -21.0615  -49.1403 C.3       23 UNK        -0.0205 
     16 S16         2.4253  -22.4543  -48.5827 S.3       23 UNK        -0.2404 
     17 C17         1.6364  -21.7336  -47.1061 C.3       23 UNK        -0.0398 
     18 CA          0.6184  -22.6934  -46.4434 C.3       11 UNK         0.1400 
     19 N           0.4208  -22.3967  -45.0211 N.am      11 UNK        -0.5000 
     20 C          -0.3126  -23.1381  -44.1768 C.2       10 UNK         0.5000 
     21 O          -0.8511  -24.1990  -44.4892 O.2       10 UNK        -0.5000 
     22 CA         -0.5350  -22.5717  -42.7633 C.3       10 UNK         0.1400 
     23 CB          0.6708  -22.8595  -41.8572 C.3       10 UNK        -0.1800 
     24 N          -0.8160  -21.1360  -42.7805 N.am      10 UNK        -0.5000 
     25 C          -1.8964  -20.5824  -43.3502 C.2       9 UNK         0.5000 
     26 O          -2.8115  -21.2369  -43.8500 O.2       9 UNK        -0.5000 
     27 CA         -1.9344  -19.0438  -43.4189 C.3       9 UNK         0.1400 
     28 CB         -2.4218  -18.4480  -42.0900 C.3       9 UNK        -0.1800 
     29 N          -0.6336  -18.4722  -43.7709 N.am      9 UNK        -0.5000 
     30 C          -0.0152  -18.6575  -44.9457 C.2       8 UNK         0.5000 
     31 O          -0.5037  -19.2822  -45.8861 O.2       8 UNK        -0.5000 
     32 CA          1.4154  -18.1077  -45.0735 C.3       8 UNK         0.1400 
     33 CB          1.4107  -16.6296  -45.4850 C.3       8 UNK        -0.1800 
     34 N           2.1741  -18.2794  -43.8352 N.am      8 UNK        -0.5000 
     35 C           2.6080  -19.4639  -43.3814 C.2       7 UNK         0.5000 
     36 O           2.4454  -20.5237  -43.9847 O.2       7 UNK        -0.5000 
     37 CA          3.2996  -19.4710  -42.0056 C.3       7 UNK         0.1400 
     38 CB          4.7879  -19.1195  -42.1473 C.3       7 UNK        -0.1800 
     39 N           2.6718  -18.5482  -41.0594 N.am      7 UNK        -0.5000 
     40 C           1.4307  -18.6888  -40.5714 C.2       6 UNK         0.5000 
     41 O           0.7078  -19.6527  -40.8176 O.2       6 UNK        -0.5000 
     42 CA          0.8882  -17.5307  -39.7112 C.3       6 UNK         0.1400 
     43 CB          1.2249  -17.7549  -38.2298 C.3       6 UNK        -0.1800 
     44 N           1.3944  -16.2210  -40.1336 N.am      6 UNK        -0.5000 
     45 C           1.1582  -15.6687  -41.3306 C.2       5 UNK         0.5000 
     46 O           0.4529  -16.1891  -42.1983 O.2       5 UNK        -0.5000 
     47 CA          1.8997  -14.3628  -41.6328 C.3       5 UNK         0.1400 
     48 CB          3.3680  -14.6609  -41.9987 C.3       5 UNK        -0.1800 
     49 N           1.2402  -13.6747  -42.7379 N.am      5 UNK        -0.5000 
     50 C           1.4262  -12.3904  -43.0627 C.2       4 UNK         0.5000 
     51 O           2.1635  -11.6290  -42.4344 O.2       4 UNK        -0.5000 
     52 CA          0.6798  -11.8556  -44.2986 C.3       4 UNK         0.1400 
     53 CB          1.5858  -11.9346  -45.5368 C.3       4 UNK        -0.1800 
     54 N          -0.5917  -12.5312  -44.5768 N.am      4 UNK        -0.5000 
     55 C          -1.6973  -12.3809  -43.8297 C.2       3 UNK         0.5000 
     56 O          -1.7142  -11.7426  -42.7762 O.2       3 UNK        -0.5000 
     57 CA         -3.0184  -12.9919  -44.3428 C.3       3 UNK         0.1400 
     58 CB         -4.0163  -11.8804  -44.7081 C.3       3 UNK        -0.1800 
     59 N          -2.8501  -13.8528  -45.5119 N.am      3 UNK        -0.5000 
     60 C          -2.5356  -15.1525  -45.4658 C.2       2 UNK         0.5000 
     61 O          -2.3723  -15.7757  -44.4196 O.2       2 UNK        -0.5000 
     62 CA         -2.3665  -15.8748  -46.8175 C.3       2 UNK         0.1400 
     63 CB         -3.6621  -16.6043  -47.1989 C.3       2 UNK        -0.1800 
     64 N          -1.9829  -14.9983  -47.9283 N.am      2 UNK        -0.5000 
     65 C          -0.8656  -14.2643  -47.9978 C.2       1 UNK         0.5000 
     66 O          -0.0649  -14.1644  -47.0706 O.2       1 UNK        -0.5000 
     67 C          -0.7205  -22.7172  -47.2084 C.2       11 UNK         0.5000 
     68 O          -0.9894  -23.6799  -47.9248 O.2       11 UNK        -0.5000 
     69 N          -1.5564  -21.6904  -46.9947 N.am      12 UNK        -0.5000 
     70 CA         -2.9051  -21.5682  -47.5484 C.3       12 UNK         0.1400 
     71 CB         -3.5047  -20.2158  -47.1455 C.3       12 UNK        -0.1800 
     72 C          -3.8331  -22.7328  -47.1701 C.2       12 UNK         0.5000 
     73 O          -4.5416  -23.2421  -48.0375 O.2       12 UNK        -0.5000 
     74 N          -3.7819  -23.1593  -45.9025 N.am      13 UNK        -0.5000 
     75 CA         -4.5142  -24.3197  -45.3996 C.3       13 UNK         0.1400 
     76 CB         -4.4424  -24.3408  -43.8649 C.3       13 UNK        -0.1800 
     77 C          -4.0103  -25.6508  -45.9918 C.2       13 UNK         0.5000 
     78 O          -4.8269  -26.4982  -46.3549 O.2       13 UNK        -0.5000 
     79 N          -2.6831  -25.8154  -46.0685 N.am      14 UNK        -0.5000 
     80 CA         -2.0258  -27.0402  -46.5215 C.3       14 UNK         0.1400 
     81 CB         -0.5636  -27.0400  -46.0475 C.3       14 UNK        -0.1800 
     82 C          -2.0988  -27.2497  -48.0437 C.2       14 UNK         0.5000 
     83 O          -2.4758  -28.3351  -48.4880 O.2       14 UNK        -0.5000 
     84 N          -1.7072  -26.2276  -48.8150 N.am      15 UNK        -0.5000 
     85 CA         -1.5562  -26.3089  -50.2695 C.3       15 UNK         0.1400 
     86 CB         -0.4499  -25.3384  -50.7141 C.3       15 UNK        -0.1800 
     87 C          -2.8570  -26.0167  -51.0352 C.2       15 UNK         0.5000 
     88 O          -2.9312  -26.3365  -52.2225 O.2       15 UNK        -0.5000 
     89 N          -3.8383  -25.3906  -50.3684 N.am      16 UNK        -0.5000 
     90 CA         -5.1449  -24.9372  -50.8654 C.3       16 UNK         0.1400 
     91 CB         -5.9877  -26.1028  -51.4175 C.3       16 UNK        -0.1800 
     92 C          -5.0546  -23.7752  -51.8733 C.2       16 UNK         0.5000 
     93 O          -5.6948  -22.7454  -51.6672 O.2       16 UNK        -0.5000 
     94 N          -4.2376  -23.9317  -52.9236 N.am      17 UNK        -0.5000 
     95 CA         -3.9917  -22.9345  -53.9701 C.3       17 UNK         0.1400 
     96 CB         -3.0986  -23.5511  -55.0563 C.3       17 UNK        -0.1800 
     97 C          -3.3631  -21.6360  -53.4336 C.2       17 UNK         0.5000 
     98 O          -3.6548  -20.5550  -53.9459 O.2       17 UNK        -0.5000 
     99 N          -2.5537  -21.7563  -52.3736 N.am      18 UNK        -0.5000 
    100 CA        -1.9281  -20.6440  -51.6592 C.3       18 UNK         0.1400 
    101 CB        -0.8960  -21.1996  -50.6681 C.3       18 UNK        -0.1800 
    102 C         -2.9302  -19.6857  -50.9831 C.2       18 UNK         0.5000 
    103 O         -2.5831  -18.5280  -50.7591 O.2       18 UNK        -0.5000 
    104 N         -4.1749  -20.1304  -50.7438 N.am      19 UNK        -0.5000 
    105 CA        -5.2749  -19.2710  -50.2900 C.3       19 UNK         0.1400 
    106 CB        -6.4578  -20.1425  -49.8425 C.3       19 UNK        -0.1800 
    107 C         -5.7260  -18.2532  -51.3593 C.2       19 UNK         0.5000 
    108 O         -6.2776  -17.2114  -51.0059 O.2       19 UNK        -0.5000 
    109 N         -5.4580  -18.5582  -52.6365 N.am      20 UNK        -0.5000 
    110 CA        -5.6556  -17.6759  -53.7870 C.3       20 UNK         0.1400 
    111 CB        -6.3377  -18.4832  -54.9055 C.3       20 UNK        -0.1800 
    112 C         -4.3205  -17.0664  -54.2692 C.2       20 UNK         0.5000 
    113 O         -4.2826  -16.4852  -55.3537 O.2       20 UNK        -0.5000 
    114 N         -3.2536  -17.2177  -53.4674 N.am      21 UNK        -0.5000 
    115 CA        -1.8685  -16.8081  -53.7215 C.3       21 UNK         0.1400 
    116 CB        -1.7546  -15.2767  -53.8713 C.3       21 UNK        -0.1800 
    117 C         -1.1849  -17.5851  -54.8713 C.2       21 UNK         0.5000 
    118 O         -0.2353  -17.0761  -55.4693 O.2       21 UNK        -0.5000 
    119 N         -1.6535  -18.8137  -55.1310 N.am      22 UNK        -0.5000 
    120 CA        -1.1885  -19.7428  -56.1764 C.3       22 UNK         0.1400 
    121 C         -1.5129  -19.2729  -57.6291 C.2       22 UNK         0.5000 
    122 N         -1.0774  -20.0055  -58.6468 N.am      22 UNK        -0.7600 
    123 O         -2.1909  -18.2744  -57.8600 O.2       22 UNK        -0.5000 
    124 C124        0.2938  -20.1926  -56.0027 C.3       23 UNK        -0.0398 
    125 S125        0.6657  -20.8348  -54.3319 S.3       23 UNK        -0.2404 
    126 C126        2.0172  -19.7313  -53.8121 C.3       23 UNK        -0.0205 
    127 H127       -4.1729  -11.3076  -51.0261 H         1 UNK         0.0600 
    128 H128       -3.1827  -10.4524  -49.8398 H         1 UNK         0.0600 
    129 H129       -4.5911  -11.3779  -49.3107 H         1 UNK         0.0600 
    130 H130       -1.2934  -11.5002  -49.3852 H         1 UNK         0.3000 
    131 H131        0.3177  -12.9351  -49.1562 H         1 UNK         0.0600 
    132 H132       -0.3318  -13.8031  -51.4282 H         1 UNK         0.0800 
    133 H133       -1.2620  -15.0659  -50.6905 H         1 UNK         0.0800 
    134 H134       -0.5427  -17.1317  -50.1686 H         1 UNK         0.0800 
    135 H135        0.4875  -17.0094  -48.7696 H         1 UNK         0.0800 
    136 H136        0.7770  -17.7525  -52.4479 H         1 UNK         0.1150 
    137 H137        3.2310  -21.2068  -51.8491 H         1 UNK         0.1150 
    138 H138        1.9972  -18.8391  -48.4885 H         1 UNK         0.1150 
    139 H139        4.3272  -21.4616  -49.6626 H         1 UNK         0.0800 
    140 H140        3.8482  -20.5147  -48.2810 H         1 UNK         0.0800 
    141 H141        1.1758  -20.7789  -47.3616 H         1 UNK         0.0800 
    142 H142        2.4403  -21.5050  -46.4062 H         1 UNK         0.0800 
    143 H143        1.0311  -23.7039  -46.4823 H         1 UNK         0.0600 
    144 H144        0.8792  -21.5654  -44.6628 H         1 UNK         0.3000 
    145 H145       -1.4051  -23.0757  -42.3374 H         1 UNK         0.0600 
    146 H146        0.4882  -22.5169  -40.8385 H         1 UNK         0.0600 
    147 H147        1.5748  -22.3688  -42.2172 H         1 UNK         0.0600 
    148 H148        0.8752  -23.9297  -41.8091 H         1 UNK         0.0600 
    149 H149       -0.1429  -20.5327  -42.3171 H         1 UNK         0.3000 
    150 H150       -2.6430  -18.7567  -44.1981 H         1 UNK         0.0600 
    151 H151       -3.4299  -18.7930  -41.8576 H         1 UNK         0.0600 
    152 H152       -2.4513  -17.3590  -42.1326 H         1 UNK         0.0600 
    153 H153       -1.7791  -18.7326  -41.2578 H         1 UNK         0.0600 
    154 H154       -0.1940  -17.8722  -43.0809 H         1 UNK         0.3000 
    155 H155        1.9214  -18.6711  -45.8604 H         1 UNK         0.0600 
    156 H156        0.9750  -16.5154  -46.4765 H         1 UNK         0.0600 
    157 H157        2.4209  -16.2226  -45.5286 H         1 UNK         0.0600 
    158 H158        0.8274  -16.0126  -44.8018 H         1 UNK         0.0600 
    159 H159        2.2888  -17.4618  -43.2559 H         1 UNK         0.3000 
    160 H160        3.2231  -20.4813  -41.5984 H         1 UNK         0.0600 
    161 H161        4.9301  -18.1071  -42.5276 H         1 UNK         0.0600 
    162 H162        5.2856  -19.8025  -42.8370 H         1 UNK         0.0600 
    163 H163        5.3033  -19.1942  -41.1896 H         1 UNK         0.0600 
    164 H164        3.2030  -17.7322  -40.7953 H         1 UNK         0.3000 
    165 H165       -0.1984  -17.5201  -39.8169 H         1 UNK         0.0600 
    166 H166        0.7790  -16.9827  -37.6026 H         1 UNK         0.0600 
    167 H167        0.8399  -18.7151  -37.8836 H         1 UNK         0.0600 
    168 H168        2.3015  -17.7505  -38.0551 H         1 UNK         0.0600 
    169 H169        1.9884  -15.7356  -39.4765 H         1 UNK         0.3000 
    170 H170        1.8593  -13.7312  -40.7429 H         1 UNK         0.0600 
    171 H171        3.4407  -15.2663  -42.9032 H         1 UNK         0.0600 
    172 H172        3.9318  -13.7437  -42.1681 H         1 UNK         0.0600 
    173 H173        3.8755  -15.2010  -41.1986 H         1 UNK         0.0600 
    174 H174        0.5826  -14.2401  -43.2603 H         1 UNK         0.3000 
    175 H175        0.4616  -10.8014  -44.1149 H         1 UNK         0.0600 
    176 H176        1.8897  -12.9608  -45.7468 H         1 UNK         0.0600 
    177 H177        1.0849  -11.5428  -46.4222 H         1 UNK         0.0600 
    178 H178        2.4950  -11.3498  -45.3919 H         1 UNK         0.0600 
    179 H179       -0.6258  -13.1008  -45.4156 H         1 UNK         0.3000 
    180 H180       -3.4461  -13.5751  -43.5245 H         1 UNK         0.0600 
    181 H181       -4.9731  -12.2973  -45.0230 H         1 UNK         0.0600 
    182 H182       -3.6409  -11.2521  -45.5169 H         1 UNK         0.0600 
    183 H183       -4.2135  -11.2320  -43.8534 H         1 UNK         0.0600 
    184 H184       -2.9617  -13.4200  -46.4166 H         1 UNK         0.3000 
    185 H185       -1.5770  -16.6185  -46.6960 H         1 UNK         0.0600 
    186 H186       -4.4898  -15.9074  -47.3367 H         1 UNK         0.0600 
    187 H187       -3.5383  -17.1613  -48.1275 H         1 UNK         0.0600 
    188 H188       -3.9541  -17.3145  -46.4242 H         1 UNK         0.0600 
    189 H189       -2.6288  -14.9379  -48.7102 H         1 UNK         0.3000 
    190 H190       -1.2366  -20.9150  -46.4190 H         1 UNK         0.3000 
    191 H191       -2.8263  -21.5783  -48.6325 H         1 UNK         0.0600 
    192 H192       -4.5239  -20.1091  -47.5145 H         1 UNK         0.0600 
    193 H193       -2.9148  -19.3987  -47.5594 H         1 UNK         0.0600 
    194 H194       -3.5392  -20.0900  -46.0650 H         1 UNK         0.0600 
    195 H195       -3.2082  -22.6503  -45.2372 H         1 UNK         0.3000 
    196 H196       -5.5619  -24.2050  -45.6857 H         1 UNK         0.0600 
    197 H197       -4.8636  -23.4300  -43.4388 H         1 UNK         0.0600 
    198 H198       -3.4155  -24.4302  -43.5097 H         1 UNK         0.0600 
    199 H199       -5.0056  -25.1819  -43.4589 H         1 UNK         0.0600 
    200 H200       -2.0768  -25.0835  -45.7086 H         1 UNK         0.3000 
    201 H201       -2.5257  -27.8879  -46.0478 H         1 UNK         0.0600 
    202 H202       -0.5035  -27.0017  -44.9597 H         1 UNK         0.0600 
    203 H203       -0.0119  -26.1855  -46.4415 H         1 UNK         0.0600 
    204 H204       -0.0460  -27.9442  -46.3700 H         1 UNK         0.0600 
    205 H205       -1.4306  -25.3469  -48.3808 H         1 UNK         0.3000 
    206 H206       -1.2391  -27.3184  -50.5397 H         1 UNK         0.0600 
    207 H207       -0.7217  -24.3013  -50.5224 H         1 UNK         0.0600 
    208 H208        0.4860  -25.5390  -50.1921 H         1 UNK         0.0600 
    209 H209       -0.2526  -25.4316  -51.7828 H         1 UNK         0.0600 
    210 H210       -3.6510  -25.1452  -49.4050 H         1 UNK         0.3000 
    211 H211       -5.6749  -24.5523  -49.9936 H         1 UNK         0.0600 
    212 H212       -5.5563  -26.5349  -52.3205 H         1 UNK         0.0600 
    213 H213       -6.9937  -25.7655  -51.6700 H         1 UNK         0.0600 
    214 H214       -6.0877  -26.8988  -50.6795 H         1 UNK         0.0600 
    215 H215       -3.7324  -24.8118  -52.9897 H         1 UNK         0.3000 
    216 H216       -4.9532  -22.6751  -54.4178 H         1 UNK         0.0600 
    217 H217       -2.9334  -22.8478  -55.8732 H         1 UNK         0.0600 
    218 H218       -3.5575  -24.4423  -55.4848 H         1 UNK         0.0600 
    219 H219       -2.1216  -23.8337  -54.6616 H         1 UNK         0.0600 
    220 H220       -2.3739  -22.6831  -52.0186 H         1 UNK         0.3000 
    221 H221       -1.3887  -20.0389  -52.3894 H         1 UNK         0.0600 
    222 H222       -1.2846  -22.0469  -50.1090 H         1 UNK         0.0600 
    223 H223       -0.0050  -21.5450  -51.1921 H         1 UNK         0.0600 
    224 H224       -0.5754  -20.4439  -49.9501 H         1 UNK         0.0600 
    225 H225       -4.4229  -21.0813  -50.9909 H         1 UNK         0.3000 
    226 H226       -4.9250  -18.7030  -49.4265 H         1 UNK         0.0600 
    227 H227       -6.1458  -20.9135  -49.1378 H         1 UNK         0.0600 
    228 H228       -7.2194  -19.5373  -49.3496 H         1 UNK         0.0600 
    229 H229       -6.9349  -20.6373  -50.6888 H         1 UNK         0.0600 
    230 H230       -4.9839  -19.4308  -52.8418 H         1 UNK         0.3000 
    231 H231       -6.3109  -16.8447  -53.5200 H         1 UNK         0.0600 
    232 H232       -6.5733  -17.8494  -55.7611 H         1 UNK         0.0600 
    233 H233       -7.2747  -18.9204  -54.5604 H         1 UNK         0.0600 
    234 H234       -5.7013  -19.2936  -55.2629 H         1 UNK         0.0600 
    235 H235       -3.3979  -17.6857  -52.5813 H         1 UNK         0.3000 
    236 H236       -1.3271  -17.0776  -52.8154 H         1 UNK         0.0600 
    237 H237       -2.1810  -14.9287  -54.8124 H         1 UNK         0.0600 
    238 H238       -2.2664  -14.7601  -53.0593 H         1 UNK         0.0600 
    239 H239       -0.7111  -14.9604  -53.8503 H         1 UNK         0.0600 
    240 H240       -2.4549  -19.1474  -54.6063 H         1 UNK         0.3000 
    241 H241       -1.8072  -20.6290  -56.0379 H         1 UNK         0.0600 
    242 H242       -1.2999  -19.7098  -59.5850 H         1 UNK         0.3800 
    243 H243       -0.5471  -20.8519  -58.5128 H         1 UNK         0.3800 
    244 H244        0.9685  -19.3745  -56.2566 H         1 UNK         0.0800 
    245 H245        0.5318  -20.9957  -56.7006 H         1 UNK         0.0800 
    246 H246        2.9713  -20.1588  -54.1234 H         1 UNK         0.0800 
    247 H247        1.9350  -18.7671  -54.3159 H         1 UNK         0.0800 
@<TRIPOS>BOND
     1    1    2 1    
     2    1  127 1    
     3    1  128 1    
     4    1  129 1    
     5    2    3 2    
     6    2    4 am   BACKBONE|DICT|INTERRES
     7    4    5 1    
     8    4  130 1    
     9    5    6 1    
    10    5   65 1    
    11    5  131 1    
    12    6    7 1    
    13    6  132 1    
    14    6  133 1    
    15    7    8 1    
    16    8    9 1    
    17    8  134 1    
    18    8  135 1    
    19    9   10 ar   
    20    9   14 ar   
    21   10   11 ar   
    22   10  136 1    
    23   11   12 ar   
    24   11  126 1    
    25   12   13 ar   
    26   12  137 1    
    27   13   14 ar   
    28   13   15 1    
    29   14  138 1    
    30   15   16 1    
    31   15  139 1    
    32   15  140 1    
    33   16   17 1    
    34   17   18 1    
    35   17  141 1    
    36   17  142 1    
    37   18   19 1    
    38   18   67 1    
    39   18  143 1    
    40   19   20 am   BACKBONE|DICT|INTERRES
    41   19  144 1    
    42   20   21 2    
    43   20   22 1    
    44   22   23 1    
    45   22   24 1    
    46   22  145 1    
    47   23  146 1    
    48   23  147 1    
    49   23  148 1    
    50   24   25 am   BACKBONE|DICT|INTERRES
    51   24  149 1    
    52   25   26 2    
    53   25   27 1    
    54   27   28 1    
    55   27   29 1    
    56   27  150 1    
    57   28  151 1    
    58   28  152 1    
    59   28  153 1    
    60   29   30 am   BACKBONE|DICT|INTERRES
    61   29  154 1    
    62   30   31 2    
    63   30   32 1    
    64   32   33 1    
    65   32   34 1    
    66   32  155 1    
    67   33  156 1    
    68   33  157 1    
    69   33  158 1    
    70   34   35 am   BACKBONE|DICT|INTERRES
    71   34  159 1    
    72   35   36 2    
    73   35   37 1    
    74   37   38 1    
    75   37   39 1    
    76   37  160 1    
    77   38  161 1    
    78   38  162 1    
    79   38  163 1    
    80   39   40 am   BACKBONE|DICT|INTERRES
    81   39  164 1    
    82   40   41 2    
    83   40   42 1    
    84   42   43 1    
    85   42   44 1    
    86   42  165 1    
    87   43  166 1    
    88   43  167 1    
    89   43  168 1    
    90   44   45 am   BACKBONE|DICT|INTERRES
    91   44  169 1    
    92   45   46 2    
    93   45   47 1    
    94   47   48 1    
    95   47   49 1    
    96   47  170 1    
    97   48  171 1    
    98   48  172 1    
    99   48  173 1    
   100   49   50 am   BACKBONE|DICT|INTERRES
   101   49  174 1    
   102   50   51 2    
   103   50   52 1    
   104   52   53 1    
   105   52   54 1    
   106   52  175 1    
   107   53  176 1    
   108   53  177 1    
   109   53  178 1    
   110   54   55 am   BACKBONE|DICT|INTERRES
   111   54  179 1    
   112   55   56 2    
   113   55   57 1    
   114   57   58 1    
   115   57   59 1    
   116   57  180 1    
   117   58  181 1    
   118   58  182 1    
   119   58  183 1    
   120   59   60 am   BACKBONE|DICT|INTERRES
   121   59  184 1    
   122   60   61 2    
   123   60   62 1    
   124   62   63 1    
   125   62   64 1    
   126   62  185 1    
   127   63  186 1    
   128   63  187 1    
   129   63  188 1    
   130   64   65 am   BACKBONE|DICT|INTERRES
   131   64  189 1    
   132   65   66 2    
   133   67   68 2    
   134   67   69 am   BACKBONE|DICT|INTERRES
   135   69   70 1    
   136   69  190 1    
   137   70   71 1    
   138   70   72 1    
   139   70  191 1    
   140   71  192 1    
   141   71  193 1    
   142   71  194 1    
   143   72   73 2    
   144   72   74 am   BACKBONE|DICT|INTERRES
   145   74   75 1    
   146   74  195 1    
   147   75   76 1    
   148   75   77 1    
   149   75  196 1    
   150   76  197 1    
   151   76  198 1    
   152   76  199 1    
   153   77   78 2    
   154   77   79 am   BACKBONE|DICT|INTERRES
   155   79   80 1    
   156   79  200 1    
   157   80   81 1    
   158   80   82 1    
   159   80  201 1    
   160   81  202 1    
   161   81  203 1    
   162   81  204 1    
   163   82   83 2    
   164   82   84 am   BACKBONE|DICT|INTERRES
   165   84   85 1    
   166   84  205 1    
   167   85   86 1    
   168   85   87 1    
   169   85  206 1    
   170   86  207 1    
   171   86  208 1    
   172   86  209 1    
   173   87   88 2    
   174   87   89 am   BACKBONE|DICT|INTERRES
   175   89   90 1    
   176   89  210 1    
   177   90   91 1    
   178   90   92 1    
   179   90  211 1    
   180   91  212 1    
   181   91  213 1    
   182   91  214 1    
   183   92   93 2    
   184   92   94 am   BACKBONE|DICT|INTERRES
   185   94   95 1    
   186   94  215 1    
   187   95   96 1    
   188   95   97 1    
   189   95  216 1    
   190   96  217 1    
   191   96  218 1    
   192   96  219 1    
   193   97   98 2    
   194   97   99 am   BACKBONE|DICT|INTERRES
   195   99  100 1    
   196   99  220 1    
   197  100  101 1    
   198  100  102 1    
   199  100  221 1    
   200  101  222 1    
   201  101  223 1    
   202  101  224 1    
   203  102  103 2    
   204  102  104 am   BACKBONE|DICT|INTERRES
   205  104  105 1    
   206  104  225 1    
   207  105  106 1    
   208  105  107 1    
   209  105  226 1    
   210  106  227 1    
   211  106  228 1    
   212  106  229 1    
   213  107  108 2    
   214  107  109 am   BACKBONE|DICT|INTERRES
   215  109  110 1    
   216  109  230 1    
   217  110  111 1    
   218  110  112 1    
   219  110  231 1    
   220  111  232 1    
   221  111  233 1    
   222  111  234 1    
   223  112  113 2    
   224  112  114 am   BACKBONE|DICT|INTERRES
   225  114  115 1    
   226  114  235 1    
   227  115  116 1    
   228  115  117 1    
   229  115  236 1    
   230  116  237 1    
   231  116  238 1    
   232  116  239 1    
   233  117  118 2    
   234  117  119 am   BACKBONE|DICT|INTERRES
   235  119  120 1    
   236  119  240 1    
   237  120  121 1    
   238  120  124 1    
   239  120  241 1    
   240  121  122 am   BACKBONE|DICT|INTERRES
   241  121  123 2    
   242  122  242 1    
   243  122  243 1    
   244  124  125 1    
   245  124  244 1    
   246  124  245 1    
   247  125  126 1    
   248  126  246 1    
   249  126  247 1    
@<TRIPOS>SUBSTRUCTURE
     1 UNK         1 GROUP             0       ****    0 ROOT    
