@<TRIPOS>MOLECULE
3R540
247   249    1
SMALL
USER_CHARGES


@<TRIPOS>ATOM
      1 CA          3.9937  -12.7796  -47.4531 C.3       0 UNK        -0.1800 
      2 C           2.6699  -13.5233  -47.5379 C.2       0 UNK         0.5000 
      3 O           2.3528  -14.3169  -46.6533 O.2       0 UNK        -0.5000 
      4 N           1.8950  -13.2441  -48.5947 N.am      1 UNK        -0.5000 
      5 CA          0.6332  -13.9044  -48.9692 C.3       1 UNK         0.1400 
      6 C6          0.0361  -13.3054  -50.2700 C.3       23 UNK        -0.0398 
      7 S7          1.2328  -13.2481  -51.6510 S.3       23 UNK        -0.2404 
      8 C8          0.5070  -14.4145  -52.8527 C.3       23 UNK        -0.0205 
      9 C9          0.3533  -15.8354  -52.3203 C.ar      23 UNK        -0.0193 
     10 C10        -0.8308  -16.5406  -52.5582 C.ar      23 UNK        -0.1150 
     11 C11        -0.9889  -17.8482  -52.0898 C.ar      23 UNK        -0.0193 
     12 C12         0.0436  -18.4457  -51.3638 C.ar      23 UNK        -0.1150 
     13 C13         1.2244  -17.7457  -51.1014 C.ar      23 UNK        -0.0193 
     14 C14         1.3841  -16.4527  -51.6036 C.ar      23 UNK        -0.1150 
     15 C15         2.3075  -18.3680  -50.2342 C.3       23 UNK        -0.0205 
     16 S16         2.3120  -17.6841  -48.5401 S.3       23 UNK        -0.2404 
     17 C17         0.5637  -17.8528  -48.0340 C.3       23 UNK        -0.0398 
     18 CA          0.1455  -19.3196  -47.7802 C.3       11 UNK         0.1400 
     19 N           0.9555  -19.9538  -46.7329 N.am      11 UNK        -0.5000 
     20 C           0.8511  -21.2204  -46.3106 C.2       10 UNK         0.5000 
     21 O          -0.0734  -21.9713  -46.6202 O.2       10 UNK        -0.5000 
     22 CA          1.9949  -21.7524  -45.4360 C.3       10 UNK         0.1400 
     23 CB          3.3818  -21.2855  -45.9265 C.3       10 UNK        -0.1800 
     24 N           1.8136  -21.3957  -44.0293 N.am      10 UNK        -0.5000 
     25 C           2.3224  -22.1111  -43.0141 C.2       9 UNK         0.5000 
     26 O           2.8954  -23.1904  -43.1750 O.2       9 UNK        -0.5000 
     27 CA          2.2241  -21.5480  -41.5804 C.3       9 UNK         0.1400 
     28 CB          3.6119  -21.1090  -41.0851 C.3       9 UNK        -0.1800 
     29 N           1.3129  -20.4169  -41.4428 N.am      9 UNK        -0.5000 
     30 C          -0.0197  -20.5031  -41.3586 C.2       8 UNK         0.5000 
     31 O          -0.6414  -21.5656  -41.3527 O.2       8 UNK        -0.5000 
     32 CA         -0.7856  -19.1656  -41.3110 C.3       8 UNK         0.1400 
     33 CB         -0.9788  -18.6959  -39.8615 C.3       8 UNK        -0.1800 
     34 N          -0.1350  -18.1039  -42.0874 N.am      8 UNK        -0.5000 
     35 C           0.0670  -18.1608  -43.4106 C.2       7 UNK         0.5000 
     36 O          -0.2744  -19.1145  -44.1047 O.2       7 UNK        -0.5000 
     37 CA          0.8116  -16.9931  -44.0689 C.3       7 UNK         0.1400 
     38 CB         -0.1624  -15.8632  -44.4200 C.3       7 UNK        -0.1800 
     39 N           1.9028  -16.4986  -43.2328 N.am      7 UNK        -0.5000 
     40 C           3.0479  -17.1750  -43.0564 C.2       6 UNK         0.5000 
     41 O           3.2982  -18.2458  -43.6110 O.2       6 UNK        -0.5000 
     42 CA          4.0672  -16.5868  -42.0661 C.3       6 UNK         0.1400 
     43 CB          4.8780  -15.4581  -42.7183 C.3       6 UNK        -0.1800 
     44 N           3.4581  -16.0912  -40.8331 N.am      6 UNK        -0.5000 
     45 C           2.7670  -16.8209  -39.9501 C.2       5 UNK         0.5000 
     46 O           2.5380  -18.0214  -40.0948 O.2       5 UNK        -0.5000 
     47 CA          2.2111  -16.0925  -38.7088 C.3       5 UNK         0.1400 
     48 CB          3.2785  -15.9802  -37.6041 C.3       5 UNK        -0.1800 
     49 N           1.5858  -14.7928  -38.9968 N.am      5 UNK        -0.5000 
     50 C           2.1552  -13.6632  -39.4395 C.2       4 UNK         0.5000 
     51 O           3.3655  -13.5202  -39.6293 O.2       4 UNK        -0.5000 
     52 CA          1.1949  -12.5059  -39.7687 C.3       4 UNK         0.1400 
     53 CB          1.3218  -11.3829  -38.7281 C.3       4 UNK        -0.1800 
     54 N           1.4253  -11.9534  -41.1057 N.am      4 UNK        -0.5000 
     55 C           1.3791  -12.6482  -42.2505 C.2       3 UNK         0.5000 
     56 O           1.1659  -13.8616  -42.3129 O.2       3 UNK        -0.5000 
     57 CA          1.6348  -11.8535  -43.5434 C.3       3 UNK         0.1400 
     58 CB          3.0984  -11.9896  -43.9857 C.3       3 UNK        -0.1800 
     59 N           0.7627  -12.3012  -44.6294 N.am      3 UNK        -0.5000 
     60 C          -0.5520  -12.0429  -44.6985 C.2       2 UNK         0.5000 
     61 O          -1.1456  -11.3436  -43.8758 O.2       2 UNK        -0.5000 
     62 CA         -1.3239  -12.6434  -45.8907 C.3       2 UNK         0.1400 
     63 CB         -2.5330  -11.7881  -46.3131 C.3       2 UNK        -0.1800 
     64 N          -0.4404  -12.8321  -47.0401 N.am      2 UNK        -0.5000 
     65 C          -0.4365  -13.8945  -47.8546 C.2       1 UNK         0.5000 
     66 O          -1.2181  -14.8406  -47.7548 O.2       1 UNK        -0.5000 
     67 C          -1.3821  -19.4133  -47.5898 C.2       11 UNK         0.5000 
     68 O          -2.0916  -19.6506  -48.5669 O.2       11 UNK        -0.5000 
     69 N          -1.8642  -19.2571  -46.3514 N.am      12 UNK        -0.5000 
     70 CA         -3.2856  -19.3210  -46.0098 C.3       12 UNK         0.1400 
     71 CB         -3.5046  -18.7146  -44.6158 C.3       12 UNK        -0.1800 
     72 C          -3.8440  -20.7533  -46.0712 C.2       12 UNK         0.5000 
     73 O          -5.0184  -20.9301  -46.3955 O.2       12 UNK        -0.5000 
     74 N          -2.9929  -21.7485  -45.7846 N.am      13 UNK        -0.5000 
     75 CA         -3.3148  -23.1647  -45.9405 C.3       13 UNK         0.1400 
     76 CB         -2.3590  -24.0204  -45.0952 C.3       13 UNK        -0.1800 
     77 C          -3.2702  -23.5701  -47.4216 C.2       13 UNK         0.5000 
     78 O          -4.1863  -24.2440  -47.8901 O.2       13 UNK        -0.5000 
     79 N          -2.2418  -23.1046  -48.1464 N.am      14 UNK        -0.5000 
     80 CA         -2.0605  -23.3148  -49.5853 C.3       14 UNK         0.1400 
     81 CB         -0.7254  -22.7027  -50.0315 C.3       14 UNK        -0.1800 
     82 C          -3.2228  -22.7565  -50.4264 C.2       14 UNK         0.5000 
     83 O          -3.6761  -23.4304  -51.3504 O.2       14 UNK        -0.5000 
     84 N          -3.7245  -21.5731  -50.0444 N.am      15 UNK        -0.5000 
     85 CA         -4.8930  -20.9140  -50.6339 C.3       15 UNK         0.1400 
     86 CB         -5.0648  -19.5303  -49.9871 C.3       15 UNK        -0.1800 
     87 C          -6.2063  -21.7124  -50.5032 C.2       15 UNK         0.5000 
     88 O          -7.1288  -21.4790  -51.2839 O.2       15 UNK        -0.5000 
     89 N          -6.2809  -22.6218  -49.5228 N.am      16 UNK        -0.5000 
     90 CA         -7.4042  -23.5324  -49.3266 C.3       16 UNK         0.1400 
     91 CB         -7.6718  -23.6981  -47.8217 C.3       16 UNK        -0.1800 
     92 C          -7.1210  -24.8885  -49.9915 C.2       16 UNK         0.5000 
     93 O          -7.9529  -25.3744  -50.7576 O.2       16 UNK        -0.5000 
     94 N          -5.9523  -25.4717  -49.6910 N.am      17 UNK        -0.5000 
     95 CA         -5.5490  -26.8174  -50.1011 C.3       17 UNK         0.1400 
     96 CB         -4.2772  -27.2153  -49.3362 C.3       17 UNK        -0.1800 
     97 C          -5.3343  -26.9763  -51.6158 C.2       17 UNK         0.5000 
     98 O          -5.6977  -28.0156  -52.1683 O.2       17 UNK        -0.5000 
     99 N          -4.7544  -25.9536  -52.2546 N.am      18 UNK        -0.5000 
    100 CA        -4.4596  -25.9204  -53.6884 C.3       18 UNK         0.1400 
    101 CB        -2.9544  -25.6771  -53.8722 C.3       18 UNK        -0.1800 
    102 C         -5.2977  -24.8571  -54.4225 C.2       18 UNK         0.5000 
    103 O         -5.0410  -24.5926  -55.5983 O.2       18 UNK        -0.5000 
    104 N         -6.2850  -24.2728  -53.7271 N.am      19 UNK        -0.5000 
    105 CA        -7.1937  -23.2228  -54.1936 C.3       19 UNK         0.1400 
    106 CB        -8.1578  -23.7889  -55.2610 C.3       19 UNK        -0.1800 
    107 C         -6.4426  -21.9493  -54.6483 C.2       19 UNK         0.5000 
    108 O         -5.3526  -21.6624  -54.1487 O.2       19 UNK        -0.5000 
    109 N         -7.0276  -21.2100  -55.6000 N.am      20 UNK        -0.5000 
    110 CA        -6.4944  -19.9637  -56.1588 C.3       20 UNK         0.1400 
    111 CB        -7.5787  -19.3162  -57.0347 C.3       20 UNK        -0.1800 
    112 C         -5.1802  -20.1230  -56.9529 C.2       20 UNK         0.5000 
    113 O         -4.5208  -19.1190  -57.2250 O.2       20 UNK        -0.5000 
    114 N         -4.8183  -21.3629  -57.3136 N.am      21 UNK        -0.5000 
    115 CA        -3.5379  -21.6973  -57.9374 C.3       21 UNK         0.1400 
    116 CB        -3.6380  -23.0844  -58.5901 C.3       21 UNK        -0.1800 
    117 C         -2.3614  -21.6462  -56.9421 C.2       21 UNK         0.5000 
    118 O         -1.2302  -21.4135  -57.3692 O.2       21 UNK        -0.5000 
    119 N         -2.6450  -21.8575  -55.6474 N.am      22 UNK        -0.5000 
    120 CA        -1.7060  -21.7698  -54.5120 C.3       22 UNK         0.1400 
    121 C         -0.5559  -22.8260  -54.5016 C.2       22 UNK         0.5000 
    122 N         -0.5561  -23.8291  -55.3702 N.am      22 UNK        -0.7600 
    123 O          0.3437  -22.7547  -53.6695 O.2       22 UNK        -0.5000 
    124 C124       -1.1591  -20.3306  -54.2935 C.3       23 UNK        -0.0398 
    125 S125       -2.4775  -19.0822  -54.0885 S.3       23 UNK        -0.2404 
    126 C126       -2.2844  -18.6056  -52.3433 C.3       23 UNK        -0.0205 
    127 H127        3.8278  -11.7398  -47.1729 H         1 UNK         0.0600 
    128 H128        4.5112  -12.8011  -48.4122 H         1 UNK         0.0600 
    129 H129        4.6449  -13.2361  -46.7074 H         1 UNK         0.0600 
    130 H130        2.2325  -12.5781  -49.2756 H         1 UNK         0.3000 
    131 H131        0.8770  -14.9507  -49.1600 H         1 UNK         0.0600 
    132 H132       -0.8444  -13.8719  -50.5792 H         1 UNK         0.0800 
    133 H133       -0.3098  -12.2850  -50.0953 H         1 UNK         0.0800 
    134 H134        1.1429  -14.4443  -53.7383 H         1 UNK         0.0800 
    135 H135       -0.4562  -14.0190  -53.1789 H         1 UNK         0.0800 
    136 H136       -1.6330  -16.0772  -53.1155 H         1 UNK         0.1150 
    137 H137       -0.0839  -19.4488  -50.9835 H         1 UNK         0.1150 
    138 H138        2.3007  -15.9154  -51.4048 H         1 UNK         0.1150 
    139 H139        2.1894  -19.4515  -50.1877 H         1 UNK         0.0800 
    140 H140        3.2832  -18.1907  -50.6887 H         1 UNK         0.0800 
    141 H141       -0.0709  -17.3850  -48.7879 H         1 UNK         0.0800 
    142 H142        0.4147  -17.2542  -47.1355 H         1 UNK         0.0800 
    143 H143        0.3596  -19.8842  -48.6875 H         1 UNK         0.0600 
    144 H144        1.7525  -19.4186  -46.4208 H         1 UNK         0.3000 
    145 H145        1.9567  -22.8396  -45.5349 H         1 UNK         0.0600 
    146 H146        4.1791  -21.8392  -45.4306 H         1 UNK         0.0600 
    147 H147        3.4973  -21.4487  -46.9990 H         1 UNK         0.0600 
    148 H148        3.5487  -20.2256  -45.7306 H         1 UNK         0.0600 
    149 H149        1.2959  -20.5453  -43.8392 H         1 UNK         0.3000 
    150 H150        1.8750  -22.3576  -40.9360 H         1 UNK         0.0600 
    151 H151        4.3263  -21.9319  -41.1309 H         1 UNK         0.0600 
    152 H152        3.5723  -20.7715  -40.0492 H         1 UNK         0.0600 
    153 H153        4.0112  -20.2917  -41.6874 H         1 UNK         0.0600 
    154 H154        1.7407  -19.5000  -41.3748 H         1 UNK         0.3000 
    155 H155       -1.7723  -19.3372  -41.7449 H         1 UNK         0.0600 
    156 H156       -0.0257  -18.5217  -39.3626 H         1 UNK         0.0600 
    157 H157       -1.5185  -19.4445  -39.2800 H         1 UNK         0.0600 
    158 H158       -1.5568  -17.7727  -39.8177 H         1 UNK         0.0600 
    159 H159        0.2065  -17.3029  -41.5782 H         1 UNK         0.3000 
    160 H160        1.2451  -17.3597  -45.0006 H         1 UNK         0.0600 
    161 H161       -0.9553  -16.2196  -45.0791 H         1 UNK         0.0600 
    162 H162        0.3554  -15.0621  -44.9436 H         1 UNK         0.0600 
    163 H163       -0.6352  -15.4407  -43.5330 H         1 UNK         0.0600 
    164 H164        1.7584  -15.6056  -42.7668 H         1 UNK         0.3000 
    165 H165        4.7574  -17.3878  -41.7934 H         1 UNK         0.0600 
    166 H166        5.6926  -15.1340  -42.0706 H         1 UNK         0.0600 
    167 H167        5.3198  -15.7834  -43.6612 H         1 UNK         0.0600 
    168 H168        4.2532  -14.5905  -42.9268 H         1 UNK         0.0600 
    169 H169        3.5836  -15.1057  -40.6188 H         1 UNK         0.3000 
    170 H170        1.4092  -16.7199  -38.3168 H         1 UNK         0.0600 
    171 H171        3.6464  -16.9671  -37.3205 H         1 UNK         0.0600 
    172 H172        4.1404  -15.3938  -37.9230 H         1 UNK         0.0600 
    173 H173        2.8697  -15.5157  -36.7067 H         1 UNK         0.0600 
    174 H174        0.5794  -14.7917  -38.9055 H         1 UNK         0.3000 
    175 H175        0.1693  -12.8799  -39.7448 H         1 UNK         0.0600 
    176 H176        1.1356  -11.7604  -37.7217 H         1 UNK         0.0600 
    177 H177        0.6000  -10.5874  -38.9142 H         1 UNK         0.0600 
    178 H178        2.3190  -10.9408  -38.7333 H         1 UNK         0.0600 
    179 H179        1.6412  -10.9682  -41.1448 H         1 UNK         0.3000 
    180 H180        1.4337  -10.7975  -43.3501 H         1 UNK         0.0600 
    181 H181        3.3223  -13.0012  -44.3240 H         1 UNK         0.0600 
    182 H182        3.7827  -11.7538  -43.1695 H         1 UNK         0.0600 
    183 H183        3.3232  -11.3059  -44.8037 H         1 UNK         0.0600 
    184 H184        1.1677  -12.9515  -45.2913 H         1 UNK         0.3000 
    185 H185       -1.6966  -13.6110  -45.5494 H         1 UNK         0.0600 
    186 H186       -3.2426  -11.6742  -45.4927 H         1 UNK         0.0600 
    187 H187       -2.2264  -10.7897  -46.6270 H         1 UNK         0.0600 
    188 H188       -3.0711  -12.2495  -47.1414 H         1 UNK         0.0600 
    189 H189        0.2470  -12.1072  -47.1936 H         1 UNK         0.3000 
    190 H190       -1.2131  -19.1529  -45.5741 H         1 UNK         0.3000 
    191 H191       -3.8378  -18.7168  -46.7330 H         1 UNK         0.0600 
    192 H192       -4.5665  -18.6792  -44.3694 H         1 UNK         0.0600 
    193 H193       -3.0091  -19.3010  -43.8420 H         1 UNK         0.0600 
    194 H194       -3.1233  -17.6948  -44.5623 H         1 UNK         0.0600 
    195 H195       -2.0259  -21.5211  -45.5924 H         1 UNK         0.3000 
    196 H196       -4.3295  -23.3370  -45.5746 H         1 UNK         0.0600 
    197 H197       -2.6251  -25.0760  -45.1610 H         1 UNK         0.0600 
    198 H198       -2.4046  -23.7382  -44.0431 H         1 UNK         0.0600 
    199 H199       -1.3235  -23.9253  -45.4213 H         1 UNK         0.0600 
    200 H200       -1.5133  -22.5835  -47.6647 H         1 UNK         0.3000 
    201 H201       -2.0152  -24.3922  -49.7556 H         1 UNK         0.0600 
    202 H202        0.1085  -23.1071  -49.4575 H         1 UNK         0.0600 
    203 H203       -0.7203  -21.6200  -49.9142 H         1 UNK         0.0600 
    204 H204       -0.5328  -22.9181  -51.0827 H         1 UNK         0.0600 
    205 H205       -3.2474  -21.0608  -49.3083 H         1 UNK         0.3000 
    206 H206       -4.6928  -20.7771  -51.6981 H         1 UNK         0.0600 
    207 H207       -5.2698  -19.6119  -48.9191 H         1 UNK         0.0600 
    208 H208       -4.1734  -18.9166  -50.1060 H         1 UNK         0.0600 
    209 H209       -5.8942  -18.9865  -50.4410 H         1 UNK         0.0600 
    210 H210       -5.4732  -22.7646  -48.9306 H         1 UNK         0.3000 
    211 H211       -8.3089  -23.1192  -49.7776 H         1 UNK         0.0600 
    212 H212       -6.8110  -24.1087  -47.2935 H         1 UNK         0.0600 
    213 H213       -8.5141  -24.3687  -47.6475 H         1 UNK         0.0600 
    214 H214       -7.9168  -22.7410  -47.3606 H         1 UNK         0.0600 
    215 H215       -5.3204  -24.9972  -49.0482 H         1 UNK         0.3000 
    216 H216       -6.3468  -27.5034  -49.8092 H         1 UNK         0.0600 
    217 H217       -3.9630  -28.2269  -49.5964 H         1 UNK         0.0600 
    218 H218       -4.4418  -27.1927  -48.2588 H         1 UNK         0.0600 
    219 H219       -3.4474  -26.5442  -49.5610 H         1 UNK         0.0600 
    220 H220       -4.4792  -25.1233  -51.7342 H         1 UNK         0.3000 
    221 H221       -4.7011  -26.8774  -54.1544 H         1 UNK         0.0600 
    222 H222       -2.6786  -25.7076  -54.9266 H         1 UNK         0.0600 
    223 H223       -2.3655  -26.4392  -53.3619 H         1 UNK         0.0600 
    224 H224       -2.6570  -24.7056  -53.4787 H         1 UNK         0.0600 
    225 H225       -6.3992  -24.5539  -52.7641 H         1 UNK         0.3000 
    226 H226       -7.7950  -22.9373  -53.3309 H         1 UNK         0.0600 
    227 H227       -8.9740  -23.0967  -55.4701 H         1 UNK         0.0600 
    228 H228       -7.6477  -23.9983  -56.2020 H         1 UNK         0.0600 
    229 H229       -8.6146  -24.7181  -54.9197 H         1 UNK         0.0600 
    230 H230       -7.9140  -21.5202  -55.9708 H         1 UNK         0.3000 
    231 H231       -6.2817  -19.2914  -55.3248 H         1 UNK         0.0600 
    232 H232       -8.4838  -19.1163  -56.4607 H         1 UNK         0.0600 
    233 H233       -7.8477  -19.9540  -57.8776 H         1 UNK         0.0600 
    234 H234       -7.2377  -18.3627  -57.4406 H         1 UNK         0.0600 
    235 H235       -5.4093  -22.1365  -57.0448 H         1 UNK         0.3000 
    236 H236       -3.3360  -20.9685  -58.7253 H         1 UNK         0.0600 
    237 H237       -4.4381  -23.1160  -59.3297 H         1 UNK         0.0600 
    238 H238       -2.7107  -23.3405  -59.1041 H         1 UNK         0.0600 
    239 H239       -3.8299  -23.8650  -57.8540 H         1 UNK         0.0600 
    240 H240       -3.6117  -22.0131  -55.3857 H         1 UNK         0.3000 
    241 H241       -2.3070  -22.0183  -53.6362 H         1 UNK         0.0600 
    242 H242        0.1901  -24.5055  -55.3456 H         1 UNK         0.3800 
    243 H243       -1.2771  -23.8977  -56.0691 H         1 UNK         0.3800 
    244 H244       -0.5342  -20.0284  -55.1347 H         1 UNK         0.0800 
    245 H245       -0.5087  -20.3027  -53.4193 H         1 UNK         0.0800 
    246 H246       -2.3439  -19.4970  -51.7169 H         1 UNK         0.0800 
    247 H247       -3.1259  -17.9724  -52.0603 H         1 UNK         0.0800 
@<TRIPOS>BOND
     1    1    2 1    
     2    1  127 1    
     3    1  128 1    
     4    1  129 1    
     5    2    3 2    
     6    2    4 am   BACKBONE|DICT|INTERRES
     7    4    5 1    
     8    4  130 1    
     9    5    6 1    
    10    5   65 1    
    11    5  131 1    
    12    6    7 1    
    13    6  132 1    
    14    6  133 1    
    15    7    8 1    
    16    8    9 1    
    17    8  134 1    
    18    8  135 1    
    19    9   10 ar   
    20    9   14 ar   
    21   10   11 ar   
    22   10  136 1    
    23   11   12 ar   
    24   11  126 1    
    25   12   13 ar   
    26   12  137 1    
    27   13   14 ar   
    28   13   15 1    
    29   14  138 1    
    30   15   16 1    
    31   15  139 1    
    32   15  140 1    
    33   16   17 1    
    34   17   18 1    
    35   17  141 1    
    36   17  142 1    
    37   18   19 1    
    38   18   67 1    
    39   18  143 1    
    40   19   20 am   BACKBONE|DICT|INTERRES
    41   19  144 1    
    42   20   21 2    
    43   20   22 1    
    44   22   23 1    
    45   22   24 1    
    46   22  145 1    
    47   23  146 1    
    48   23  147 1    
    49   23  148 1    
    50   24   25 am   BACKBONE|DICT|INTERRES
    51   24  149 1    
    52   25   26 2    
    53   25   27 1    
    54   27   28 1    
    55   27   29 1    
    56   27  150 1    
    57   28  151 1    
    58   28  152 1    
    59   28  153 1    
    60   29   30 am   BACKBONE|DICT|INTERRES
    61   29  154 1    
    62   30   31 2    
    63   30   32 1    
    64   32   33 1    
    65   32   34 1    
    66   32  155 1    
    67   33  156 1    
    68   33  157 1    
    69   33  158 1    
    70   34   35 am   BACKBONE|DICT|INTERRES
    71   34  159 1    
    72   35   36 2    
    73   35   37 1    
    74   37   38 1    
    75   37   39 1    
    76   37  160 1    
    77   38  161 1    
    78   38  162 1    
    79   38  163 1    
    80   39   40 am   BACKBONE|DICT|INTERRES
    81   39  164 1    
    82   40   41 2    
    83   40   42 1    
    84   42   43 1    
    85   42   44 1    
    86   42  165 1    
    87   43  166 1    
    88   43  167 1    
    89   43  168 1    
    90   44   45 am   BACKBONE|DICT|INTERRES
    91   44  169 1    
    92   45   46 2    
    93   45   47 1    
    94   47   48 1    
    95   47   49 1    
    96   47  170 1    
    97   48  171 1    
    98   48  172 1    
    99   48  173 1    
   100   49   50 am   BACKBONE|DICT|INTERRES
   101   49  174 1    
   102   50   51 2    
   103   50   52 1    
   104   52   53 1    
   105   52   54 1    
   106   52  175 1    
   107   53  176 1    
   108   53  177 1    
   109   53  178 1    
   110   54   55 am   BACKBONE|DICT|INTERRES
   111   54  179 1    
   112   55   56 2    
   113   55   57 1    
   114   57   58 1    
   115   57   59 1    
   116   57  180 1    
   117   58  181 1    
   118   58  182 1    
   119   58  183 1    
   120   59   60 am   BACKBONE|DICT|INTERRES
   121   59  184 1    
   122   60   61 2    
   123   60   62 1    
   124   62   63 1    
   125   62   64 1    
   126   62  185 1    
   127   63  186 1    
   128   63  187 1    
   129   63  188 1    
   130   64   65 am   BACKBONE|DICT|INTERRES
   131   64  189 1    
   132   65   66 2    
   133   67   68 2    
   134   67   69 am   BACKBONE|DICT|INTERRES
   135   69   70 1    
   136   69  190 1    
   137   70   71 1    
   138   70   72 1    
   139   70  191 1    
   140   71  192 1    
   141   71  193 1    
   142   71  194 1    
   143   72   73 2    
   144   72   74 am   BACKBONE|DICT|INTERRES
   145   74   75 1    
   146   74  195 1    
   147   75   76 1    
   148   75   77 1    
   149   75  196 1    
   150   76  197 1    
   151   76  198 1    
   152   76  199 1    
   153   77   78 2    
   154   77   79 am   BACKBONE|DICT|INTERRES
   155   79   80 1    
   156   79  200 1    
   157   80   81 1    
   158   80   82 1    
   159   80  201 1    
   160   81  202 1    
   161   81  203 1    
   162   81  204 1    
   163   82   83 2    
   164   82   84 am   BACKBONE|DICT|INTERRES
   165   84   85 1    
   166   84  205 1    
   167   85   86 1    
   168   85   87 1    
   169   85  206 1    
   170   86  207 1    
   171   86  208 1    
   172   86  209 1    
   173   87   88 2    
   174   87   89 am   BACKBONE|DICT|INTERRES
   175   89   90 1    
   176   89  210 1    
   177   90   91 1    
   178   90   92 1    
   179   90  211 1    
   180   91  212 1    
   181   91  213 1    
   182   91  214 1    
   183   92   93 2    
   184   92   94 am   BACKBONE|DICT|INTERRES
   185   94   95 1    
   186   94  215 1    
   187   95   96 1    
   188   95   97 1    
   189   95  216 1    
   190   96  217 1    
   191   96  218 1    
   192   96  219 1    
   193   97   98 2    
   194   97   99 am   BACKBONE|DICT|INTERRES
   195   99  100 1    
   196   99  220 1    
   197  100  101 1    
   198  100  102 1    
   199  100  221 1    
   200  101  222 1    
   201  101  223 1    
   202  101  224 1    
   203  102  103 2    
   204  102  104 am   BACKBONE|DICT|INTERRES
   205  104  105 1    
   206  104  225 1    
   207  105  106 1    
   208  105  107 1    
   209  105  226 1    
   210  106  227 1    
   211  106  228 1    
   212  106  229 1    
   213  107  108 2    
   214  107  109 am   BACKBONE|DICT|INTERRES
   215  109  110 1    
   216  109  230 1    
   217  110  111 1    
   218  110  112 1    
   219  110  231 1    
   220  111  232 1    
   221  111  233 1    
   222  111  234 1    
   223  112  113 2    
   224  112  114 am   BACKBONE|DICT|INTERRES
   225  114  115 1    
   226  114  235 1    
   227  115  116 1    
   228  115  117 1    
   229  115  236 1    
   230  116  237 1    
   231  116  238 1    
   232  116  239 1    
   233  117  118 2    
   234  117  119 am   BACKBONE|DICT|INTERRES
   235  119  120 1    
   236  119  240 1    
   237  120  121 1    
   238  120  124 1    
   239  120  241 1    
   240  121  122 am   BACKBONE|DICT|INTERRES
   241  121  123 2    
   242  122  242 1    
   243  122  243 1    
   244  124  125 1    
   245  124  244 1    
   246  124  245 1    
   247  125  126 1    
   248  126  246 1    
   249  126  247 1    
@<TRIPOS>SUBSTRUCTURE
     1 UNK         1 GROUP             0       ****    0 ROOT    
