@<TRIPOS>MOLECULE
3R540
247   249    1
SMALL
USER_CHARGES


@<TRIPOS>ATOM
      1 CA          5.7513  -19.1049  -48.3107 C.3       0 UNK        -0.1800 
      2 C           5.5523  -17.7076  -48.8796 C.2       0 UNK         0.5000 
      3 O           6.5286  -16.9879  -49.0892 O.2       0 UNK        -0.5000 
      4 N           4.2908  -17.3243  -49.1211 N.am      1 UNK        -0.5000 
      5 CA          3.8693  -16.0113  -49.6312 C.3       1 UNK         0.1400 
      6 C6          4.3653  -15.7452  -51.0812 C.3       23 UNK        -0.0398 
      7 S7          3.2623  -14.6351  -52.0231 S.3       23 UNK        -0.2404 
      8 C8          2.1671  -15.8227  -52.8666 C.3       23 UNK        -0.0205 
      9 C9          1.3084  -16.5991  -51.8797 C.ar      23 UNK        -0.0193 
     10 C10         0.2725  -15.9568  -51.1968 C.ar      23 UNK        -0.1150 
     11 C11        -0.5091  -16.6516  -50.2684 C.ar      23 UNK        -0.0193 
     12 C12        -0.2480  -18.0048  -50.0305 C.ar      23 UNK        -0.1150 
     13 C13         0.7957  -18.6550  -50.6971 C.ar      23 UNK        -0.0193 
     14 C14         1.5655  -17.9489  -51.6253 C.ar      23 UNK        -0.1150 
     15 C15         1.0868  -20.1238  -50.4347 C.3       23 UNK        -0.0205 
     16 S16         2.3657  -20.3705  -49.1567 S.3       23 UNK        -0.2404 
     17 C17         1.4357  -20.1600  -47.5971 C.3       23 UNK        -0.0398 
     18 CA          0.9127  -21.4948  -47.0038 C.3       11 UNK         0.1400 
     19 N           0.5147  -21.3609  -45.5984 N.am      11 UNK        -0.5000 
     20 C           0.0994  -22.3679  -44.8137 C.2       10 UNK         0.5000 
     21 O           0.0789  -23.5468  -45.1640 O.2       10 UNK        -0.5000 
     22 CA         -0.4468  -21.9935  -43.4244 C.3       10 UNK         0.1400 
     23 CB          0.6960  -21.7630  -42.4253 C.3       10 UNK        -0.1800 
     24 N          -1.3258  -20.8238  -43.4674 N.am      10 UNK        -0.5000 
     25 C          -2.4900  -20.7809  -44.1326 C.2       9 UNK         0.5000 
     26 O          -2.9720  -21.7463  -44.7247 O.2       9 UNK        -0.5000 
     27 CA         -3.2180  -19.4258  -44.1860 C.3       9 UNK         0.1400 
     28 CB         -4.0399  -19.1969  -42.9092 C.3       9 UNK        -0.1800 
     29 N          -2.3066  -18.3010  -44.3989 N.am      9 UNK        -0.5000 
     30 C          -1.5579  -18.1257  -45.4982 C.2       8 UNK         0.5000 
     31 O          -1.5845  -18.8767  -46.4734 O.2       8 UNK        -0.5000 
     32 CA         -0.5637  -16.9501  -45.4758 C.3       8 UNK         0.1400 
     33 CB         -1.2853  -15.6153  -45.7114 C.3       8 UNK        -0.1800 
     34 N           0.1875  -16.8848  -44.2216 N.am      8 UNK        -0.5000 
     35 C           1.0055  -17.8437  -43.7665 C.2       7 UNK         0.5000 
     36 O           1.2963  -18.8510  -44.4108 O.2       7 UNK        -0.5000 
     37 CA          1.5393  -17.6839  -42.3313 C.3       7 UNK         0.1400 
     38 CB          2.8086  -16.8256  -42.2873 C.3       7 UNK        -0.1800 
     39 N           0.5388  -17.1100  -41.4339 N.am      7 UNK        -0.5000 
     40 C          -0.5278  -17.7753  -40.9729 C.2       6 UNK         0.5000 
     41 O          -0.7709  -18.9500  -41.2465 O.2       6 UNK        -0.5000 
     42 CA         -1.5012  -16.9800  -40.0849 C.3       6 UNK         0.1400 
     43 CB         -0.9994  -16.9348  -38.6340 C.3       6 UNK        -0.1800 
     44 N          -1.7141  -15.6149  -40.5693 N.am      6 UNK        -0.5000 
     45 C          -2.3437  -15.3158  -41.7136 C.2       5 UNK         0.5000 
     46 O          -2.8200  -16.1603  -42.4713 O.2       5 UNK        -0.5000 
     47 CA         -2.4226  -13.8266  -42.0945 C.3       5 UNK         0.1400 
     48 CB         -3.6211  -13.1577  -41.4050 C.3       5 UNK        -0.1800 
     49 N          -1.2048  -13.0652  -41.7988 N.am      5 UNK        -0.5000 
     50 C           0.0060  -13.3233  -42.3102 C.2       4 UNK         0.5000 
     51 O           0.2664  -14.3109  -42.9995 O.2       4 UNK        -0.5000 
     52 CA          1.1249  -12.3232  -41.9767 C.3       4 UNK         0.1400 
     53 CB          2.0874  -12.9129  -40.9345 C.3       4 UNK        -0.1800 
     54 N           1.8757  -11.9617  -43.1786 N.am      4 UNK        -0.5000 
     55 C           1.4058  -11.1828  -44.1639 C.2       3 UNK         0.5000 
     56 O           0.3018  -10.6371  -44.1326 O.2       3 UNK        -0.5000 
     57 CA          2.3235  -10.9547  -45.3814 C.3       3 UNK         0.1400 
     58 CB          3.0880   -9.6297  -45.2335 C.3       3 UNK        -0.1800 
     59 N           3.2875  -12.0383  -45.5869 N.am      3 UNK        -0.5000 
     60 C           2.9911  -13.2105  -46.1615 C.2       2 UNK         0.5000 
     61 O           1.8731  -13.5023  -46.5924 O.2       2 UNK        -0.5000 
     62 CA          4.1366  -14.2374  -46.2262 C.3       2 UNK         0.1400 
     63 CB          4.1856  -15.0552  -44.9306 C.3       2 UNK        -0.1800 
     64 N           3.9765  -15.1671  -47.3400 N.am      2 UNK        -0.5000 
     65 C           4.1743  -14.8702  -48.6304 C.2       1 UNK         0.5000 
     66 O           4.5879  -13.7757  -49.0183 O.2       1 UNK        -0.5000 
     67 C          -0.2336  -22.0785  -47.8529 C.2       11 UNK         0.5000 
     68 O          -0.0230  -23.0651  -48.5587 O.2       11 UNK        -0.5000 
     69 N          -1.4260  -21.4739  -47.7459 N.am      12 UNK        -0.5000 
     70 CA         -2.6425  -21.8914  -48.4420 C.3       12 UNK         0.1400 
     71 CB         -3.7833  -20.9187  -48.1152 C.3       12 UNK        -0.1800 
     72 C          -3.0465  -23.3436  -48.1369 C.2       12 UNK         0.5000 
     73 O          -3.3539  -24.0919  -49.0639 O.2       12 UNK        -0.5000 
     74 N          -2.9933  -23.7245  -46.8539 N.am      13 UNK        -0.5000 
     75 CA         -3.2571  -25.0816  -46.3803 C.3       13 UNK         0.1400 
     76 CB         -3.3426  -25.0786  -44.8464 C.3       13 UNK        -0.1800 
     77 C          -2.2133  -26.1046  -46.8660 C.2       13 UNK         0.5000 
     78 O          -2.5934  -27.1981  -47.2856 O.2       13 UNK        -0.5000 
     79 N          -0.9253  -25.7377  -46.8025 N.am      14 UNK        -0.5000 
     80 CA          0.1979  -26.5881  -47.1984 C.3       14 UNK         0.1400 
     81 CB          1.5141  -25.9786  -46.6913 C.3       14 UNK        -0.1800 
     82 C           0.2645  -26.8305  -48.7154 C.2       14 UNK         0.5000 
     83 O           0.4566  -27.9713  -49.1390 O.2       14 UNK        -0.5000 
     84 N           0.1085  -25.7595  -49.5047 N.am      15 UNK        -0.5000 
     85 CA          0.1467  -25.8095  -50.9667 C.3       15 UNK         0.1400 
     86 CB          0.4369  -24.4035  -51.5092 C.3       15 UNK        -0.1800 
     87 C          -1.1501  -26.3628  -51.5835 C.2       15 UNK         0.5000 
     88 O          -1.1071  -26.8871  -52.6972 O.2       15 UNK        -0.5000 
     89 N          -2.2756  -26.2114  -50.8696 N.am      16 UNK        -0.5000 
     90 CA         -3.6521  -26.5978  -51.2053 C.3       16 UNK         0.1400 
     91 CB         -3.7782  -28.1133  -51.4487 C.3       16 UNK        -0.1800 
     92 C          -4.2618  -25.7840  -52.3622 C.2       16 UNK         0.5000 
     93 O          -5.3592  -25.2471  -52.2153 O.2       16 UNK        -0.5000 
     94 N          -3.5362  -25.6727  -53.4817 N.am      17 UNK        -0.5000 
     95 CA         -3.9139  -24.8906  -54.6604 C.3       17 UNK         0.1400 
     96 CB         -2.9314  -25.1927  -55.8012 C.3       17 UNK        -0.1800 
     97 C          -3.9681  -23.3779  -54.3783 C.2       17 UNK         0.5000 
     98 O          -4.8212  -22.6838  -54.9292 O.2       17 UNK        -0.5000 
     99 N          -3.0931  -22.9025  -53.4814 N.am      18 UNK        -0.5000 
    100 CA        -3.0072  -21.5060  -53.0469 C.3       18 UNK         0.1400 
    101 CB        -1.6100  -21.2454  -52.4641 C.3       18 UNK        -0.1800 
    102 C         -4.1207  -21.0808  -52.0647 C.2       18 UNK         0.5000 
    103 O         -4.0832  -19.9531  -51.5780 O.2       18 UNK        -0.5000 
    104 N         -5.0861  -21.9675  -51.7815 N.am      19 UNK        -0.5000 
    105 CA        -6.3295  -21.6242  -51.0928 C.3       19 UNK         0.1400 
    106 CB        -6.8797  -22.8700  -50.3838 C.3       19 UNK        -0.1800 
    107 C         -7.3794  -21.0326  -52.0541 C.2       19 UNK         0.5000 
    108 O         -8.2701  -20.3134  -51.5977 O.2       19 UNK        -0.5000 
    109 N         -7.2654  -21.3211  -53.3607 N.am      20 UNK        -0.5000 
    110 CA        -8.1139  -20.7700  -54.4183 C.3       20 UNK         0.1400 
    111 CB        -8.0711  -21.7041  -55.6404 C.3       20 UNK        -0.1800 
    112 C         -7.6593  -19.3357  -54.7480 C.2       20 UNK         0.5000 
    113 O         -6.9079  -19.1317  -55.7032 O.2       20 UNK        -0.5000 
    114 N         -8.0976  -18.3961  -53.8979 N.am      21 UNK        -0.5000 
    115 CA        -7.6142  -17.0243  -53.7055 C.3       21 UNK         0.1400 
    116 CB        -7.5145  -16.2214  -55.0177 C.3       21 UNK        -0.1800 
    117 C         -6.2886  -17.0312  -52.9205 C.2       21 UNK         0.5000 
    118 O         -5.3659  -17.7632  -53.2760 O.2       21 UNK        -0.5000 
    119 N         -6.2382  -16.2195  -51.8574 N.am      22 UNK        -0.5000 
    120 CA        -5.2065  -16.1962  -50.8003 C.3       22 UNK         0.1400 
    121 C         -5.4300  -17.2411  -49.6628 C.2       22 UNK         0.5000 
    122 N         -6.4969  -18.0321  -49.6785 N.am      22 UNK        -0.7600 
    123 O         -4.6613  -17.2964  -48.7091 O.2       22 UNK        -0.5000 
    124 C124       -3.7358  -16.1598  -51.3244 C.3       23 UNK        -0.0398 
    125 S125       -2.7111  -14.9105  -50.4756 S.3       23 UNK        -0.2404 
    126 C126       -1.5853  -15.9311  -49.4660 C.3       23 UNK        -0.0205 
    127 H127        5.9232  -19.8184  -49.1165 H         1 UNK         0.0600 
    128 H128        4.8816  -19.4301  -47.7398 H         1 UNK         0.0600 
    129 H129        6.6138  -19.1253  -47.6444 H         1 UNK         0.0600 
    130 H130        3.5429  -17.9852  -48.9585 H         1 UNK         0.3000 
    131 H131        2.7816  -16.0708  -49.6526 H         1 UNK         0.0600 
    132 H132        5.3744  -15.3299  -51.0804 H         1 UNK         0.0800 
    133 H133        4.4405  -16.6849  -51.6297 H         1 UNK         0.0800 
    134 H134        2.7647  -16.4975  -53.4815 H         1 UNK         0.0800 
    135 H135        1.5179  -15.2781  -53.5536 H         1 UNK         0.0800 
    136 H136        0.0896  -14.9063  -51.3742 H         1 UNK         0.1150 
    137 H137       -0.8490  -18.5480  -49.3140 H         1 UNK         0.1150 
    138 H138        2.3730  -18.4495  -52.1410 H         1 UNK         0.1150 
    139 H139        0.1691  -20.6420  -50.1636 H         1 UNK         0.0800 
    140 H140        1.4278  -20.5952  -51.3576 H         1 UNK         0.0800 
    141 H141        0.6334  -19.4363  -47.7319 H         1 UNK         0.0800 
    142 H142        2.1249  -19.6994  -46.8883 H         1 UNK         0.0800 
    143 H143        1.7326  -22.2160  -47.0233 H         1 UNK         0.0600 
    144 H144        0.5463  -20.4236  -45.2064 H         1 UNK         0.3000 
    145 H145       -1.0403  -22.8367  -43.0649 H         1 UNK         0.0600 
    146 H146        1.3374  -20.9358  -42.7268 H         1 UNK         0.0600 
    147 H147        0.3117  -21.5445  -41.4289 H         1 UNK         0.0600 
    148 H148        1.3249  -22.6503  -42.3439 H         1 UNK         0.0600 
    149 H149       -1.0273  -20.0067  -42.9451 H         1 UNK         0.3000 
    150 H150       -3.9091  -19.4539  -45.0305 H         1 UNK         0.0600 
    151 H151       -4.7351  -20.0200  -42.7392 H         1 UNK         0.0600 
    152 H152       -4.6296  -18.2828  -42.9798 H         1 UNK         0.0600 
    153 H153       -3.4034  -19.1163  -42.0279 H         1 UNK         0.0600 
    154 H154       -2.2628  -17.6076  -43.6578 H         1 UNK         0.3000 
    155 H155        0.1487  -17.1013  -46.2896 H         1 UNK         0.0600 
    156 H156       -1.9239  -15.3497  -44.8707 H         1 UNK         0.0600 
    157 H157       -0.5724  -14.8034  -45.8580 H         1 UNK         0.0600 
    158 H158       -1.9229  -15.6602  -46.5936 H         1 UNK         0.0600 
    159 H159        0.0603  -16.0460  -43.6602 H         1 UNK         0.3000 
    160 H160        1.7999  -18.6783  -41.9636 H         1 UNK         0.0600 
    161 H161        3.5766  -17.2296  -42.9478 H         1 UNK         0.0600 
    162 H162        2.6057  -15.7998  -42.5922 H         1 UNK         0.0600 
    163 H163        3.2289  -16.7968  -41.2819 H         1 UNK         0.0600 
    164 H164        0.6336  -16.1302  -41.2121 H         1 UNK         0.3000 
    165 H165       -2.4618  -17.4996  -40.0971 H         1 UNK         0.0600 
    166 H166       -1.7209  -16.4411  -37.9828 H         1 UNK         0.0600 
    167 H167       -0.8463  -17.9416  -38.2431 H         1 UNK         0.0600 
    168 H168       -0.0512  -16.4022  -38.5500 H         1 UNK         0.0600 
    169 H169       -1.3488  -14.8616  -40.0055 H         1 UNK         0.3000 
    170 H170       -2.5841  -13.7739  -43.1728 H         1 UNK         0.0600 
    171 H171       -4.5462  -13.6931  -41.6234 H         1 UNK         0.0600 
    172 H172       -3.5026  -13.1357  -40.3210 H         1 UNK         0.0600 
    173 H173       -3.7530  -12.1319  -41.7498 H         1 UNK         0.0600 
    174 H174       -1.3255  -12.2386  -41.2314 H         1 UNK         0.3000 
    175 H175        0.6819  -11.4161  -41.5600 H         1 UNK         0.0600 
    176 H176        2.5964  -13.8011  -41.3086 H         1 UNK         0.0600 
    177 H177        2.8494  -12.1875  -40.6492 H         1 UNK         0.0600 
    178 H178        1.5547  -13.1973  -40.0261 H         1 UNK         0.0600 
    179 H179        2.7760  -12.3988  -43.2998 H         1 UNK         0.3000 
    180 H180        1.6855  -10.8791  -46.2647 H         1 UNK         0.0600 
    181 H181        3.7526   -9.6415  -44.3687 H         1 UNK         0.0600 
    182 H182        2.3992   -8.7934  -45.1065 H         1 UNK         0.0600 
    183 H183        3.6901   -9.4209  -46.1181 H         1 UNK         0.0600 
    184 H184        4.2290  -11.8713  -45.2615 H         1 UNK         0.3000 
    185 H185        5.0833  -13.7062  -46.3466 H         1 UNK         0.0600 
    186 H186        5.0262  -15.7495  -44.9305 H         1 UNK         0.0600 
    187 H187        4.2931  -14.4127  -44.0558 H         1 UNK         0.0600 
    188 H188        3.2703  -15.6346  -44.8094 H         1 UNK         0.0600 
    189 H189        3.6243  -16.0838  -47.1106 H         1 UNK         0.3000 
    190 H190       -1.5064  -20.6492  -47.1555 H         1 UNK         0.3000 
    191 H191       -2.4469  -21.8275  -49.5117 H         1 UNK         0.0600 
    192 H192       -3.9630  -20.8491  -47.0435 H         1 UNK         0.0600 
    193 H193       -4.7143  -21.2398  -48.5792 H         1 UNK         0.0600 
    194 H194       -3.5626  -19.9166  -48.4844 H         1 UNK         0.0600 
    195 H195       -2.7705  -23.0295  -46.1460 H         1 UNK         0.3000 
    196 H196       -4.2290  -25.3880  -46.7727 H         1 UNK         0.0600 
    197 H197       -3.5533  -26.0779  -44.4637 H         1 UNK         0.0600 
    198 H198       -4.1398  -24.4215  -44.4982 H         1 UNK         0.0600 
    199 H199       -2.4105  -24.7408  -44.3921 H         1 UNK         0.0600 
    200 H200       -0.6879  -24.8314  -46.4083 H         1 UNK         0.3000 
    201 H201        0.0706  -27.5585  -46.7139 H         1 UNK         0.0600 
    202 H202        1.5191  -25.9035  -45.6039 H         1 UNK         0.0600 
    203 H203        1.6771  -24.9789  -47.0962 H         1 UNK         0.0600 
    204 H204        2.3677  -26.5939  -46.9782 H         1 UNK         0.0600 
    205 H205       -0.0160  -24.8415  -49.0807 H         1 UNK         0.3000 
    206 H206        0.9643  -26.4650  -51.2740 H         1 UNK         0.0600 
    207 H207        1.3909  -24.0264  -51.1402 H         1 UNK         0.0600 
    208 H208        0.4820  -24.3996  -52.5991 H         1 UNK         0.0600 
    209 H209       -0.3369  -23.7013  -51.2058 H         1 UNK         0.0600 
    210 H210       -2.2017  -25.6980  -49.9991 H         1 UNK         0.3000 
    211 H211       -4.2425  -26.3657  -50.3174 H         1 UNK         0.0600 
    212 H212       -3.2367  -28.4347  -52.3385 H         1 UNK         0.0600 
    213 H213       -4.8223  -28.3973  -51.5847 H         1 UNK         0.0600 
    214 H214       -3.3950  -28.6795  -50.5996 H         1 UNK         0.0600 
    215 H215       -2.6361  -26.1455  -53.5016 H         1 UNK         0.3000 
    216 H216       -4.9117  -25.2069  -54.9715 H         1 UNK         0.0600 
    217 H217       -3.1947  -24.6360  -56.7016 H         1 UNK         0.0600 
    218 H218       -2.9419  -26.2517  -56.0597 H         1 UNK         0.0600 
    219 H219       -1.9088  -24.9230  -55.5340 H         1 UNK         0.0600 
    220 H220       -2.4502  -23.5516  -53.0538 H         1 UNK         0.3000 
    221 H221       -3.1170  -20.8715  -53.9290 H         1 UNK         0.0600 
    222 H222       -1.4529  -21.8039  -51.5448 H         1 UNK         0.0600 
    223 H223       -0.8253  -21.5229  -53.1680 H         1 UNK         0.0600 
    224 H224       -1.4748  -20.1882  -52.2312 H         1 UNK         0.0600 
    225 H225       -5.0280  -22.8998  -52.1693 H         1 UNK         0.3000 
    226 H226       -6.1257  -20.8673  -50.3344 H         1 UNK         0.0600 
    227 H227       -6.1369  -23.3056  -49.7149 H         1 UNK         0.0600 
    228 H228       -7.7544  -22.6200  -49.7825 H         1 UNK         0.0600 
    229 H229       -7.1820  -23.6381  -51.0961 H         1 UNK         0.0600 
    230 H230       -6.4698  -21.8632  -53.6741 H         1 UNK         0.3000 
    231 H231       -9.1480  -20.7337  -54.0685 H         1 UNK         0.0600 
    232 H232       -8.7195  -21.3326  -56.4347 H         1 UNK         0.0600 
    233 H233       -8.4133  -22.7065  -55.3825 H         1 UNK         0.0600 
    234 H234       -7.0659  -21.7907  -56.0534 H         1 UNK         0.0600 
    235 H235       -8.6630  -18.7406  -53.1311 H         1 UNK         0.3000 
    236 H236       -8.3728  -16.5396  -53.0888 H         1 UNK         0.0600 
    237 H237       -7.3442  -15.1650  -54.8080 H         1 UNK         0.0600 
    238 H238       -8.4336  -16.2949  -55.5990 H         1 UNK         0.0600 
    239 H239       -6.6889  -16.5588  -55.6446 H         1 UNK         0.0600 
    240 H240       -7.0419  -15.6379  -51.6653 H         1 UNK         0.3000 
    241 H241       -5.3987  -15.2425  -50.3077 H         1 UNK         0.0600 
    242 H242       -7.1527  -18.0119  -50.4413 H         1 UNK         0.3800 
    243 H243       -6.6368  -18.6710  -48.9135 H         1 UNK         0.3800 
    244 H244       -3.2672  -17.1449  -51.2738 H         1 UNK         0.0800 
    245 H245       -3.7133  -15.8836  -52.3787 H         1 UNK         0.0800 
    246 H246       -1.0820  -15.2749  -48.7556 H         1 UNK         0.0800 
    247 H247       -2.1670  -16.6387  -48.8746 H         1 UNK         0.0800 
@<TRIPOS>BOND
     1    1    2 1    
     2    1  127 1    
     3    1  128 1    
     4    1  129 1    
     5    2    3 2    
     6    2    4 am   BACKBONE|DICT|INTERRES
     7    4    5 1    
     8    4  130 1    
     9    5    6 1    
    10    5   65 1    
    11    5  131 1    
    12    6    7 1    
    13    6  132 1    
    14    6  133 1    
    15    7    8 1    
    16    8    9 1    
    17    8  134 1    
    18    8  135 1    
    19    9   10 ar   
    20    9   14 ar   
    21   10   11 ar   
    22   10  136 1    
    23   11   12 ar   
    24   11  126 1    
    25   12   13 ar   
    26   12  137 1    
    27   13   14 ar   
    28   13   15 1    
    29   14  138 1    
    30   15   16 1    
    31   15  139 1    
    32   15  140 1    
    33   16   17 1    
    34   17   18 1    
    35   17  141 1    
    36   17  142 1    
    37   18   19 1    
    38   18   67 1    
    39   18  143 1    
    40   19   20 am   BACKBONE|DICT|INTERRES
    41   19  144 1    
    42   20   21 2    
    43   20   22 1    
    44   22   23 1    
    45   22   24 1    
    46   22  145 1    
    47   23  146 1    
    48   23  147 1    
    49   23  148 1    
    50   24   25 am   BACKBONE|DICT|INTERRES
    51   24  149 1    
    52   25   26 2    
    53   25   27 1    
    54   27   28 1    
    55   27   29 1    
    56   27  150 1    
    57   28  151 1    
    58   28  152 1    
    59   28  153 1    
    60   29   30 am   BACKBONE|DICT|INTERRES
    61   29  154 1    
    62   30   31 2    
    63   30   32 1    
    64   32   33 1    
    65   32   34 1    
    66   32  155 1    
    67   33  156 1    
    68   33  157 1    
    69   33  158 1    
    70   34   35 am   BACKBONE|DICT|INTERRES
    71   34  159 1    
    72   35   36 2    
    73   35   37 1    
    74   37   38 1    
    75   37   39 1    
    76   37  160 1    
    77   38  161 1    
    78   38  162 1    
    79   38  163 1    
    80   39   40 am   BACKBONE|DICT|INTERRES
    81   39  164 1    
    82   40   41 2    
    83   40   42 1    
    84   42   43 1    
    85   42   44 1    
    86   42  165 1    
    87   43  166 1    
    88   43  167 1    
    89   43  168 1    
    90   44   45 am   BACKBONE|DICT|INTERRES
    91   44  169 1    
    92   45   46 2    
    93   45   47 1    
    94   47   48 1    
    95   47   49 1    
    96   47  170 1    
    97   48  171 1    
    98   48  172 1    
    99   48  173 1    
   100   49   50 am   BACKBONE|DICT|INTERRES
   101   49  174 1    
   102   50   51 2    
   103   50   52 1    
   104   52   53 1    
   105   52   54 1    
   106   52  175 1    
   107   53  176 1    
   108   53  177 1    
   109   53  178 1    
   110   54   55 am   BACKBONE|DICT|INTERRES
   111   54  179 1    
   112   55   56 2    
   113   55   57 1    
   114   57   58 1    
   115   57   59 1    
   116   57  180 1    
   117   58  181 1    
   118   58  182 1    
   119   58  183 1    
   120   59   60 am   BACKBONE|DICT|INTERRES
   121   59  184 1    
   122   60   61 2    
   123   60   62 1    
   124   62   63 1    
   125   62   64 1    
   126   62  185 1    
   127   63  186 1    
   128   63  187 1    
   129   63  188 1    
   130   64   65 am   BACKBONE|DICT|INTERRES
   131   64  189 1    
   132   65   66 2    
   133   67   68 2    
   134   67   69 am   BACKBONE|DICT|INTERRES
   135   69   70 1    
   136   69  190 1    
   137   70   71 1    
   138   70   72 1    
   139   70  191 1    
   140   71  192 1    
   141   71  193 1    
   142   71  194 1    
   143   72   73 2    
   144   72   74 am   BACKBONE|DICT|INTERRES
   145   74   75 1    
   146   74  195 1    
   147   75   76 1    
   148   75   77 1    
   149   75  196 1    
   150   76  197 1    
   151   76  198 1    
   152   76  199 1    
   153   77   78 2    
   154   77   79 am   BACKBONE|DICT|INTERRES
   155   79   80 1    
   156   79  200 1    
   157   80   81 1    
   158   80   82 1    
   159   80  201 1    
   160   81  202 1    
   161   81  203 1    
   162   81  204 1    
   163   82   83 2    
   164   82   84 am   BACKBONE|DICT|INTERRES
   165   84   85 1    
   166   84  205 1    
   167   85   86 1    
   168   85   87 1    
   169   85  206 1    
   170   86  207 1    
   171   86  208 1    
   172   86  209 1    
   173   87   88 2    
   174   87   89 am   BACKBONE|DICT|INTERRES
   175   89   90 1    
   176   89  210 1    
   177   90   91 1    
   178   90   92 1    
   179   90  211 1    
   180   91  212 1    
   181   91  213 1    
   182   91  214 1    
   183   92   93 2    
   184   92   94 am   BACKBONE|DICT|INTERRES
   185   94   95 1    
   186   94  215 1    
   187   95   96 1    
   188   95   97 1    
   189   95  216 1    
   190   96  217 1    
   191   96  218 1    
   192   96  219 1    
   193   97   98 2    
   194   97   99 am   BACKBONE|DICT|INTERRES
   195   99  100 1    
   196   99  220 1    
   197  100  101 1    
   198  100  102 1    
   199  100  221 1    
   200  101  222 1    
   201  101  223 1    
   202  101  224 1    
   203  102  103 2    
   204  102  104 am   BACKBONE|DICT|INTERRES
   205  104  105 1    
   206  104  225 1    
   207  105  106 1    
   208  105  107 1    
   209  105  226 1    
   210  106  227 1    
   211  106  228 1    
   212  106  229 1    
   213  107  108 2    
   214  107  109 am   BACKBONE|DICT|INTERRES
   215  109  110 1    
   216  109  230 1    
   217  110  111 1    
   218  110  112 1    
   219  110  231 1    
   220  111  232 1    
   221  111  233 1    
   222  111  234 1    
   223  112  113 2    
   224  112  114 am   BACKBONE|DICT|INTERRES
   225  114  115 1    
   226  114  235 1    
   227  115  116 1    
   228  115  117 1    
   229  115  236 1    
   230  116  237 1    
   231  116  238 1    
   232  116  239 1    
   233  117  118 2    
   234  117  119 am   BACKBONE|DICT|INTERRES
   235  119  120 1    
   236  119  240 1    
   237  120  121 1    
   238  120  124 1    
   239  120  241 1    
   240  121  122 am   BACKBONE|DICT|INTERRES
   241  121  123 2    
   242  122  242 1    
   243  122  243 1    
   244  124  125 1    
   245  124  244 1    
   246  124  245 1    
   247  125  126 1    
   248  126  246 1    
   249  126  247 1    
@<TRIPOS>SUBSTRUCTURE
     1 UNK         1 GROUP             0       ****    0 ROOT    
