@<TRIPOS>MOLECULE
3R540
247   249    1
SMALL
USER_CHARGES


@<TRIPOS>ATOM
      1 CA         -3.3665  -14.8201  -50.4324 C.3       0 UNK        -0.1800 
      2 C          -2.6423  -14.1842  -49.2543 C.2       0 UNK         0.5000 
      3 O          -2.2497  -13.0190  -49.3262 O.2       0 UNK        -0.5000 
      4 N          -2.4577  -14.9434  -48.1692 N.am      1 UNK        -0.5000 
      5 CA         -1.8846  -14.4770  -46.9040 C.3       1 UNK         0.1400 
      6 C6         -1.5214  -15.6563  -45.9612 C.3       23 UNK        -0.0398 
      7 S7         -2.8819  -16.8618  -45.7311 S.3       23 UNK        -0.2404 
      8 C8         -2.0374  -18.4780  -45.6958 C.3       23 UNK        -0.0205 
      9 C9         -1.0631  -18.6958  -46.8450 C.ar      23 UNK        -0.0193 
     10 C10        -1.4922  -18.5892  -48.1710 C.ar      23 UNK        -0.1150 
     11 C11        -0.5905  -18.7656  -49.2239 C.ar      23 UNK        -0.0193 
     12 C12         0.7387  -19.0915  -48.9434 C.ar      23 UNK        -0.1150 
     13 C13         1.1809  -19.1993  -47.6233 C.ar      23 UNK        -0.0193 
     14 C14         0.2763  -18.9953  -46.5779 C.ar      23 UNK        -0.1150 
     15 C15         2.6461  -19.4919  -47.3378 C.3       23 UNK        -0.0205 
     16 S16         3.0328  -21.2649  -47.4296 S.3       23 UNK        -0.2404 
     17 C17         2.3426  -21.8729  -45.8555 C.3       23 UNK        -0.0398 
     18 CA          1.5064  -23.1582  -46.0410 C.3       11 UNK         0.1400 
     19 N           1.4293  -23.9325  -44.8028 N.am      11 UNK        -0.5000 
     20 C           1.0736  -25.2220  -44.7347 C.2       10 UNK         0.5000 
     21 O           0.7933  -25.9097  -45.7163 O.2       10 UNK        -0.5000 
     22 CA          0.9801  -25.8279  -43.3232 C.3       10 UNK         0.1400 
     23 CB          2.3588  -26.3083  -42.8463 C.3       10 UNK        -0.1800 
     24 N           0.4294  -24.8831  -42.3489 N.am      10 UNK        -0.5000 
     25 C          -0.8387  -24.4510  -42.3622 C.2       9 UNK         0.5000 
     26 O          -1.6775  -24.8228  -43.1830 O.2       9 UNK        -0.5000 
     27 CA         -1.2207  -23.3972  -41.3074 C.3       9 UNK         0.1400 
     28 CB         -1.5631  -24.0708  -39.9701 C.3       9 UNK        -0.1800 
     29 N          -0.1921  -22.3734  -41.0896 N.am      9 UNK        -0.5000 
     30 C           0.2225  -21.5066  -42.0219 C.2       8 UNK         0.5000 
     31 O          -0.1351  -21.5433  -43.2015 O.2       8 UNK        -0.5000 
     32 CA          1.1981  -20.4108  -41.5805 C.3       8 UNK         0.1400 
     33 CB          2.6482  -20.7930  -41.9266 C.3       8 UNK        -0.1800 
     34 N           0.8038  -19.1931  -42.2785 N.am      8 UNK        -0.5000 
     35 C           1.1633  -17.9454  -41.9665 C.2       7 UNK         0.5000 
     36 O           1.9371  -17.6565  -41.0508 O.2       7 UNK        -0.5000 
     37 CA          0.5100  -16.8248  -42.7975 C.3       7 UNK         0.1400 
     38 CB         -0.5966  -16.1237  -41.9938 C.3       7 UNK        -0.1800 
     39 N           1.4839  -15.8308  -43.2430 N.am      7 UNK        -0.5000 
     40 C           2.4225  -16.0674  -44.1666 C.2       6 UNK         0.5000 
     41 O           2.5756  -17.1551  -44.7245 O.2       6 UNK        -0.5000 
     42 CA          3.3470  -14.8909  -44.5317 C.3       6 UNK         0.1400 
     43 CB          4.7054  -15.0320  -43.8283 C.3       6 UNK        -0.1800 
     44 N           3.5599  -14.8035  -45.9781 N.am      6 UNK        -0.5000 
     45 C           2.5946  -14.5196  -46.8605 C.2       5 UNK         0.5000 
     46 O           1.4365  -14.2467  -46.5408 O.2       5 UNK        -0.5000 
     47 CA          2.9735  -14.5588  -48.3455 C.3       5 UNK         0.1400 
     48 CB          2.9414  -16.0023  -48.8782 C.3       5 UNK        -0.1800 
     49 N           2.0196  -13.7365  -49.0800 N.am      5 UNK        -0.5000 
     50 C           2.1900  -13.2389  -50.3079 C.2       4 UNK         0.5000 
     51 O           3.2056  -13.4156  -50.9820 O.2       4 UNK        -0.5000 
     52 CA          1.0367  -12.3983  -50.8842 C.3       4 UNK         0.1400 
     53 CB          0.1215  -13.2715  -51.7538 C.3       4 UNK        -0.1800 
     54 N           0.2317  -11.7350  -49.8541 N.am      4 UNK        -0.5000 
     55 C           0.5897  -10.5968  -49.2458 C.2       3 UNK         0.5000 
     56 O           1.6649  -10.0276  -49.4387 O.2       3 UNK        -0.5000 
     57 CA         -0.4335   -9.9748  -48.2786 C.3       3 UNK         0.1400 
     58 CB         -1.6407   -9.4087  -49.0438 C.3       3 UNK        -0.1800 
     59 N          -0.9034  -10.9050  -47.2525 N.am      3 UNK        -0.5000 
     60 C          -0.1687  -11.3265  -46.2136 C.2       2 UNK         0.5000 
     61 O           1.0093  -11.0090  -46.0483 O.2       2 UNK        -0.5000 
     62 CA         -0.8642  -12.2139  -45.1560 C.3       2 UNK         0.1400 
     63 CB         -0.7764  -11.5657  -43.7646 C.3       2 UNK        -0.1800 
     64 N          -2.2793  -12.4741  -45.4465 N.am      2 UNK        -0.5000 
     65 C          -2.8083  -13.4431  -46.2083 C.2       1 UNK         0.5000 
     66 O          -4.0283  -13.5270  -46.3569 O.2       1 UNK        -0.5000 
     67 C           0.1014  -22.8816  -46.6126 C.2       11 UNK         0.5000 
     68 O          -0.1011  -23.0371  -47.8154 O.2       11 UNK        -0.5000 
     69 N          -0.8604  -22.5593  -45.7339 N.am      12 UNK        -0.5000 
     70 CA         -2.2777  -22.4141  -46.0637 C.3       12 UNK         0.1400 
     71 CB         -3.0625  -21.9730  -44.8182 C.3       12 UNK        -0.1800 
     72 C          -2.8741  -23.7080  -46.6419 C.2       12 UNK         0.5000 
     73 O          -3.5505  -23.6520  -47.6681 O.2       12 UNK        -0.5000 
     74 N          -2.5804  -24.8490  -46.0014 N.am      13 UNK        -0.5000 
     75 CA         -2.9795  -26.1829  -46.4517 C.3       13 UNK         0.1400 
     76 CB         -2.6065  -27.2242  -45.3863 C.3       13 UNK        -0.1800 
     77 C          -2.3806  -26.5535  -47.8210 C.2       13 UNK         0.5000 
     78 O          -3.1118  -27.0355  -48.6873 O.2       13 UNK        -0.5000 
     79 N          -1.0824  -26.2730  -48.0126 N.am      14 UNK        -0.5000 
     80 CA         -0.3702  -26.4470  -49.2830 C.3       14 UNK         0.1400 
     81 CB          1.1289  -26.1868  -49.0732 C.3       14 UNK        -0.1800 
     82 C          -0.9267  -25.5582  -50.4136 C.2       14 UNK         0.5000 
     83 O          -0.9717  -25.9927  -51.5643 O.2       14 UNK        -0.5000 
     84 N          -1.3957  -24.3569  -50.0544 N.am      15 UNK        -0.5000 
     85 CA         -2.0889  -23.4037  -50.9201 C.3       15 UNK         0.1400 
     86 CB         -1.8509  -21.9835  -50.3804 C.3       15 UNK        -0.1800 
     87 C          -3.5962  -23.7015  -51.0845 C.2       15 UNK         0.5000 
     88 O          -4.3458  -22.7921  -51.4411 O.2       15 UNK        -0.5000 
     89 N          -4.0206  -24.9476  -50.8239 N.am      16 UNK        -0.5000 
     90 CA         -5.3767  -25.4817  -50.9887 C.3       16 UNK         0.1400 
     91 CB         -5.7722  -25.5094  -52.4803 C.3       16 UNK        -0.1800 
     92 C          -6.4154  -24.7726  -50.0966 C.2       16 UNK         0.5000 
     93 O          -7.4865  -24.3917  -50.5712 O.2       16 UNK        -0.5000 
     94 N          -6.0594  -24.6110  -48.8147 N.am      17 UNK        -0.5000 
     95 CA         -6.7908  -23.8833  -47.7721 C.3       17 UNK         0.1400 
     96 CB         -8.1794  -24.5025  -47.5054 C.3       17 UNK        -0.1800 
     97 C          -6.8273  -22.3693  -48.0612 C.2       17 UNK         0.5000 
     98 O          -7.8825  -21.7399  -47.9677 O.2       17 UNK        -0.5000 
     99 N          -5.6478  -21.8296  -48.4033 N.am      18 UNK        -0.5000 
    100 CA        -5.3584  -20.4313  -48.7284 C.3       18 UNK         0.1400 
    101 CB        -5.4796  -19.5493  -47.4691 C.3       18 UNK        -0.1800 
    102 C         -6.1935  -19.9109  -49.9167 C.2       18 UNK         0.5000 
    103 O         -6.8533  -18.8759  -49.8129 O.2       18 UNK        -0.5000 
    104 N         -6.1294  -20.6323  -51.0435 N.am      19 UNK        -0.5000 
    105 CA        -6.8362  -20.3275  -52.2929 C.3       19 UNK         0.1400 
    106 CB        -6.9925  -21.6292  -53.0974 C.3       19 UNK        -0.1800 
    107 C         -6.1596  -19.2266  -53.1423 C.2       19 UNK         0.5000 
    108 O         -6.5366  -19.0420  -54.3002 O.2       19 UNK        -0.5000 
    109 N         -5.1674  -18.5304  -52.5669 N.am      20 UNK        -0.5000 
    110 CA        -4.3595  -17.4581  -53.1586 C.3       20 UNK         0.1400 
    111 CB        -5.2258  -16.2417  -53.5446 C.3       20 UNK        -0.1800 
    112 C         -3.4395  -17.9379  -54.2995 C.2       20 UNK         0.5000 
    113 O         -3.0643  -17.1455  -55.1652 O.2       20 UNK        -0.5000 
    114 N         -3.0295  -19.2151  -54.2422 N.am      21 UNK        -0.5000 
    115 CA        -2.0604  -19.8466  -55.1493 C.3       21 UNK         0.1400 
    116 CB        -1.9591  -21.3384  -54.7930 C.3       21 UNK        -0.1800 
    117 C         -0.6632  -19.1869  -55.1161 C.2       21 UNK         0.5000 
    118 O          0.0860  -19.2728  -56.0891 O.2       21 UNK        -0.5000 
    119 N         -0.3666  -18.5207  -53.9966 N.am      22 UNK        -0.5000 
    120 CA         0.7718  -17.6250  -53.7628 C.3       22 UNK         0.1400 
    121 C          0.7146  -16.2719  -54.5351 C.2       22 UNK         0.5000 
    122 N         -0.3983  -15.8875  -55.1507 N.am      22 UNK        -0.7600 
    123 O          1.7137  -15.5609  -54.5912 O.2       22 UNK        -0.5000 
    124 C124        0.9888  -17.4093  -52.2390 C.3       23 UNK        -0.0398 
    125 S125       -0.5478  -16.9775  -51.3358 S.3       23 UNK        -0.2404 
    126 C126       -1.0515  -18.5926  -50.6607 C.3       23 UNK        -0.0205 
    127 H127       -2.7608  -14.7429  -51.3352 H         1 UNK         0.0600 
    128 H128       -4.3119  -14.3086  -50.6116 H         1 UNK         0.0600 
    129 H129       -3.5772  -15.8744  -50.2521 H         1 UNK         0.0600 
    130 H130       -2.8238  -15.8833  -48.1456 H         1 UNK         0.3000 
    131 H131       -0.9634  -13.9684  -47.1802 H         1 UNK         0.0600 
    132 H132       -0.6441  -16.1596  -46.3663 H         1 UNK         0.0800 
    133 H133       -1.2103  -15.2962  -44.9811 H         1 UNK         0.0800 
    134 H134       -2.8006  -19.2521  -45.7441 H         1 UNK         0.0800 
    135 H135       -1.5425  -18.6005  -44.7328 H         1 UNK         0.0800 
    136 H136       -2.5241  -18.3469  -48.3794 H         1 UNK         0.1150 
    137 H137        1.4406  -19.2417  -49.7497 H         1 UNK         0.1150 
    138 H138        0.6209  -19.0598  -45.5560 H         1 UNK         0.1150 
    139 H139        3.2668  -18.9689  -48.0654 H         1 UNK         0.0800 
    140 H140        2.9375  -19.1067  -46.3608 H         1 UNK         0.0800 
    141 H141        1.7675  -21.0979  -45.3483 H         1 UNK         0.0800 
    142 H142        3.1967  -22.0776  -45.2086 H         1 UNK         0.0800 
    143 H143        2.0271  -23.7885  -46.7657 H         1 UNK         0.0600 
    144 H144        1.5881  -23.4316  -43.9419 H         1 UNK         0.3000 
    145 H145        0.3158  -26.6933  -43.3752 H         1 UNK         0.0600 
    146 H146        2.2898  -26.8042  -41.8780 H         1 UNK         0.0600 
    147 H147        2.7853  -27.0262  -43.5482 H         1 UNK         0.0600 
    148 H148        3.0649  -25.4824  -42.7515 H         1 UNK         0.0600 
    149 H149        1.0559  -24.5304  -41.6404 H         1 UNK         0.3000 
    150 H150       -2.1181  -22.8896  -41.6677 H         1 UNK         0.0600 
    151 H151       -2.3391  -24.8263  -40.1007 H         1 UNK         0.0600 
    152 H152       -1.9373  -23.3454  -39.2475 H         1 UNK         0.0600 
    153 H153       -0.6946  -24.5644  -39.5322 H         1 UNK         0.0600 
    154 H154        0.1585  -22.2845  -40.1466 H         1 UNK         0.3000 
    155 H155        1.1023  -20.2556  -40.5039 H         1 UNK         0.0600 
    156 H156        3.3515  -20.0383  -41.5749 H         1 UNK         0.0600 
    157 H157        2.7891  -20.9011  -43.0020 H         1 UNK         0.0600 
    158 H158        2.9275  -21.7377  -41.4588 H         1 UNK         0.0600 
    159 H159        0.1525  -19.3629  -43.0337 H         1 UNK         0.3000 
    160 H160        0.0563  -17.2626  -43.6878 H         1 UNK         0.0600 
    161 H161       -0.2033  -15.6593  -41.0886 H         1 UNK         0.0600 
    162 H162       -1.3660  -16.8346  -41.6900 H         1 UNK         0.0600 
    163 H163       -1.0874  -15.3477  -42.5808 H         1 UNK         0.0600 
    164 H164        1.4495  -14.9302  -42.7890 H         1 UNK         0.3000 
    165 H165        2.8817  -13.9589  -44.2028 H         1 UNK         0.0600 
    166 H166        5.3525  -14.1816  -44.0437 H         1 UNK         0.0600 
    167 H167        4.5807  -15.0795  -42.7457 H         1 UNK         0.0600 
    168 H168        5.2262  -15.9390  -44.1383 H         1 UNK         0.0600 
    169 H169        4.4774  -15.0567  -46.3135 H         1 UNK         0.3000 
    170 H170        3.9750  -14.1400  -48.4624 H         1 UNK         0.0600 
    171 H171        1.9459  -16.4381  -48.7840 H         1 UNK         0.0600 
    172 H172        3.2282  -16.0493  -49.9285 H         1 UNK         0.0600 
    173 H173        3.6351  -16.6353  -48.3250 H         1 UNK         0.0600 
    174 H174        1.1801  -13.5129  -48.5615 H         1 UNK         0.3000 
    175 H175        1.4767  -11.6347  -51.5292 H         1 UNK         0.0600 
    176 H176       -0.6777  -12.6842  -52.2060 H         1 UNK         0.0600 
    177 H177       -0.3364  -14.0675  -51.1690 H         1 UNK         0.0600 
    178 H178        0.6811  -13.7414  -52.5634 H         1 UNK         0.0600 
    179 H179       -0.6777  -12.1448  -49.6458 H         1 UNK         0.3000 
    180 H180        0.0579   -9.1391  -47.7753 H         1 UNK         0.0600 
    181 H181       -2.2160  -10.1952  -49.5338 H         1 UNK         0.0600 
    182 H182       -1.3202   -8.7074  -49.8153 H         1 UNK         0.0600 
    183 H183       -2.3127   -8.8701  -48.3755 H         1 UNK         0.0600 
    184 H184       -1.8586  -11.2223  -47.3343 H         1 UNK         0.3000 
    185 H185       -0.3185  -13.1534  -45.0968 H         1 UNK         0.0600 
    186 H186       -1.2805  -10.5988  -43.7378 H         1 UNK         0.0600 
    187 H187       -1.2290  -12.2022  -43.0037 H         1 UNK         0.0600 
    188 H188        0.2614  -11.4032  -43.4701 H         1 UNK         0.0600 
    189 H189       -2.9207  -11.8224  -45.0183 H         1 UNK         0.3000 
    190 H190       -0.6042  -22.3972  -44.7632 H         1 UNK         0.3000 
    191 H191       -2.3610  -21.6319  -46.8210 H         1 UNK         0.0600 
    192 H192       -3.0940  -22.7546  -44.0599 H         1 UNK         0.0600 
    193 H193       -2.6206  -21.0915  -44.3558 H         1 UNK         0.0600 
    194 H194       -4.0937  -21.7291  -45.0756 H         1 UNK         0.0600 
    195 H195       -2.0574  -24.8002  -45.1322 H         1 UNK         0.3000 
    196 H196       -4.0664  -26.1832  -46.5560 H         1 UNK         0.0600 
    197 H197       -2.9154  -28.2244  -45.6923 H         1 UNK         0.0600 
    198 H198       -3.0969  -27.0082  -44.4370 H         1 UNK         0.0600 
    199 H199       -1.5317  -27.2524  -45.2069 H         1 UNK         0.0600 
    200 H200       -0.5392  -25.9120  -47.2346 H         1 UNK         0.3000 
    201 H201       -0.4939  -27.4872  -49.5909 H         1 UNK         0.0600 
    202 H202        1.5440  -26.8561  -48.3195 H         1 UNK         0.0600 
    203 H203        1.3189  -25.1625  -48.7524 H         1 UNK         0.0600 
    204 H204        1.6863  -26.3500  -49.9963 H         1 UNK         0.0600 
    205 H205       -1.2561  -24.0576  -49.0940 H         1 UNK         0.3000 
    206 H206       -1.6501  -23.4563  -51.9182 H         1 UNK         0.0600 
    207 H207       -0.7854  -21.7632  -50.3128 H         1 UNK         0.0600 
    208 H208       -2.2977  -21.2338  -51.0332 H         1 UNK         0.0600 
    209 H209       -2.2782  -21.8543  -49.3861 H         1 UNK         0.0600 
    210 H210       -3.3404  -25.6081  -50.4709 H         1 UNK         0.3000 
    211 H211       -5.3386  -26.5157  -50.6429 H         1 UNK         0.0600 
    212 H212       -5.8651  -24.5059  -52.8953 H         1 UNK         0.0600 
    213 H213       -6.7304  -26.0106  -52.6211 H         1 UNK         0.0600 
    214 H214       -5.0341  -26.0497  -53.0730 H         1 UNK         0.0600 
    215 H215       -5.1167  -24.8796  -48.5600 H         1 UNK         0.3000 
    216 H216       -6.2084  -24.0013  -46.8572 H         1 UNK         0.0600 
    217 H217       -8.6434  -24.0475  -46.6298 H         1 UNK         0.0600 
    218 H218       -8.1035  -25.5726  -47.3130 H         1 UNK         0.0600 
    219 H219       -8.8617  -24.3588  -48.3433 H         1 UNK         0.0600 
    220 H220       -4.8513  -22.4604  -48.4258 H         1 UNK         0.3000 
    221 H221       -4.3159  -20.4017  -49.0480 H         1 UNK         0.0600 
    222 H222       -6.5095  -19.4847  -47.1167 H         1 UNK         0.0600 
    223 H223       -4.8744  -19.9426  -46.6539 H         1 UNK         0.0600 
    224 H224       -5.1369  -18.5331  -47.6678 H         1 UNK         0.0600 
    225 H225       -5.5414  -21.4649  -51.0662 H         1 UNK         0.3000 
    226 H226       -7.8362  -19.9671  -52.0436 H         1 UNK         0.0600 
    227 H227       -7.4683  -22.4072  -52.5005 H         1 UNK         0.0600 
    228 H228       -7.6137  -21.4765  -53.9805 H         1 UNK         0.0600 
    229 H229       -6.0280  -22.0089  -53.4362 H         1 UNK         0.0600 
    230 H230       -4.9606  -18.7555  -51.6055 H         1 UNK         0.3000 
    231 H231       -3.6846  -17.1293  -52.3683 H         1 UNK         0.0600 
    232 H232       -5.8759  -16.4570  -54.3927 H         1 UNK         0.0600 
    233 H233       -4.6021  -15.3905  -53.8205 H         1 UNK         0.0600 
    234 H234       -5.8525  -15.9243  -52.7111 H         1 UNK         0.0600 
    235 H235       -3.4083  -19.8009  -53.5131 H         1 UNK         0.3000 
    236 H236       -2.4444  -19.7556  -56.1672 H         1 UNK         0.0600 
    237 H237       -2.9278  -21.8319  -54.8757 H         1 UNK         0.0600 
    238 H238       -1.2737  -21.8552  -55.4660 H         1 UNK         0.0600 
    239 H239       -1.5936  -21.4853  -53.7758 H         1 UNK         0.0600 
    240 H240       -1.0665  -18.5001  -53.2721 H         1 UNK         0.3000 
    241 H241        1.6578  -18.1344  -54.1461 H         1 UNK         0.0600 
    242 H242       -0.4022  -15.0126  -55.6495 H         1 UNK         0.3800 
    243 H243       -1.2442  -16.4475  -55.1274 H         1 UNK         0.3800 
    244 H244        1.4146  -18.3155  -51.8105 H         1 UNK         0.0800 
    245 H245        1.7312  -16.6312  -52.0516 H         1 UNK         0.0800 
    246 H246       -2.1381  -18.6681  -50.7161 H         1 UNK         0.0800 
    247 H247       -0.6574  -19.4031  -51.2742 H         1 UNK         0.0800 
@<TRIPOS>BOND
     1    1    2 1    
     2    1  127 1    
     3    1  128 1    
     4    1  129 1    
     5    2    3 2    
     6    2    4 am   BACKBONE|DICT|INTERRES
     7    4    5 1    
     8    4  130 1    
     9    5    6 1    
    10    5   65 1    
    11    5  131 1    
    12    6    7 1    
    13    6  132 1    
    14    6  133 1    
    15    7    8 1    
    16    8    9 1    
    17    8  134 1    
    18    8  135 1    
    19    9   10 ar   
    20    9   14 ar   
    21   10   11 ar   
    22   10  136 1    
    23   11   12 ar   
    24   11  126 1    
    25   12   13 ar   
    26   12  137 1    
    27   13   14 ar   
    28   13   15 1    
    29   14  138 1    
    30   15   16 1    
    31   15  139 1    
    32   15  140 1    
    33   16   17 1    
    34   17   18 1    
    35   17  141 1    
    36   17  142 1    
    37   18   19 1    
    38   18   67 1    
    39   18  143 1    
    40   19   20 am   BACKBONE|DICT|INTERRES
    41   19  144 1    
    42   20   21 2    
    43   20   22 1    
    44   22   23 1    
    45   22   24 1    
    46   22  145 1    
    47   23  146 1    
    48   23  147 1    
    49   23  148 1    
    50   24   25 am   BACKBONE|DICT|INTERRES
    51   24  149 1    
    52   25   26 2    
    53   25   27 1    
    54   27   28 1    
    55   27   29 1    
    56   27  150 1    
    57   28  151 1    
    58   28  152 1    
    59   28  153 1    
    60   29   30 am   BACKBONE|DICT|INTERRES
    61   29  154 1    
    62   30   31 2    
    63   30   32 1    
    64   32   33 1    
    65   32   34 1    
    66   32  155 1    
    67   33  156 1    
    68   33  157 1    
    69   33  158 1    
    70   34   35 am   BACKBONE|DICT|INTERRES
    71   34  159 1    
    72   35   36 2    
    73   35   37 1    
    74   37   38 1    
    75   37   39 1    
    76   37  160 1    
    77   38  161 1    
    78   38  162 1    
    79   38  163 1    
    80   39   40 am   BACKBONE|DICT|INTERRES
    81   39  164 1    
    82   40   41 2    
    83   40   42 1    
    84   42   43 1    
    85   42   44 1    
    86   42  165 1    
    87   43  166 1    
    88   43  167 1    
    89   43  168 1    
    90   44   45 am   BACKBONE|DICT|INTERRES
    91   44  169 1    
    92   45   46 2    
    93   45   47 1    
    94   47   48 1    
    95   47   49 1    
    96   47  170 1    
    97   48  171 1    
    98   48  172 1    
    99   48  173 1    
   100   49   50 am   BACKBONE|DICT|INTERRES
   101   49  174 1    
   102   50   51 2    
   103   50   52 1    
   104   52   53 1    
   105   52   54 1    
   106   52  175 1    
   107   53  176 1    
   108   53  177 1    
   109   53  178 1    
   110   54   55 am   BACKBONE|DICT|INTERRES
   111   54  179 1    
   112   55   56 2    
   113   55   57 1    
   114   57   58 1    
   115   57   59 1    
   116   57  180 1    
   117   58  181 1    
   118   58  182 1    
   119   58  183 1    
   120   59   60 am   BACKBONE|DICT|INTERRES
   121   59  184 1    
   122   60   61 2    
   123   60   62 1    
   124   62   63 1    
   125   62   64 1    
   126   62  185 1    
   127   63  186 1    
   128   63  187 1    
   129   63  188 1    
   130   64   65 am   BACKBONE|DICT|INTERRES
   131   64  189 1    
   132   65   66 2    
   133   67   68 2    
   134   67   69 am   BACKBONE|DICT|INTERRES
   135   69   70 1    
   136   69  190 1    
   137   70   71 1    
   138   70   72 1    
   139   70  191 1    
   140   71  192 1    
   141   71  193 1    
   142   71  194 1    
   143   72   73 2    
   144   72   74 am   BACKBONE|DICT|INTERRES
   145   74   75 1    
   146   74  195 1    
   147   75   76 1    
   148   75   77 1    
   149   75  196 1    
   150   76  197 1    
   151   76  198 1    
   152   76  199 1    
   153   77   78 2    
   154   77   79 am   BACKBONE|DICT|INTERRES
   155   79   80 1    
   156   79  200 1    
   157   80   81 1    
   158   80   82 1    
   159   80  201 1    
   160   81  202 1    
   161   81  203 1    
   162   81  204 1    
   163   82   83 2    
   164   82   84 am   BACKBONE|DICT|INTERRES
   165   84   85 1    
   166   84  205 1    
   167   85   86 1    
   168   85   87 1    
   169   85  206 1    
   170   86  207 1    
   171   86  208 1    
   172   86  209 1    
   173   87   88 2    
   174   87   89 am   BACKBONE|DICT|INTERRES
   175   89   90 1    
   176   89  210 1    
   177   90   91 1    
   178   90   92 1    
   179   90  211 1    
   180   91  212 1    
   181   91  213 1    
   182   91  214 1    
   183   92   93 2    
   184   92   94 am   BACKBONE|DICT|INTERRES
   185   94   95 1    
   186   94  215 1    
   187   95   96 1    
   188   95   97 1    
   189   95  216 1    
   190   96  217 1    
   191   96  218 1    
   192   96  219 1    
   193   97   98 2    
   194   97   99 am   BACKBONE|DICT|INTERRES
   195   99  100 1    
   196   99  220 1    
   197  100  101 1    
   198  100  102 1    
   199  100  221 1    
   200  101  222 1    
   201  101  223 1    
   202  101  224 1    
   203  102  103 2    
   204  102  104 am   BACKBONE|DICT|INTERRES
   205  104  105 1    
   206  104  225 1    
   207  105  106 1    
   208  105  107 1    
   209  105  226 1    
   210  106  227 1    
   211  106  228 1    
   212  106  229 1    
   213  107  108 2    
   214  107  109 am   BACKBONE|DICT|INTERRES
   215  109  110 1    
   216  109  230 1    
   217  110  111 1    
   218  110  112 1    
   219  110  231 1    
   220  111  232 1    
   221  111  233 1    
   222  111  234 1    
   223  112  113 2    
   224  112  114 am   BACKBONE|DICT|INTERRES
   225  114  115 1    
   226  114  235 1    
   227  115  116 1    
   228  115  117 1    
   229  115  236 1    
   230  116  237 1    
   231  116  238 1    
   232  116  239 1    
   233  117  118 2    
   234  117  119 am   BACKBONE|DICT|INTERRES
   235  119  120 1    
   236  119  240 1    
   237  120  121 1    
   238  120  124 1    
   239  120  241 1    
   240  121  122 am   BACKBONE|DICT|INTERRES
   241  121  123 2    
   242  122  242 1    
   243  122  243 1    
   244  124  125 1    
   245  124  244 1    
   246  124  245 1    
   247  125  126 1    
   248  126  246 1    
   249  126  247 1    
@<TRIPOS>SUBSTRUCTURE
     1 UNK         1 GROUP             0       ****    0 ROOT    
