@<TRIPOS>MOLECULE
3R540
247   249    1
SMALL
USER_CHARGES


@<TRIPOS>ATOM
      1 CA         -3.0807   -9.4870  -44.4756 C.3       0 UNK        -0.1800 
      2 C          -2.2095   -8.9573  -45.6061 C.2       0 UNK         0.5000 
      3 O          -1.8999   -7.7656  -45.6366 O.2       0 UNK        -0.5000 
      4 N          -1.8227   -9.8369  -46.5365 N.am      1 UNK        -0.5000 
      5 CA         -0.9020   -9.5508  -47.6403 C.3       1 UNK         0.1400 
      6 C6         -1.0727  -10.5675  -48.8004 C.3       23 UNK        -0.0398 
      7 S7         -0.8340  -12.3206  -48.3312 S.3       23 UNK        -0.2404 
      8 C8         -2.4336  -13.0243  -48.8332 C.3       23 UNK        -0.0205 
      9 C9         -2.4469  -14.5375  -48.6911 C.ar      23 UNK        -0.0193 
     10 C10        -1.9821  -15.3439  -49.7357 C.ar      23 UNK        -0.1150 
     11 C11        -2.0139  -16.7370  -49.6236 C.ar      23 UNK        -0.0193 
     12 C12        -2.5154  -17.3197  -48.4588 C.ar      23 UNK        -0.1150 
     13 C13        -2.9866  -16.5255  -47.4114 C.ar      23 UNK        -0.0193 
     14 C14        -2.9447  -15.1333  -47.5279 C.ar      23 UNK        -0.1150 
     15 C15        -3.5448  -17.1906  -46.1670 C.3       23 UNK        -0.0205 
     16 S16        -2.2067  -17.9530  -45.2083 S.3       23 UNK        -0.2404 
     17 C17        -3.0954  -19.2899  -44.3520 C.3       23 UNK        -0.0398 
     18 CA         -3.1841  -20.6046  -45.1707 C.3       11 UNK         0.1400 
     19 N          -1.8928  -21.0789  -45.6928 N.am      11 UNK        -0.5000 
     20 C          -1.7297  -22.1429  -46.4966 C.2       10 UNK         0.5000 
     21 O          -2.6575  -22.8317  -46.9172 O.2       10 UNK        -0.5000 
     22 CA         -0.2950  -22.5438  -46.8675 C.3       10 UNK         0.1400 
     23 CB          0.1818  -21.7765  -48.1105 C.3       10 UNK        -0.1800 
     24 N           0.6180  -22.3282  -45.7476 N.am      10 UNK        -0.5000 
     25 C           0.7285  -23.1555  -44.6980 C.2       9 UNK         0.5000 
     26 O           0.1357  -24.2309  -44.6135 O.2       9 UNK        -0.5000 
     27 CA          1.6244  -22.6935  -43.5313 C.3       9 UNK         0.1400 
     28 CB          3.0803  -23.1221  -43.7665 C.3       9 UNK        -0.1800 
     29 N           1.5805  -21.2479  -43.3067 N.am      9 UNK        -0.5000 
     30 C           0.4930  -20.5714  -42.9118 C.2       8 UNK         0.5000 
     31 O          -0.5829  -21.1067  -42.6420 O.2       8 UNK        -0.5000 
     32 CA          0.6080  -19.0353  -42.8568 C.3       8 UNK         0.1400 
     33 CB          1.0850  -18.5861  -41.4686 C.3       8 UNK        -0.1800 
     34 N           1.4736  -18.4336  -43.8767 N.am      8 UNK        -0.5000 
     35 C           1.4490  -18.6612  -45.1989 C.2       7 UNK         0.5000 
     36 O           0.7204  -19.4963  -45.7310 O.2       7 UNK        -0.5000 
     37 CA          2.3984  -17.8349  -46.0889 C.3       7 UNK         0.1400 
     38 CB          1.5927  -16.8233  -46.9185 C.3       7 UNK        -0.1800 
     39 N           3.4450  -17.1292  -45.3451 N.am      7 UNK        -0.5000 
     40 C           4.4713  -17.7171  -44.7122 C.2       6 UNK         0.5000 
     41 O           4.6689  -18.9325  -44.7114 O.2       6 UNK        -0.5000 
     42 CA          5.4048  -16.7934  -43.9116 C.3       6 UNK         0.1400 
     43 CB          6.5003  -16.2070  -44.8152 C.3       6 UNK        -0.1800 
     44 N           4.6541  -15.7074  -43.2785 N.am      6 UNK        -0.5000 
     45 C           4.0122  -15.8194  -42.1064 C.2       5 UNK         0.5000 
     46 O           4.0558  -16.8270  -41.4013 O.2       5 UNK        -0.5000 
     47 CA          3.1653  -14.6156  -41.6461 C.3       5 UNK         0.1400 
     48 CB          4.0008  -13.6781  -40.7615 C.3       5 UNK        -0.1800 
     49 N           2.6003  -13.8471  -42.7565 N.am      5 UNK        -0.5000 
     50 C           1.6461  -14.2919  -43.5869 C.2       4 UNK         0.5000 
     51 O           1.0938  -15.3838  -43.4640 O.2       4 UNK        -0.5000 
     52 CA          1.2779  -13.3819  -44.7777 C.3       4 UNK         0.1400 
     53 CB          0.0655  -12.5098  -44.4202 C.3       4 UNK        -0.1800 
     54 N           2.3844  -12.5373  -45.2518 N.am      4 UNK        -0.5000 
     55 C           3.5662  -13.0033  -45.6904 C.2       3 UNK         0.5000 
     56 O           3.8302  -14.2061  -45.7443 O.2       3 UNK        -0.5000 
     57 CA          4.6531  -11.9685  -46.0596 C.3       3 UNK         0.1400 
     58 CB          5.7090  -12.5285  -47.0364 C.3       3 UNK        -0.1800 
     59 N           4.1200  -10.6849  -46.5282 N.am      3 UNK        -0.5000 
     60 C           3.4218  -10.4640  -47.6496 C.2       2 UNK         0.5000 
     61 O           3.1588  -11.3257  -48.4911 O.2       2 UNK        -0.5000 
     62 CA          2.9045   -9.0262  -47.8501 C.3       2 UNK         0.1400 
     63 CB          3.5953   -8.3534  -49.0465 C.3       2 UNK        -0.1800 
     64 N           1.4568   -9.0173  -48.0578 N.am      2 UNK        -0.5000 
     65 C           0.5648   -9.4547  -47.1584 C.2       1 UNK         0.5000 
     66 O           0.8762   -9.7879  -46.0105 O.2       1 UNK        -0.5000 
     67 C          -3.8859  -21.6887  -44.3305 C.2       11 UNK         0.5000 
     68 O          -5.0548  -21.9909  -44.5739 O.2       11 UNK        -0.5000 
     69 N          -3.1339  -22.2957  -43.4004 N.am      12 UNK        -0.5000 
     70 CA         -3.5735  -23.4030  -42.5468 C.3       12 UNK         0.1400 
     71 CB         -2.4738  -23.6983  -41.5158 C.3       12 UNK        -0.1800 
     72 C          -3.9314  -24.6822  -43.3298 C.2       12 UNK         0.5000 
     73 O          -4.7480  -25.4750  -42.8603 O.2       12 UNK        -0.5000 
     74 N          -3.3313  -24.8433  -44.5147 N.am      13 UNK        -0.5000 
     75 CA         -3.5699  -25.9375  -45.4513 C.3       13 UNK         0.1400 
     76 CB         -2.2254  -26.3271  -46.0873 C.3       13 UNK        -0.1800 
     77 C          -4.6226  -25.5877  -46.5246 C.2       13 UNK         0.5000 
     78 O          -4.7592  -26.3475  -47.4822 O.2       13 UNK        -0.5000 
     79 N          -5.3367  -24.4604  -46.3721 N.am      14 UNK        -0.5000 
     80 CA         -6.3791  -23.9449  -47.2686 C.3       14 UNK         0.1400 
     81 CB         -7.6050  -24.8824  -47.2826 C.3       14 UNK        -0.1800 
     82 C          -5.8363  -23.6407  -48.6797 C.2       14 UNK         0.5000 
     83 O          -6.2609  -24.2522  -49.6624 O.2       14 UNK        -0.5000 
     84 N          -4.8615  -22.7223  -48.7324 N.am      15 UNK        -0.5000 
     85 CA         -4.0936  -22.3089  -49.9130 C.3       15 UNK         0.1400 
     86 CB         -4.9942  -21.5938  -50.9423 C.3       15 UNK        -0.1800 
     87 C          -3.2871  -23.4806  -50.5073 C.2       15 UNK         0.5000 
     88 O          -3.2436  -23.6526  -51.7268 O.2       15 UNK        -0.5000 
     89 N          -2.6918  -24.2847  -49.6119 N.am      16 UNK        -0.5000 
     90 CA         -1.9504  -25.5190  -49.8936 C.3       16 UNK         0.1400 
     91 CB         -0.6171  -25.1917  -50.5986 C.3       16 UNK        -0.1800 
     92 C          -2.8089  -26.5444  -50.6647 C.2       16 UNK         0.5000 
     93 O          -2.4075  -27.0088  -51.7305 O.2       16 UNK        -0.5000 
     94 N          -4.0078  -26.8304  -50.1361 N.am      17 UNK        -0.5000 
     95 CA         -5.0722  -27.6401  -50.7413 C.3       17 UNK         0.1400 
     96 CB         -4.6617  -29.1259  -50.8022 C.3       17 UNK        -0.1800 
     97 C          -5.5342  -27.0777  -52.1038 C.2       17 UNK         0.5000 
     98 O          -5.7496  -27.8350  -53.0519 O.2       17 UNK        -0.5000 
     99 N          -5.6442  -25.7431  -52.1683 N.am      18 UNK        -0.5000 
    100 CA        -5.9628  -24.9164  -53.3360 C.3       18 UNK         0.1400 
    101 CB        -7.4129  -25.1673  -53.7989 C.3       18 UNK        -0.1800 
    102 C         -4.9416  -25.0092  -54.4940 C.2       18 UNK         0.5000 
    103 O         -5.2827  -24.6592  -55.6256 O.2       18 UNK        -0.5000 
    104 N         -3.7107  -25.4621  -54.2126 N.am      19 UNK        -0.5000 
    105 CA        -2.6231  -25.5295  -55.1901 C.3       19 UNK         0.1400 
    106 CB        -1.6004  -26.5910  -54.7602 C.3       19 UNK        -0.1800 
    107 C         -1.9266  -24.1721  -55.3917 C.2       19 UNK         0.5000 
    108 O         -1.3811  -23.9352  -56.4711 O.2       19 UNK        -0.5000 
    109 N         -1.9410  -23.3095  -54.3653 N.am      20 UNK        -0.5000 
    110 CA        -1.3950  -21.9554  -54.4310 C.3       20 UNK         0.1400 
    111 CB        -1.1643  -21.4337  -53.0049 C.3       20 UNK        -0.1800 
    112 C         -2.3320  -21.0165  -55.2125 C.2       20 UNK         0.5000 
    113 O         -3.5480  -21.2262  -55.2284 O.2       20 UNK        -0.5000 
    114 N         -1.7516  -19.9689  -55.8145 N.am      21 UNK        -0.5000 
    115 CA        -2.4434  -18.9720  -56.6439 C.3       21 UNK         0.1400 
    116 CB        -1.4010  -18.0177  -57.2468 C.3       21 UNK        -0.1800 
    117 C         -3.5415  -18.1750  -55.9087 C.2       21 UNK         0.5000 
    118 O         -4.4581  -17.6646  -56.5539 O.2       21 UNK        -0.5000 
    119 N         -3.4377  -18.1037  -54.5776 N.am      22 UNK        -0.5000 
    120 CA        -4.4645  -17.5849  -53.6647 C.3       22 UNK         0.1400 
    121 C         -5.7216  -18.4939  -53.5017 C.2       22 UNK         0.5000 
    122 N         -5.7331  -19.7294  -53.9901 N.am      22 UNK        -0.7600 
    123 O         -6.7194  -18.0578  -52.9340 O.2       22 UNK        -0.5000 
    124 C124       -3.8509  -17.1981  -52.2946 C.3       23 UNK        -0.0398 
    125 S125       -2.8917  -18.5480  -51.5173 S.3       23 UNK        -0.2404 
    126 C126       -1.5215  -17.6235  -50.7565 C.3       23 UNK        -0.0205 
    127 H127       -2.5893   -9.3235  -43.5164 H         1 UNK         0.0600 
    128 H128       -3.2744  -10.5550  -44.5794 H         1 UNK         0.0600 
    129 H129       -4.0384   -8.9667  -44.4632 H         1 UNK         0.0600 
    130 H130       -2.0811  -10.8077  -46.4390 H         1 UNK         0.3000 
    131 H131       -1.1593   -8.5661  -48.0365 H         1 UNK         0.0600 
    132 H132       -0.3901  -10.3422  -49.6211 H         1 UNK         0.0800 
    133 H133       -2.0698  -10.4437  -49.2250 H         1 UNK         0.0800 
    134 H134       -2.6403  -12.7549  -49.8702 H         1 UNK         0.0800 
    135 H135       -3.2304  -12.5806  -48.2342 H         1 UNK         0.0800 
    136 H136       -1.5991  -14.8846  -50.6362 H         1 UNK         0.1150 
    137 H137       -2.5442  -18.3969  -48.3689 H         1 UNK         0.1150 
    138 H138       -3.3055  -14.5140  -46.7187 H         1 UNK         0.1150 
    139 H139       -4.0782  -16.4743  -45.5405 H         1 UNK         0.0800 
    140 H140       -4.2712  -17.9469  -46.4677 H         1 UNK         0.0800 
    141 H141       -4.0942  -18.9341  -44.0924 H         1 UNK         0.0800 
    142 H142       -2.5879  -19.4612  -43.4023 H         1 UNK         0.0800 
    143 H143       -3.8172  -20.4108  -46.0389 H         1 UNK         0.0600 
    144 H144       -1.0752  -20.5314  -45.4470 H         1 UNK         0.3000 
    145 H145       -0.2960  -23.6065  -47.1183 H         1 UNK         0.0600 
    146 H146        0.1511  -20.6968  -47.9643 H         1 UNK         0.0600 
    147 H147        1.2028  -22.0510  -48.3756 H         1 UNK         0.0600 
    148 H148       -0.4493  -22.0043  -48.9707 H         1 UNK         0.0600 
    149 H149        1.0518  -21.4120  -45.7008 H         1 UNK         0.3000 
    150 H150        1.2646  -23.1852  -42.6249 H         1 UNK         0.0600 
    151 H151        3.1502  -24.1997  -43.9206 H         1 UNK         0.0600 
    152 H152        3.7073  -22.8759  -42.9093 H         1 UNK         0.0600 
    153 H153        3.5061  -22.6356  -44.6450 H         1 UNK         0.0600 
    154 H154        2.4164  -20.7245  -43.5251 H         1 UNK         0.3000 
    155 H155       -0.3905  -18.6278  -43.0102 H         1 UNK         0.0600 
    156 H156        0.4442  -18.9899  -40.6836 H         1 UNK         0.0600 
    157 H157        1.0639  -17.4998  -41.3773 H         1 UNK         0.0600 
    158 H158        2.1038  -18.9196  -41.2672 H         1 UNK         0.0600 
    159 H159        2.0711  -17.6851  -43.5569 H         1 UNK         0.3000 
    160 H160        2.8867  -18.5274  -46.7773 H         1 UNK         0.0600 
    161 H161        2.2422  -16.1857  -47.5187 H         1 UNK         0.0600 
    162 H162        0.9820  -16.1847  -46.2816 H         1 UNK         0.0600 
    163 H163        0.9131  -17.3348  -47.6018 H         1 UNK         0.0600 
    164 H164        3.3949  -16.1156  -45.3426 H         1 UNK         0.3000 
    165 H165        5.8931  -17.3921  -43.1395 H         1 UNK         0.0600 
    166 H166        6.0816  -15.6394  -45.6461 H         1 UNK         0.0600 
    167 H167        7.1622  -15.5458  -44.2559 H         1 UNK         0.0600 
    168 H168        7.1162  -17.0000  -45.2410 H         1 UNK         0.0600 
    169 H169        4.5203  -14.8726  -43.8340 H         1 UNK         0.3000 
    170 H170        2.3386  -15.0039  -41.0472 H         1 UNK         0.0600 
    171 H171        4.8346  -13.2409  -41.3122 H         1 UNK         0.0600 
    172 H172        3.3939  -12.8633  -40.3664 H         1 UNK         0.0600 
    173 H173        4.4168  -14.2150  -39.9079 H         1 UNK         0.0600 
    174 H174        2.9900  -12.9312  -42.9226 H         1 UNK         0.3000 
    175 H175        0.9869  -14.0279  -45.6063 H         1 UNK         0.0600 
    176 H176        0.3204  -11.7408  -43.6902 H         1 UNK         0.0600 
    177 H177       -0.3343  -12.0174  -45.3046 H         1 UNK         0.0600 
    178 H178       -0.7426  -13.1105  -44.0003 H         1 UNK         0.0600 
    179 H179        2.2115  -11.5399  -45.2730 H         1 UNK         0.3000 
    180 H180        5.1705  -11.7472  -45.1252 H         1 UNK         0.0600 
    181 H181        5.2586  -12.8807  -47.9646 H         1 UNK         0.0600 
    182 H182        6.2417  -13.3711  -46.5949 H         1 UNK         0.0600 
    183 H183        6.4541  -11.7741  -47.2887 H         1 UNK         0.0600 
    184 H184        4.2637   -9.9065  -45.8994 H         1 UNK         0.3000 
    185 H185        3.1198   -8.4372  -46.9560 H         1 UNK         0.0600 
    186 H186        3.2643   -7.3215  -49.1651 H         1 UNK         0.0600 
    187 H187        4.6773   -8.3337  -48.9101 H         1 UNK         0.0600 
    188 H188        3.3920   -8.8814  -49.9791 H         1 UNK         0.0600 
    189 H189        1.1437   -8.7700  -48.9848 H         1 UNK         0.3000 
    190 H190       -2.1840  -21.9638  -43.2490 H         1 UNK         0.3000 
    191 H191       -4.4703  -23.0806  -42.0140 H         1 UNK         0.0600 
    192 H192       -1.5417  -23.9949  -41.9991 H         1 UNK         0.0600 
    193 H193       -2.2660  -22.8233  -40.8995 H         1 UNK         0.0600 
    194 H194       -2.7700  -24.5060  -40.8452 H         1 UNK         0.0600 
    195 H195       -2.6859  -24.1298  -44.8241 H         1 UNK         0.3000 
    196 H196       -3.9476  -26.8083  -44.9119 H         1 UNK         0.0600 
    197 H197       -1.5072  -26.6327  -45.3262 H         1 UNK         0.0600 
    198 H198       -1.7879  -25.4943  -46.6363 H         1 UNK         0.0600 
    199 H199       -2.3371  -27.1638  -46.7779 H         1 UNK         0.0600 
    200 H200       -5.1229  -23.8675  -45.5787 H         1 UNK         0.3000 
    201 H201       -6.7030  -22.9917  -46.8480 H         1 UNK         0.0600 
    202 H202       -8.4149  -24.4521  -47.8727 H         1 UNK         0.0600 
    203 H203       -7.9875  -25.0447  -46.2750 H         1 UNK         0.0600 
    204 H204       -7.3723  -25.8566  -47.7136 H         1 UNK         0.0600 
    205 H205       -4.4959  -22.3840  -47.8503 H         1 UNK         0.3000 
    206 H206       -3.3558  -21.5836  -49.5666 H         1 UNK         0.0600 
    207 H207       -5.4624  -20.7115  -50.5063 H         1 UNK         0.0600 
    208 H208       -5.7866  -22.2404  -51.3161 H         1 UNK         0.0600 
    209 H209       -4.4184  -21.2568  -51.8043 H         1 UNK         0.0600 
    210 H210       -2.8041  -24.0434  -48.6336 H         1 UNK         0.3000 
    211 H211       -1.7116  -25.9770  -48.9349 H         1 UNK         0.0600 
    212 H212       -0.0237  -24.4905  -50.0121 H         1 UNK         0.0600 
    213 H213       -0.0166  -26.0919  -50.7337 H         1 UNK         0.0600 
    214 H214       -0.7738  -24.7537  -51.5850 H         1 UNK         0.0600 
    215 H215       -4.2492  -26.4321  -49.2302 H         1 UNK         0.3000 
    216 H216       -5.9302  -27.5608  -50.0720 H         1 UNK         0.0600 
    217 H217       -5.4949  -29.7475  -51.1317 H         1 UNK         0.0600 
    218 H218       -3.8365  -29.2914  -51.4955 H         1 UNK         0.0600 
    219 H219       -4.3545  -29.4892  -49.8216 H         1 UNK         0.0600 
    220 H220       -5.4876  -25.2223  -51.3110 H         1 UNK         0.3000 
    221 H221       -5.9082  -23.8853  -52.9877 H         1 UNK         0.0600 
    222 H222       -7.5342  -26.1617  -54.2290 H         1 UNK         0.0600 
    223 H223       -8.1129  -25.0720  -52.9687 H         1 UNK         0.0600 
    224 H224       -7.7139  -24.4443  -54.5578 H         1 UNK         0.0600 
    225 H225       -3.4877  -25.7247  -53.2598 H         1 UNK         0.3000 
    226 H226       -3.0357  -25.8395  -56.1525 H         1 UNK         0.0600 
    227 H227       -2.0803  -27.5507  -54.5674 H         1 UNK         0.0600 
    228 H228       -0.8549  -26.7493  -55.5403 H         1 UNK         0.0600 
    229 H229       -1.0662  -26.2922  -53.8578 H         1 UNK         0.0600 
    230 H230       -2.4511  -23.5510  -53.5200 H         1 UNK         0.3000 
    231 H231       -0.4305  -21.9940  -54.9417 H         1 UNK         0.0600 
    232 H232       -0.6769  -20.4582  -53.0169 H         1 UNK         0.0600 
    233 H233       -0.5277  -22.1092  -52.4331 H         1 UNK         0.0600 
    234 H234       -2.1028  -21.3221  -52.4636 H         1 UNK         0.0600 
    235 H235       -0.7507  -19.8593  -55.7370 H         1 UNK         0.3000 
    236 H236       -2.9297  -19.5077  -57.4616 H         1 UNK         0.0600 
    237 H237       -0.6733  -18.5582  -57.8524 H         1 UNK         0.0600 
    238 H238       -1.8748  -17.2790  -57.8947 H         1 UNK         0.0600 
    239 H239       -0.8583  -17.4746  -56.4721 H         1 UNK         0.0600 
    240 H240       -2.6573  -18.5638  -54.1331 H         1 UNK         0.3000 
    241 H241       -4.8423  -16.6619  -54.1085 H         1 UNK         0.0600 
    242 H242       -4.9213  -20.1273  -54.4538 H         1 UNK         0.3800 
    243 H243       -6.5627  -20.2887  -53.8816 H         1 UNK         0.3800 
    244 H244       -3.1945  -16.3390  -52.4375 H         1 UNK         0.0800 
    245 H245       -4.6192  -16.8636  -51.5954 H         1 UNK         0.0800 
    246 H246       -1.0034  -17.0396  -51.5188 H         1 UNK         0.0800 
    247 H247       -0.7919  -18.3329  -50.3632 H         1 UNK         0.0800 
@<TRIPOS>BOND
     1    1    2 1    
     2    1  127 1    
     3    1  128 1    
     4    1  129 1    
     5    2    3 2    
     6    2    4 am   BACKBONE|DICT|INTERRES
     7    4    5 1    
     8    4  130 1    
     9    5    6 1    
    10    5   65 1    
    11    5  131 1    
    12    6    7 1    
    13    6  132 1    
    14    6  133 1    
    15    7    8 1    
    16    8    9 1    
    17    8  134 1    
    18    8  135 1    
    19    9   10 ar   
    20    9   14 ar   
    21   10   11 ar   
    22   10  136 1    
    23   11   12 ar   
    24   11  126 1    
    25   12   13 ar   
    26   12  137 1    
    27   13   14 ar   
    28   13   15 1    
    29   14  138 1    
    30   15   16 1    
    31   15  139 1    
    32   15  140 1    
    33   16   17 1    
    34   17   18 1    
    35   17  141 1    
    36   17  142 1    
    37   18   19 1    
    38   18   67 1    
    39   18  143 1    
    40   19   20 am   BACKBONE|DICT|INTERRES
    41   19  144 1    
    42   20   21 2    
    43   20   22 1    
    44   22   23 1    
    45   22   24 1    
    46   22  145 1    
    47   23  146 1    
    48   23  147 1    
    49   23  148 1    
    50   24   25 am   BACKBONE|DICT|INTERRES
    51   24  149 1    
    52   25   26 2    
    53   25   27 1    
    54   27   28 1    
    55   27   29 1    
    56   27  150 1    
    57   28  151 1    
    58   28  152 1    
    59   28  153 1    
    60   29   30 am   BACKBONE|DICT|INTERRES
    61   29  154 1    
    62   30   31 2    
    63   30   32 1    
    64   32   33 1    
    65   32   34 1    
    66   32  155 1    
    67   33  156 1    
    68   33  157 1    
    69   33  158 1    
    70   34   35 am   BACKBONE|DICT|INTERRES
    71   34  159 1    
    72   35   36 2    
    73   35   37 1    
    74   37   38 1    
    75   37   39 1    
    76   37  160 1    
    77   38  161 1    
    78   38  162 1    
    79   38  163 1    
    80   39   40 am   BACKBONE|DICT|INTERRES
    81   39  164 1    
    82   40   41 2    
    83   40   42 1    
    84   42   43 1    
    85   42   44 1    
    86   42  165 1    
    87   43  166 1    
    88   43  167 1    
    89   43  168 1    
    90   44   45 am   BACKBONE|DICT|INTERRES
    91   44  169 1    
    92   45   46 2    
    93   45   47 1    
    94   47   48 1    
    95   47   49 1    
    96   47  170 1    
    97   48  171 1    
    98   48  172 1    
    99   48  173 1    
   100   49   50 am   BACKBONE|DICT|INTERRES
   101   49  174 1    
   102   50   51 2    
   103   50   52 1    
   104   52   53 1    
   105   52   54 1    
   106   52  175 1    
   107   53  176 1    
   108   53  177 1    
   109   53  178 1    
   110   54   55 am   BACKBONE|DICT|INTERRES
   111   54  179 1    
   112   55   56 2    
   113   55   57 1    
   114   57   58 1    
   115   57   59 1    
   116   57  180 1    
   117   58  181 1    
   118   58  182 1    
   119   58  183 1    
   120   59   60 am   BACKBONE|DICT|INTERRES
   121   59  184 1    
   122   60   61 2    
   123   60   62 1    
   124   62   63 1    
   125   62   64 1    
   126   62  185 1    
   127   63  186 1    
   128   63  187 1    
   129   63  188 1    
   130   64   65 am   BACKBONE|DICT|INTERRES
   131   64  189 1    
   132   65   66 2    
   133   67   68 2    
   134   67   69 am   BACKBONE|DICT|INTERRES
   135   69   70 1    
   136   69  190 1    
   137   70   71 1    
   138   70   72 1    
   139   70  191 1    
   140   71  192 1    
   141   71  193 1    
   142   71  194 1    
   143   72   73 2    
   144   72   74 am   BACKBONE|DICT|INTERRES
   145   74   75 1    
   146   74  195 1    
   147   75   76 1    
   148   75   77 1    
   149   75  196 1    
   150   76  197 1    
   151   76  198 1    
   152   76  199 1    
   153   77   78 2    
   154   77   79 am   BACKBONE|DICT|INTERRES
   155   79   80 1    
   156   79  200 1    
   157   80   81 1    
   158   80   82 1    
   159   80  201 1    
   160   81  202 1    
   161   81  203 1    
   162   81  204 1    
   163   82   83 2    
   164   82   84 am   BACKBONE|DICT|INTERRES
   165   84   85 1    
   166   84  205 1    
   167   85   86 1    
   168   85   87 1    
   169   85  206 1    
   170   86  207 1    
   171   86  208 1    
   172   86  209 1    
   173   87   88 2    
   174   87   89 am   BACKBONE|DICT|INTERRES
   175   89   90 1    
   176   89  210 1    
   177   90   91 1    
   178   90   92 1    
   179   90  211 1    
   180   91  212 1    
   181   91  213 1    
   182   91  214 1    
   183   92   93 2    
   184   92   94 am   BACKBONE|DICT|INTERRES
   185   94   95 1    
   186   94  215 1    
   187   95   96 1    
   188   95   97 1    
   189   95  216 1    
   190   96  217 1    
   191   96  218 1    
   192   96  219 1    
   193   97   98 2    
   194   97   99 am   BACKBONE|DICT|INTERRES
   195   99  100 1    
   196   99  220 1    
   197  100  101 1    
   198  100  102 1    
   199  100  221 1    
   200  101  222 1    
   201  101  223 1    
   202  101  224 1    
   203  102  103 2    
   204  102  104 am   BACKBONE|DICT|INTERRES
   205  104  105 1    
   206  104  225 1    
   207  105  106 1    
   208  105  107 1    
   209  105  226 1    
   210  106  227 1    
   211  106  228 1    
   212  106  229 1    
   213  107  108 2    
   214  107  109 am   BACKBONE|DICT|INTERRES
   215  109  110 1    
   216  109  230 1    
   217  110  111 1    
   218  110  112 1    
   219  110  231 1    
   220  111  232 1    
   221  111  233 1    
   222  111  234 1    
   223  112  113 2    
   224  112  114 am   BACKBONE|DICT|INTERRES
   225  114  115 1    
   226  114  235 1    
   227  115  116 1    
   228  115  117 1    
   229  115  236 1    
   230  116  237 1    
   231  116  238 1    
   232  116  239 1    
   233  117  118 2    
   234  117  119 am   BACKBONE|DICT|INTERRES
   235  119  120 1    
   236  119  240 1    
   237  120  121 1    
   238  120  124 1    
   239  120  241 1    
   240  121  122 am   BACKBONE|DICT|INTERRES
   241  121  123 2    
   242  122  242 1    
   243  122  243 1    
   244  124  125 1    
   245  124  244 1    
   246  124  245 1    
   247  125  126 1    
   248  126  246 1    
   249  126  247 1    
@<TRIPOS>SUBSTRUCTURE
     1 UNK         1 GROUP             0       ****    0 ROOT    
