@<TRIPOS>MOLECULE
3R540
247   249    1
SMALL
USER_CHARGES


@<TRIPOS>ATOM
      1 CA         -5.5184  -14.3817  -45.6006 C.3       0 UNK        -0.1800 
      2 C          -4.4084  -13.3698  -45.8450 C.2       0 UNK         0.5000 
      3 O          -4.5420  -12.2046  -45.4690 O.2       0 UNK        -0.5000 
      4 N          -3.3027  -13.8103  -46.4569 N.am      1 UNK        -0.5000 
      5 CA         -2.1229  -13.0016  -46.7956 C.3       1 UNK         0.1400 
      6 C6         -1.3510  -13.5905  -48.0059 C.3       23 UNK        -0.0398 
      7 S7         -2.3861  -13.7180  -49.5056 S.3       23 UNK        -0.2404 
      8 C8         -2.7181  -15.5078  -49.5884 C.3       23 UNK        -0.0205 
      9 C9         -1.5480  -16.2771  -50.1821 C.ar      23 UNK        -0.0193 
     10 C10        -1.4096  -16.3719  -51.5691 C.ar      23 UNK        -0.1150 
     11 C11        -0.3540  -17.0941  -52.1320 C.ar      23 UNK        -0.0193 
     12 C12         0.5759  -17.7189  -51.2941 C.ar      23 UNK        -0.1150 
     13 C13         0.4535  -17.6238  -49.9035 C.ar      23 UNK        -0.0193 
     14 C14        -0.6142  -16.9067  -49.3545 C.ar      23 UNK        -0.1150 
     15 C15         1.4810  -18.2798  -48.9900 C.3       23 UNK        -0.0205 
     16 S16         1.1749  -20.0600  -48.7690 S.3       23 UNK        -0.2404 
     17 C17        -0.4767  -20.0380  -48.0009 C.3       23 UNK        -0.0398 
     18 CA         -0.8167  -21.3587  -47.2769 C.3       11 UNK         0.1400 
     19 N          -0.0289  -21.5429  -46.0542 N.am      11 UNK        -0.5000 
     20 C           0.0114  -22.6766  -45.3409 C.2       10 UNK         0.5000 
     21 O          -0.6030  -23.6968  -45.6477 O.2       10 UNK        -0.5000 
     22 CA          0.8288  -22.6550  -44.0368 C.3       10 UNK         0.1400 
     23 CB          2.3358  -22.6945  -44.3294 C.3       10 UNK        -0.1800 
     24 N           0.5101  -21.4981  -43.1993 N.am      10 UNK        -0.5000 
     25 C          -0.6965  -21.2657  -42.6610 C.2       9 UNK         0.5000 
     26 O          -1.6560  -22.0295  -42.7743 O.2       9 UNK        -0.5000 
     27 CA         -0.8767  -19.9316  -41.9135 C.3       9 UNK         0.1400 
     28 CB         -0.3321  -20.0222  -40.4804 C.3       9 UNK        -0.1800 
     29 N          -0.2436  -18.8106  -42.6076 N.am      9 UNK        -0.5000 
     30 C          -0.5945  -18.3722  -43.8255 C.2       8 UNK         0.5000 
     31 O          -1.5190  -18.8371  -44.4889 O.2       8 UNK        -0.5000 
     32 CA          0.2782  -17.2588  -44.4216 C.3       8 UNK         0.1400 
     33 CB         -0.0997  -15.9056  -43.7966 C.3       8 UNK        -0.1800 
     34 N           1.7029  -17.5485  -44.2303 N.am      8 UNK        -0.5000 
     35 C           2.3350  -18.5809  -44.8132 C.2       7 UNK         0.5000 
     36 O           1.7899  -19.3381  -45.6122 O.2       7 UNK        -0.5000 
     37 CA          3.7880  -18.8706  -44.3959 C.3       7 UNK         0.1400 
     38 CB          4.7954  -18.2618  -45.3806 C.3       7 UNK        -0.1800 
     39 N           4.0754  -18.4228  -43.0353 N.am      7 UNK        -0.5000 
     40 C           3.6246  -19.0557  -41.9423 C.2       6 UNK         0.5000 
     41 O           2.9728  -20.1001  -41.9830 O.2       6 UNK        -0.5000 
     42 CA          3.8983  -18.3845  -40.5829 C.3       6 UNK         0.1400 
     43 CB          5.2394  -18.8605  -40.0061 C.3       6 UNK        -0.1800 
     44 N           3.8915  -16.9206  -40.6479 N.am      6 UNK        -0.5000 
     45 C           2.8347  -16.1779  -41.0042 C.2       5 UNK         0.5000 
     46 O           1.7416  -16.6637  -41.2956 O.2       5 UNK        -0.5000 
     47 CA          3.0234  -14.6481  -41.0756 C.3       5 UNK         0.1400 
     48 CB          4.3107  -14.1424  -40.3876 C.3       5 UNK        -0.1800 
     49 N           2.9533  -14.1323  -42.4474 N.am      5 UNK        -0.5000 
     50 C           3.7071  -14.4948  -43.4991 C.2       4 UNK         0.5000 
     51 O           4.5257  -15.4138  -43.4565 O.2       4 UNK        -0.5000 
     52 CA          3.5428  -13.7015  -44.8171 C.3       4 UNK         0.1400 
     53 CB          3.0207  -14.5862  -45.9619 C.3       4 UNK        -0.1800 
     54 N           2.6701  -12.5331  -44.6884 N.am      4 UNK        -0.5000 
     55 C           3.0430  -11.3550  -44.1652 C.2       3 UNK         0.5000 
     56 O           4.1919  -11.1087  -43.7967 O.2       3 UNK        -0.5000 
     57 CA          1.9514  -10.2753  -43.9960 C.3       3 UNK         0.1400 
     58 CB          2.0009   -9.2762  -45.1618 C.3       3 UNK        -0.1800 
     59 N           0.5919  -10.8119  -43.8912 N.am      3 UNK        -0.5000 
     60 C           0.1614  -11.6575  -42.9452 C.2       2 UNK         0.5000 
     61 O           0.8549  -12.0269  -41.9972 O.2       2 UNK        -0.5000 
     62 CA         -1.2585  -12.2337  -43.1050 C.3       2 UNK         0.1400 
     63 CB         -2.2492  -11.4629  -42.2202 C.3       2 UNK        -0.1800 
     64 N          -1.7897  -12.2843  -44.4732 N.am      2 UNK        -0.5000 
     65 C          -1.2166  -12.8316  -45.5553 C.2       1 UNK         0.5000 
     66 O          -0.0495  -13.2237  -45.5840 O.2       1 UNK        -0.5000 
     67 C          -2.3351  -21.4665  -47.0206 C.2       11 UNK         0.5000 
     68 O          -3.0420  -22.0317  -47.8504 O.2       11 UNK        -0.5000 
     69 N          -2.8206  -20.9632  -45.8767 N.am      12 UNK        -0.5000 
     70 CA         -4.2192  -21.0915  -45.4604 C.3       12 UNK         0.1400 
     71 CB         -4.4796  -20.2191  -44.2234 C.3       12 UNK        -0.1800 
     72 C          -4.6311  -22.5530  -45.1989 C.2       12 UNK         0.5000 
     73 O          -5.7324  -22.9487  -45.5814 O.2       12 UNK        -0.5000 
     74 N          -3.7345  -23.3339  -44.5809 N.am      13 UNK        -0.5000 
     75 CA         -3.9199  -24.7641  -44.3339 C.3       13 UNK         0.1400 
     76 CB         -2.8923  -25.2368  -43.2941 C.3       13 UNK        -0.1800 
     77 C          -3.8254  -25.6090  -45.6196 C.2       13 UNK         0.5000 
     78 O          -4.5943  -26.5570  -45.7815 O.2       13 UNK        -0.5000 
     79 N          -2.8880  -25.2529  -46.5071 N.am      14 UNK        -0.5000 
     80 CA         -2.6065  -25.9531  -47.7628 C.3       14 UNK         0.1400 
     81 CB         -1.1700  -25.6175  -48.1970 C.3       14 UNK        -0.1800 
     82 C          -3.5929  -25.6389  -48.9064 C.2       14 UNK         0.5000 
     83 O          -3.5167  -26.2971  -49.9456 O.2       14 UNK        -0.5000 
     84 N          -4.4617  -24.6352  -48.7204 N.am      15 UNK        -0.5000 
     85 CA         -5.3533  -24.0745  -49.7358 C.3       15 UNK         0.1400 
     86 CB         -6.1785  -22.9356  -49.1155 C.3       15 UNK        -0.1800 
     87 C          -6.2861  -25.0986  -50.4105 C.2       15 UNK         0.5000 
     88 O          -6.8702  -25.9501  -49.7357 O.2       15 UNK        -0.5000 
     89 N          -6.4337  -24.9545  -51.7293 N.am      16 UNK        -0.5000 
     90 CA         -7.2881  -25.7537  -52.5977 C.3       16 UNK         0.1400 
     91 CB         -6.5375  -27.0202  -53.0502 C.3       16 UNK        -0.1800 
     92 C          -7.7009  -24.8438  -53.7620 C.2       16 UNK         0.5000 
     93 O          -7.1210  -24.9212  -54.8470 O.2       16 UNK        -0.5000 
     94 N          -8.6311  -23.9230  -53.4709 N.am      17 UNK        -0.5000 
     95 CA         -9.0799  -22.7805  -54.2812 C.3       17 UNK         0.1400 
     96 CB         -9.6071  -23.2043  -55.6667 C.3       17 UNK        -0.1800 
     97 C          -8.0078  -21.6779  -54.3761 C.2       17 UNK         0.5000 
     98 O          -8.2600  -20.5492  -53.9527 O.2       17 UNK        -0.5000 
     99 N          -6.8175  -22.0376  -54.8680 N.am      18 UNK        -0.5000 
    100 CA        -5.5900  -21.2608  -54.7185 C.3       18 UNK         0.1400 
    101 CB        -4.6516  -21.5730  -55.8913 C.3       18 UNK        -0.1800 
    102 C         -4.9228  -21.6348  -53.3847 C.2       18 UNK         0.5000 
    103 O         -5.0579  -22.7766  -52.9366 O.2       18 UNK        -0.5000 
    104 N         -4.2118  -20.6809  -52.7738 N.am      19 UNK        -0.5000 
    105 CA        -3.5682  -20.8641  -51.4709 C.3       19 UNK         0.1400 
    106 CB        -3.2480  -19.4874  -50.8723 C.3       19 UNK        -0.1800 
    107 C         -2.3134  -21.7571  -51.5542 C.2       19 UNK         0.5000 
    108 O         -2.1098  -22.6102  -50.6930 O.2       19 UNK        -0.5000 
    109 N         -1.5141  -21.5733  -52.6108 N.am      20 UNK        -0.5000 
    110 CA        -0.2991  -22.3412  -52.8798 C.3       20 UNK         0.1400 
    111 CB         0.8575  -21.8432  -51.9914 C.3       20 UNK        -0.1800 
    112 C          0.0160  -22.2751  -54.3807 C.2       20 UNK         0.5000 
    113 O          1.1229  -21.8953  -54.7676 O.2       20 UNK        -0.5000 
    114 N         -0.9984  -22.5854  -55.2027 N.am      21 UNK        -0.5000 
    115 CA        -1.0603  -22.4883  -56.6707 C.3       21 UNK         0.1400 
    116 CB         0.0223  -23.3450  -57.3551 C.3       21 UNK        -0.1800 
    117 C         -1.0477  -21.0357  -57.1879 C.2       21 UNK         0.5000 
    118 O         -1.9160  -20.6693  -57.9795 O.2       21 UNK        -0.5000 
    119 N         -0.0999  -20.2328  -56.6913 N.am      22 UNK        -0.5000 
    120 CA         0.0004  -18.7720  -56.8449 C.3       22 UNK         0.1400 
    121 C          0.2573  -18.2683  -58.2992 C.2       22 UNK         0.5000 
    122 N          0.7132  -19.1103  -59.2184 N.am      22 UNK        -0.7600 
    123 O          0.0768  -17.0902  -58.5963 O.2       22 UNK        -0.5000 
    124 C124       -1.1664  -18.0216  -56.1407 C.3       23 UNK        -0.0398 
    125 S125       -1.3182  -18.4301  -54.3630 S.3       23 UNK        -0.2404 
    126 C126       -0.2162  -17.1708  -53.6444 C.3       23 UNK        -0.0205 
    127 H127       -5.2577  -15.3699  -45.9808 H         1 UNK         0.0600 
    128 H128       -6.4351  -14.0586  -46.0939 H         1 UNK         0.0600 
    129 H129       -5.7172  -14.4696  -44.5325 H         1 UNK         0.0600 
    130 H130       -3.2443  -14.7847  -46.7106 H         1 UNK         0.3000 
    131 H131       -2.4565  -12.0009  -47.0789 H         1 UNK         0.0600 
    132 H132       -0.9320  -14.5657  -47.7580 H         1 UNK         0.0800 
    133 H133       -0.4991  -12.9547  -48.2536 H         1 UNK         0.0800 
    134 H134       -3.6038  -15.6691  -50.2047 H         1 UNK         0.0800 
    135 H135       -2.9688  -15.8914  -48.5989 H         1 UNK         0.0800 
    136 H136       -2.1292  -15.8864  -52.2135 H         1 UNK         0.1150 
    137 H137        1.3979  -18.2754  -51.7218 H         1 UNK         0.1150 
    138 H138       -0.7163  -16.8404  -48.2809 H         1 UNK         0.1150 
    139 H139        2.4793  -18.1440  -49.4079 H         1 UNK         0.0800 
    140 H140        1.4937  -17.7937  -48.0130 H         1 UNK         0.0800 
    141 H141       -1.1814  -19.8470  -48.8073 H         1 UNK         0.0800 
    142 H142       -0.5526  -19.1958  -47.3111 H         1 UNK         0.0800 
    143 H143       -0.5628  -22.1799  -47.9508 H         1 UNK         0.0600 
    144 H144        0.5400  -20.7505  -45.7656 H         1 UNK         0.3000 
    145 H145        0.5731  -23.5518  -43.4686 H         1 UNK         0.0600 
    146 H146        2.9198  -22.6737  -43.4090 H         1 UNK         0.0600 
    147 H147        2.6499  -21.8540  -44.9471 H         1 UNK         0.0600 
    148 H148        2.6016  -23.6070  -44.8643 H         1 UNK         0.0600 
    149 H149        1.2600  -20.8413  -43.0177 H         1 UNK         0.3000 
    150 H150       -1.9473  -19.7249  -41.8572 H         1 UNK         0.0600 
    151 H151       -0.8172  -20.8294  -39.9302 H         1 UNK         0.0600 
    152 H152       -0.5137  -19.0984  -39.9308 H         1 UNK         0.0600 
    153 H153        0.7409  -20.2141  -40.4655 H         1 UNK         0.0600 
    154 H154        0.5227  -18.3475  -42.1339 H         1 UNK         0.3000 
    155 H155        0.0912  -17.2041  -45.4963 H         1 UNK         0.0600 
    156 H156       -0.2336  -15.9657  -42.7171 H         1 UNK         0.0600 
    157 H157       -1.0440  -15.5504  -44.2093 H         1 UNK         0.0600 
    158 H158        0.6508  -15.1423  -43.9855 H         1 UNK         0.0600 
    159 H159        2.1853  -17.0185  -43.5181 H         1 UNK         0.3000 
    160 H160        3.9226  -19.9530  -44.4322 H         1 UNK         0.0600 
    161 H161        4.8018  -17.1755  -45.3395 H         1 UNK         0.0600 
    162 H162        4.5647  -18.5522  -46.4066 H         1 UNK         0.0600 
    163 H163        5.8071  -18.6058  -45.1655 H         1 UNK         0.0600 
    164 H164        4.5492  -17.5319  -42.9367 H         1 UNK         0.3000 
    165 H165        3.1033  -18.6916  -39.9001 H         1 UNK         0.0600 
    166 H166        5.4042  -18.4584  -39.0063 H         1 UNK         0.0600 
    167 H167        5.2657  -19.9481  -39.9261 H         1 UNK         0.0600 
    168 H168        6.0782  -18.5568  -40.6338 H         1 UNK         0.0600 
    169 H169        4.7626  -16.4522  -40.4453 H         1 UNK         0.3000 
    170 H170        2.1752  -14.2160  -40.5427 H         1 UNK         0.0600 
    171 H171        5.2137  -14.4876  -40.8924 H         1 UNK         0.0600 
    172 H172        4.3392  -13.0527  -40.3779 H         1 UNK         0.0600 
    173 H173        4.3594  -14.4715  -39.3488 H         1 UNK         0.0600 
    174 H174        2.2884  -13.3776  -42.5763 H         1 UNK         0.3000 
    175 H175        4.5392  -13.3572  -45.1012 H         1 UNK         0.0600 
    176 H176        2.0478  -15.0201  -45.7399 H         1 UNK         0.0600 
    177 H177        2.9212  -14.0136  -46.8841 H         1 UNK         0.0600 
    178 H178        3.7056  -15.4057  -46.1710 H         1 UNK         0.0600 
    179 H179        1.7028  -12.6625  -44.9749 H         1 UNK         0.3000 
    180 H180        2.1668   -9.7366  -43.0711 H         1 UNK         0.0600 
    181 H181        1.2940   -8.4597  -45.0131 H         1 UNK         0.0600 
    182 H182        1.7658   -9.7569  -46.1123 H         1 UNK         0.0600 
    183 H183        2.9929   -8.8322  -45.2547 H         1 UNK         0.0600 
    184 H184       -0.0436  -10.5814  -44.6404 H         1 UNK         0.3000 
    185 H185       -1.2185  -13.2639  -42.7464 H         1 UNK         0.0600 
    186 H186       -2.3705  -10.4332  -42.5587 H         1 UNK         0.0600 
    187 H187       -3.2318  -11.9352  -42.2235 H         1 UNK         0.0600 
    188 H188       -1.9094  -11.4312  -41.1840 H         1 UNK         0.0600 
    189 H189       -2.7614  -12.0087  -44.5775 H         1 UNK         0.3000 
    190 H190       -2.2064  -20.4364  -45.2615 H         1 UNK         0.3000 
    191 H191       -4.8436  -20.7148  -46.2733 H         1 UNK         0.0600 
    192 H192       -3.8570  -20.5184  -43.3804 H         1 UNK         0.0600 
    193 H193       -5.5204  -20.2927  -43.9056 H         1 UNK         0.0600 
    194 H194       -4.2779  -19.1686  -44.4328 H         1 UNK         0.0600 
    195 H195       -2.8651  -22.9223  -44.2589 H         1 UNK         0.3000 
    196 H196       -4.9165  -24.9110  -43.9122 H         1 UNK         0.0600 
    197 H197       -3.0016  -24.6908  -42.3568 H         1 UNK         0.0600 
    198 H198       -1.8692  -25.0952  -43.6439 H         1 UNK         0.0600 
    199 H199       -3.0205  -26.2967  -43.0713 H         1 UNK         0.0600 
    200 H200       -2.2540  -24.4961  -46.2654 H         1 UNK         0.3000 
    201 H201       -2.6595  -27.0279  -47.5776 H         1 UNK         0.0600 
    202 H202       -0.8928  -26.1630  -49.0999 H         1 UNK         0.0600 
    203 H203       -0.4494  -25.8841  -47.4237 H         1 UNK         0.0600 
    204 H204       -1.0578  -24.5537  -48.4102 H         1 UNK         0.0600 
    205 H205       -4.4099  -24.1311  -47.8466 H         1 UNK         0.3000 
    206 H206       -4.7035  -23.6510  -50.5012 H         1 UNK         0.0600 
    207 H207       -6.8288  -22.4737  -49.8595 H         1 UNK         0.0600 
    208 H208       -6.8100  -23.2970  -48.3028 H         1 UNK         0.0600 
    209 H209       -5.5385  -22.1498  -48.7158 H         1 UNK         0.0600 
    210 H210       -5.9284  -24.2017  -52.1979 H         1 UNK         0.3000 
    211 H211       -8.1921  -26.0522  -52.0626 H         1 UNK         0.0600 
    212 H212       -6.2987  -27.6605  -52.2009 H         1 UNK         0.0600 
    213 H213       -5.6022  -26.7758  -53.5555 H         1 UNK         0.0600 
    214 H214       -7.1440  -27.6069  -53.7411 H         1 UNK         0.0600 
    215 H215       -9.0011  -23.9324  -52.5303 H         1 UNK         0.3000 
    216 H216       -9.9233  -22.3513  -53.7377 H         1 UNK         0.0600 
    217 H217      -10.0512  -22.3539  -56.1851 H         1 UNK         0.0600 
    218 H218      -10.3785  -23.9690  -55.5769 H         1 UNK         0.0600 
    219 H219       -8.8195  -23.5964  -56.3101 H         1 UNK         0.0600 
    220 H220       -6.6999  -23.0187  -55.1038 H         1 UNK         0.3000 
    221 H221       -5.8183  -20.1928  -54.7237 H         1 UNK         0.0600 
    222 H222       -4.3755  -22.6279  -55.9184 H         1 UNK         0.0600 
    223 H223       -5.1154  -21.3234  -56.8457 H         1 UNK         0.0600 
    224 H224       -3.7341  -20.9893  -55.8149 H         1 UNK         0.0600 
    225 H225       -4.1296  -19.7682  -53.1984 H         1 UNK         0.3000 
    226 H226       -4.2859  -21.3475  -50.8062 H         1 UNK         0.0600 
    227 H227       -4.0624  -18.7797  -51.0277 H         1 UNK         0.0600 
    228 H228       -3.1055  -19.5645  -49.7962 H         1 UNK         0.0600 
    229 H229       -2.3436  -19.0589  -51.3035 H         1 UNK         0.0600 
    230 H230       -1.7377  -20.8460  -53.2769 H         1 UNK         0.3000 
    231 H231       -0.4810  -23.3929  -52.6488 H         1 UNK         0.0600 
    232 H232        1.0417  -20.7778  -52.1333 H         1 UNK         0.0600 
    233 H233        1.7840  -22.3741  -52.2123 H         1 UNK         0.0600 
    234 H234        0.6391  -22.0092  -50.9371 H         1 UNK         0.0600 
    235 H235       -1.8627  -22.8717  -54.7649 H         1 UNK         0.3000 
    236 H236       -2.0263  -22.9109  -56.9515 H         1 UNK         0.0600 
    237 H237        1.0281  -22.9705  -57.1649 H         1 UNK         0.0600 
    238 H238       -0.0205  -24.3792  -57.0136 H         1 UNK         0.0600 
    239 H239       -0.1195  -23.3540  -58.4364 H         1 UNK         0.0600 
    240 H240        0.5591  -20.6550  -56.0421 H         1 UNK         0.3000 
    241 H241        0.9122  -18.4992  -56.3131 H         1 UNK         0.0600 
    242 H242        0.8886  -18.7795  -60.1543 H         1 UNK         0.3800 
    243 H243        0.8713  -20.0785  -58.9889 H         1 UNK         0.3800 
    244 H244       -2.1137  -18.2592  -56.6266 H         1 UNK         0.0800 
    245 H245       -1.0488  -16.9414  -56.2384 H         1 UNK         0.0800 
    246 H246        0.8149  -17.3941  -53.9221 H         1 UNK         0.0800 
    247 H247       -0.4457  -16.1933  -54.0713 H         1 UNK         0.0800 
@<TRIPOS>BOND
     1    1    2 1    
     2    1  127 1    
     3    1  128 1    
     4    1  129 1    
     5    2    3 2    
     6    2    4 am   BACKBONE|DICT|INTERRES
     7    4    5 1    
     8    4  130 1    
     9    5    6 1    
    10    5   65 1    
    11    5  131 1    
    12    6    7 1    
    13    6  132 1    
    14    6  133 1    
    15    7    8 1    
    16    8    9 1    
    17    8  134 1    
    18    8  135 1    
    19    9   10 ar   
    20    9   14 ar   
    21   10   11 ar   
    22   10  136 1    
    23   11   12 ar   
    24   11  126 1    
    25   12   13 ar   
    26   12  137 1    
    27   13   14 ar   
    28   13   15 1    
    29   14  138 1    
    30   15   16 1    
    31   15  139 1    
    32   15  140 1    
    33   16   17 1    
    34   17   18 1    
    35   17  141 1    
    36   17  142 1    
    37   18   19 1    
    38   18   67 1    
    39   18  143 1    
    40   19   20 am   BACKBONE|DICT|INTERRES
    41   19  144 1    
    42   20   21 2    
    43   20   22 1    
    44   22   23 1    
    45   22   24 1    
    46   22  145 1    
    47   23  146 1    
    48   23  147 1    
    49   23  148 1    
    50   24   25 am   BACKBONE|DICT|INTERRES
    51   24  149 1    
    52   25   26 2    
    53   25   27 1    
    54   27   28 1    
    55   27   29 1    
    56   27  150 1    
    57   28  151 1    
    58   28  152 1    
    59   28  153 1    
    60   29   30 am   BACKBONE|DICT|INTERRES
    61   29  154 1    
    62   30   31 2    
    63   30   32 1    
    64   32   33 1    
    65   32   34 1    
    66   32  155 1    
    67   33  156 1    
    68   33  157 1    
    69   33  158 1    
    70   34   35 am   BACKBONE|DICT|INTERRES
    71   34  159 1    
    72   35   36 2    
    73   35   37 1    
    74   37   38 1    
    75   37   39 1    
    76   37  160 1    
    77   38  161 1    
    78   38  162 1    
    79   38  163 1    
    80   39   40 am   BACKBONE|DICT|INTERRES
    81   39  164 1    
    82   40   41 2    
    83   40   42 1    
    84   42   43 1    
    85   42   44 1    
    86   42  165 1    
    87   43  166 1    
    88   43  167 1    
    89   43  168 1    
    90   44   45 am   BACKBONE|DICT|INTERRES
    91   44  169 1    
    92   45   46 2    
    93   45   47 1    
    94   47   48 1    
    95   47   49 1    
    96   47  170 1    
    97   48  171 1    
    98   48  172 1    
    99   48  173 1    
   100   49   50 am   BACKBONE|DICT|INTERRES
   101   49  174 1    
   102   50   51 2    
   103   50   52 1    
   104   52   53 1    
   105   52   54 1    
   106   52  175 1    
   107   53  176 1    
   108   53  177 1    
   109   53  178 1    
   110   54   55 am   BACKBONE|DICT|INTERRES
   111   54  179 1    
   112   55   56 2    
   113   55   57 1    
   114   57   58 1    
   115   57   59 1    
   116   57  180 1    
   117   58  181 1    
   118   58  182 1    
   119   58  183 1    
   120   59   60 am   BACKBONE|DICT|INTERRES
   121   59  184 1    
   122   60   61 2    
   123   60   62 1    
   124   62   63 1    
   125   62   64 1    
   126   62  185 1    
   127   63  186 1    
   128   63  187 1    
   129   63  188 1    
   130   64   65 am   BACKBONE|DICT|INTERRES
   131   64  189 1    
   132   65   66 2    
   133   67   68 2    
   134   67   69 am   BACKBONE|DICT|INTERRES
   135   69   70 1    
   136   69  190 1    
   137   70   71 1    
   138   70   72 1    
   139   70  191 1    
   140   71  192 1    
   141   71  193 1    
   142   71  194 1    
   143   72   73 2    
   144   72   74 am   BACKBONE|DICT|INTERRES
   145   74   75 1    
   146   74  195 1    
   147   75   76 1    
   148   75   77 1    
   149   75  196 1    
   150   76  197 1    
   151   76  198 1    
   152   76  199 1    
   153   77   78 2    
   154   77   79 am   BACKBONE|DICT|INTERRES
   155   79   80 1    
   156   79  200 1    
   157   80   81 1    
   158   80   82 1    
   159   80  201 1    
   160   81  202 1    
   161   81  203 1    
   162   81  204 1    
   163   82   83 2    
   164   82   84 am   BACKBONE|DICT|INTERRES
   165   84   85 1    
   166   84  205 1    
   167   85   86 1    
   168   85   87 1    
   169   85  206 1    
   170   86  207 1    
   171   86  208 1    
   172   86  209 1    
   173   87   88 2    
   174   87   89 am   BACKBONE|DICT|INTERRES
   175   89   90 1    
   176   89  210 1    
   177   90   91 1    
   178   90   92 1    
   179   90  211 1    
   180   91  212 1    
   181   91  213 1    
   182   91  214 1    
   183   92   93 2    
   184   92   94 am   BACKBONE|DICT|INTERRES
   185   94   95 1    
   186   94  215 1    
   187   95   96 1    
   188   95   97 1    
   189   95  216 1    
   190   96  217 1    
   191   96  218 1    
   192   96  219 1    
   193   97   98 2    
   194   97   99 am   BACKBONE|DICT|INTERRES
   195   99  100 1    
   196   99  220 1    
   197  100  101 1    
   198  100  102 1    
   199  100  221 1    
   200  101  222 1    
   201  101  223 1    
   202  101  224 1    
   203  102  103 2    
   204  102  104 am   BACKBONE|DICT|INTERRES
   205  104  105 1    
   206  104  225 1    
   207  105  106 1    
   208  105  107 1    
   209  105  226 1    
   210  106  227 1    
   211  106  228 1    
   212  106  229 1    
   213  107  108 2    
   214  107  109 am   BACKBONE|DICT|INTERRES
   215  109  110 1    
   216  109  230 1    
   217  110  111 1    
   218  110  112 1    
   219  110  231 1    
   220  111  232 1    
   221  111  233 1    
   222  111  234 1    
   223  112  113 2    
   224  112  114 am   BACKBONE|DICT|INTERRES
   225  114  115 1    
   226  114  235 1    
   227  115  116 1    
   228  115  117 1    
   229  115  236 1    
   230  116  237 1    
   231  116  238 1    
   232  116  239 1    
   233  117  118 2    
   234  117  119 am   BACKBONE|DICT|INTERRES
   235  119  120 1    
   236  119  240 1    
   237  120  121 1    
   238  120  124 1    
   239  120  241 1    
   240  121  122 am   BACKBONE|DICT|INTERRES
   241  121  123 2    
   242  122  242 1    
   243  122  243 1    
   244  124  125 1    
   245  124  244 1    
   246  124  245 1    
   247  125  126 1    
   248  126  246 1    
   249  126  247 1    
@<TRIPOS>SUBSTRUCTURE
     1 UNK         1 GROUP             0       ****    0 ROOT    
