@<TRIPOS>MOLECULE
3R540
247   249    1
SMALL
USER_CHARGES


@<TRIPOS>ATOM
      1 CA         -0.2164  -12.3575  -41.1688 C.3       0 UNK        -0.1800 
      2 C          -0.8502  -11.9660  -42.4963 C.2       0 UNK         0.5000 
      3 O          -0.8425  -10.7880  -42.8544 O.2       0 UNK        -0.5000 
      4 N          -1.4084  -12.9458  -43.2210 N.am      1 UNK        -0.5000 
      5 CA         -1.9702  -12.7660  -44.5633 C.3       1 UNK         0.1400 
      6 C6         -2.8297  -13.9828  -44.9931 C.3       23 UNK        -0.0398 
      7 S7         -3.9717  -13.5783  -46.3597 S.3       23 UNK        -0.2404 
      8 C8         -3.3160  -14.5817  -47.7319 C.3       23 UNK        -0.0205 
      9 C9         -4.1314  -15.8500  -47.9308 C.ar      23 UNK        -0.0193 
     10 C10        -5.3125  -15.7987  -48.6760 C.ar      23 UNK        -0.1150 
     11 C11        -6.0849  -16.9467  -48.8678 C.ar      23 UNK        -0.0193 
     12 C12        -5.6645  -18.1578  -48.3129 C.ar      23 UNK        -0.1150 
     13 C13        -4.4845  -18.2247  -47.5659 C.ar      23 UNK        -0.0193 
     14 C14        -3.7187  -17.0677  -47.3799 C.ar      23 UNK        -0.1150 
     15 C15        -4.0633  -19.5448  -46.9406 C.3       23 UNK        -0.0205 
     16 S16        -4.8820  -19.7539  -45.3275 S.3       23 UNK        -0.2404 
     17 C17        -4.6616  -21.4990  -44.8107 C.3       23 UNK        -0.0398 
     18 CA         -3.8004  -22.4452  -45.6856 C.3       11 UNK         0.1400 
     19 N          -2.4111  -21.9953  -45.8425 N.am      11 UNK        -0.5000 
     20 C          -1.5229  -22.5532  -46.6818 C.2       10 UNK         0.5000 
     21 O          -1.7882  -23.5173  -47.3992 O.2       10 UNK        -0.5000 
     22 CA         -0.1027  -21.9667  -46.7392 C.3       10 UNK         0.1400 
     23 CB          0.0494  -21.0930  -47.9931 C.3       10 UNK        -0.1800 
     24 N           0.2469  -21.1936  -45.5480 N.am      10 UNK        -0.5000 
     25 C           0.5101  -21.7356  -44.3477 C.2       9 UNK         0.5000 
     26 O           0.5254  -22.9497  -44.1433 O.2       9 UNK        -0.5000 
     27 CA          0.7543  -20.7703  -43.1672 C.3       9 UNK         0.1400 
     28 CB          2.2590  -20.5407  -42.9644 C.3       9 UNK        -0.1800 
     29 N           0.0935  -19.4728  -43.3230 N.am      9 UNK        -0.5000 
     30 C          -1.2308  -19.2971  -43.4521 C.2       8 UNK         0.5000 
     31 O          -2.0431  -20.2144  -43.3484 O.2       8 UNK        -0.5000 
     32 CA         -1.7273  -17.8849  -43.8280 C.3       8 UNK         0.1400 
     33 CB         -2.2164  -17.1407  -42.5771 C.3       8 UNK        -0.1800 
     34 N          -0.7164  -17.0677  -44.5047 N.am      8 UNK        -0.5000 
     35 C          -0.0736  -17.3857  -45.6389 C.2       7 UNK         0.5000 
     36 O          -0.3614  -18.3666  -46.3211 O.2       7 UNK        -0.5000 
     37 CA          1.1273  -16.5065  -46.0462 C.3       7 UNK         0.1400 
     38 CB          0.8350  -15.7571  -47.3529 C.3       7 UNK        -0.1800 
     39 N           1.5382  -15.5486  -45.0128 N.am      7 UNK        -0.5000 
     40 C           2.0627  -15.8830  -43.8256 C.2       6 UNK         0.5000 
     41 O           2.2852  -17.0475  -43.4868 O.2       6 UNK        -0.5000 
     42 CA          2.3130  -14.7195  -42.8516 C.3       6 UNK         0.1400 
     43 CB          2.2651  -15.1568  -41.3732 C.3       6 UNK        -0.1800 
     44 N           3.5485  -13.9965  -43.1485 N.am      6 UNK        -0.5000 
     45 C           4.8115  -14.4519  -43.1036 C.2       5 UNK         0.5000 
     46 O           5.1199  -15.6117  -42.8291 O.2       5 UNK        -0.5000 
     47 CA          5.9383  -13.4368  -43.4014 C.3       5 UNK         0.1400 
     48 CB          6.5014  -13.6616  -44.8136 C.3       5 UNK        -0.1800 
     49 N           5.5177  -12.0392  -43.2850 N.am      5 UNK        -0.5000 
     50 C           5.1476  -11.4233  -42.1526 C.2       4 UNK         0.5000 
     51 O           5.2609  -11.9262  -41.0345 O.2       4 UNK        -0.5000 
     52 CA          4.5073  -10.0244  -42.2961 C.3       4 UNK         0.1400 
     53 CB          5.4994   -8.9323  -41.8674 C.3       4 UNK        -0.1800 
     54 N           4.0172   -9.7162  -43.6469 N.am      4 UNK        -0.5000 
     55 C           3.0635  -10.3909  -44.3038 C.2       3 UNK         0.5000 
     56 O           2.4733  -11.3685  -43.8371 O.2       3 UNK        -0.5000 
     57 CA          2.7889   -9.9403  -45.7447 C.3       3 UNK         0.1400 
     58 CB          3.9866  -10.2755  -46.6569 C.3       3 UNK        -0.1800 
     59 N           1.5924  -10.6097  -46.2405 N.am      3 UNK        -0.5000 
     60 C           0.8620  -10.2339  -47.2931 C.2       2 UNK         0.5000 
     61 O           1.1053   -9.2286  -47.9622 O.2       2 UNK        -0.5000 
     62 CA         -0.3469  -11.1106  -47.6753 C.3       2 UNK         0.1400 
     63 CB          0.0863  -12.2773  -48.5824 C.3       2 UNK        -0.1800 
     64 N          -1.1593  -11.5798  -46.5448 N.am      2 UNK        -0.5000 
     65 C          -0.8533  -12.4640  -45.5861 C.2       1 UNK         0.5000 
     66 O           0.2341  -13.0402  -45.4907 O.2       1 UNK        -0.5000 
     67 C          -3.8569  -23.8766  -45.1113 C.2       11 UNK         0.5000 
     68 O          -4.6601  -24.6884  -45.5715 O.2       11 UNK        -0.5000 
     69 N          -2.9532  -24.1767  -44.1662 N.am      12 UNK        -0.5000 
     70 CA         -2.7648  -25.5013  -43.5676 C.3       12 UNK         0.1400 
     71 CB         -1.8254  -25.3684  -42.3594 C.3       12 UNK        -0.1800 
     72 C          -2.2220  -26.5493  -44.5611 C.2       12 UNK         0.5000 
     73 O          -2.4104  -27.7463  -44.3442 O.2       12 UNK        -0.5000 
     74 N          -1.5849  -26.0784  -45.6402 N.am      13 UNK        -0.5000 
     75 CA         -1.0797  -26.8753  -46.7552 C.3       13 UNK         0.1400 
     76 CB          0.3039  -26.3308  -47.1532 C.3       13 UNK        -0.1800 
     77 C          -2.0557  -26.8767  -47.9510 C.2       13 UNK         0.5000 
     78 O          -1.6408  -27.2212  -49.0568 O.2       13 UNK        -0.5000 
     79 N          -3.3194  -26.4782  -47.7302 N.am      14 UNK        -0.5000 
     80 CA         -4.4044  -26.3889  -48.7148 C.3       14 UNK         0.1400 
     81 CB         -4.7919  -27.7892  -49.2356 C.3       14 UNK        -0.1800 
     82 C          -4.0831  -25.3911  -49.8452 C.2       14 UNK         0.5000 
     83 O          -4.1272  -25.7457  -51.0245 O.2       14 UNK        -0.5000 
     84 N          -3.7167  -24.1651  -49.4447 N.am      15 UNK        -0.5000 
     85 CA         -3.2673  -23.0546  -50.2930 C.3       15 UNK         0.1400 
     86 CB         -4.4075  -22.5746  -51.2142 C.3       15 UNK        -0.1800 
     87 C          -1.9634  -23.4030  -51.0410 C.2       15 UNK         0.5000 
     88 O          -1.8253  -23.1072  -52.2300 O.2       15 UNK        -0.5000 
     89 N          -1.0491  -24.0656  -50.3138 N.am      16 UNK        -0.5000 
     90 CA          0.2131  -24.6479  -50.7827 C.3       16 UNK         0.1400 
     91 CB          1.2242  -23.5368  -51.1349 C.3       16 UNK        -0.1800 
     92 C          -0.0086  -25.6573  -51.9287 C.2       16 UNK         0.5000 
     93 O           0.5952  -25.5289  -52.9926 O.2       16 UNK        -0.5000 
     94 N          -0.9175  -26.6160  -51.6992 N.am      17 UNK        -0.5000 
     95 CA         -1.4281  -27.6041  -52.6567 C.3       17 UNK         0.1400 
     96 CB         -0.3368  -28.6358  -53.0093 C.3       17 UNK        -0.1800 
     97 C          -2.0669  -26.9422  -53.8977 C.2       17 UNK         0.5000 
     98 O          -1.8209  -27.3659  -55.0286 O.2       17 UNK        -0.5000 
     99 N          -2.8591  -25.8906  -53.6451 N.am      18 UNK        -0.5000 
    100 CA        -3.5303  -25.0160  -54.6107 C.3       18 UNK         0.1400 
    101 CB        -4.6420  -25.7834  -55.3556 C.3       18 UNK        -0.1800 
    102 C         -2.5735  -24.2636  -55.5638 C.2       18 UNK         0.5000 
    103 O         -2.9738  -23.9149  -56.6765 O.2       18 UNK        -0.5000 
    104 N         -1.3330  -24.0095  -55.1214 N.am      19 UNK        -0.5000 
    105 CA        -0.3656  -23.1784  -55.8401 C.3       19 UNK         0.1400 
    106 CB         1.0589  -23.4891  -55.3610 C.3       19 UNK        -0.1800 
    107 C         -0.6719  -21.6793  -55.6820 C.2       19 UNK         0.5000 
    108 O         -0.4341  -20.9142  -56.6182 O.2       19 UNK        -0.5000 
    109 N         -1.2065  -21.2855  -54.5172 N.am      20 UNK        -0.5000 
    110 CA        -1.7414  -19.9470  -54.2803 C.3       20 UNK         0.1400 
    111 CB        -1.7562  -19.6643  -52.7701 C.3       20 UNK        -0.1800 
    112 C         -3.1508  -19.8214  -54.8873 C.2       20 UNK         0.5000 
    113 O         -3.8623  -20.8225  -55.0107 O.2       20 UNK        -0.5000 
    114 N         -3.5390  -18.5859  -55.2323 N.am      21 UNK        -0.5000 
    115 CA        -4.7864  -18.2426  -55.9297 C.3       21 UNK         0.1400 
    116 CB        -4.8060  -16.7292  -56.1953 C.3       21 UNK        -0.1800 
    117 C         -6.0810  -18.6773  -55.2122 C.2       21 UNK         0.5000 
    118 O         -7.0983  -18.8872  -55.8744 O.2       21 UNK        -0.5000 
    119 N         -6.0134  -18.8208  -53.8842 N.am      22 UNK        -0.5000 
    120 CA        -7.0857  -19.3658  -53.0382 C.3       22 UNK         0.1400 
    121 C         -7.2438  -20.9147  -53.1164 C.2       22 UNK         0.5000 
    122 N         -6.3733  -21.6535  -53.7951 N.am      22 UNK        -0.7600 
    123 O         -8.1930  -21.4594  -52.5595 O.2       22 UNK        -0.5000 
    124 C124       -6.9446  -18.8850  -51.5722 C.3       23 UNK        -0.0398 
    125 S125       -7.0972  -17.0708  -51.4394 S.3       23 UNK        -0.2404 
    126 C126       -7.3825  -16.8652  -49.6557 C.3       23 UNK        -0.0205 
    127 H127        0.8507  -12.1345  -41.1867 H         1 UNK         0.0600 
    128 H128       -0.3398  -13.4196  -40.9563 H         1 UNK         0.0600 
    129 H129       -0.6702  -11.7931  -40.3543 H         1 UNK         0.0600 
    130 H130       -1.3996  -13.8884  -42.8644 H         1 UNK         0.3000 
    131 H131       -2.6268  -11.8943  -44.5089 H         1 UNK         0.0600 
    132 H132       -3.4553  -14.3022  -44.1589 H         1 UNK         0.0800 
    133 H133       -2.2100  -14.8428  -45.2479 H         1 UNK         0.0800 
    134 H134       -2.2650  -14.8195  -47.5727 H         1 UNK         0.0800 
    135 H135       -3.3493  -13.9843  -48.6443 H         1 UNK         0.0800 
    136 H136       -5.6366  -14.8589  -49.1010 H         1 UNK         0.1150 
    137 H137       -6.2638  -19.0471  -48.4488 H         1 UNK         0.1150 
    138 H138       -2.8095  -17.1131  -46.7990 H         1 UNK         0.1150 
    139 H139       -4.3250  -20.3639  -47.6110 H         1 UNK         0.0800 
    140 H140       -2.9802  -19.5642  -46.8144 H         1 UNK         0.0800 
    141 H141       -5.6699  -21.9089  -44.7263 H         1 UNK         0.0800 
    142 H142       -4.2768  -21.4824  -43.7899 H         1 UNK         0.0800 
    143 H143       -4.2499  -22.4888  -46.6791 H         1 UNK         0.0600 
    144 H144       -2.1185  -21.2353  -45.2401 H         1 UNK         0.3000 
    145 H145        0.5960  -22.8017  -46.8227 H         1 UNK         0.0600 
    146 H146       -0.6827  -20.2856  -48.0164 H         1 UNK         0.0600 
    147 H147        1.0435  -20.6498  -48.0517 H         1 UNK         0.0600 
    148 H148       -0.0986  -21.6819  -48.8981 H         1 UNK         0.0600 
    149 H149        0.2106  -20.1841  -45.6452 H         1 UNK         0.3000 
    150 H150        0.3531  -21.2429  -42.2684 H         1 UNK         0.0600 
    151 H151        2.7837  -21.4857  -42.8174 H         1 UNK         0.0600 
    152 H152        2.4492  -19.9231  -42.0863 H         1 UNK         0.0600 
    153 H153        2.7085  -20.0437  -43.8252 H         1 UNK         0.0600 
    154 H154        0.7026  -18.6686  -43.4133 H         1 UNK         0.3000 
    155 H155       -2.5695  -18.0042  -44.5109 H         1 UNK         0.0600 
    156 H156       -2.9801  -17.7186  -42.0548 H         1 UNK         0.0600 
    157 H157       -2.6621  -16.1810  -42.8345 H         1 UNK         0.0600 
    158 H158       -1.4036  -16.9588  -41.8727 H         1 UNK         0.0600 
    159 H159       -0.3862  -16.2583  -44.0043 H         1 UNK         0.3000 
    160 H160        1.9661  -17.1818  -46.2265 H         1 UNK         0.0600 
    161 H161        1.7063  -15.1933  -47.6859 H         1 UNK         0.0600 
    162 H162        0.0068  -15.0604  -47.2368 H         1 UNK         0.0600 
    163 H163        0.5710  -16.4495  -48.1534 H         1 UNK         0.0600 
    164 H164        1.3228  -14.5719  -45.2029 H         1 UNK         0.3000 
    165 H165        1.5053  -14.0019  -43.0003 H         1 UNK         0.0600 
    166 H166        3.0438  -15.8813  -41.1332 H         1 UNK         0.0600 
    167 H167        2.3878  -14.3027  -40.7071 H         1 UNK         0.0600 
    168 H168        1.3068  -15.6202  -41.1362 H         1 UNK         0.0600 
    169 H169        3.4036  -13.0256  -43.4102 H         1 UNK         0.3000 
    170 H170        6.7375  -13.6116  -42.6782 H         1 UNK         0.0600 
    171 H171        5.7454  -13.4868  -45.5803 H         1 UNK         0.0600 
    172 H172        7.3437  -12.9990  -45.0136 H         1 UNK         0.0600 
    173 H173        6.8597  -14.6850  -44.9335 H         1 UNK         0.0600 
    174 H174        5.4030  -11.5338  -44.1503 H         1 UNK         0.3000 
    175 H175        3.6503   -9.9942  -41.6201 H         1 UNK         0.0600 
    176 H176        6.3689   -8.8987  -42.5251 H         1 UNK         0.0600 
    177 H177        5.0316   -7.9476  -41.8764 H         1 UNK         0.0600 
    178 H178        5.8616   -9.1079  -40.8534 H         1 UNK         0.0600 
    179 H179        4.4611   -8.9348  -44.1080 H         1 UNK         0.3000 
    180 H180        2.6188   -8.8618  -45.7361 H         1 UNK         0.0600 
    181 H181        4.1772  -11.3492  -46.6872 H         1 UNK         0.0600 
    182 H182        4.8995   -9.7879  -46.3136 H         1 UNK         0.0600 
    183 H183        3.8147   -9.9404  -47.6797 H         1 UNK         0.0600 
    184 H184        1.3113  -11.4349  -45.7147 H         1 UNK         0.3000 
    185 H185       -1.0145  -10.4781  -48.2627 H         1 UNK         0.0600 
    186 H186        0.8348  -12.9060  -48.1012 H         1 UNK         0.0600 
    187 H187       -0.7609  -12.9059  -48.8560 H         1 UNK         0.0600 
    188 H188        0.5278  -11.9039  -49.5070 H         1 UNK         0.0600 
    189 H189       -2.0780  -11.1605  -46.5023 H         1 UNK         0.3000 
    190 H190       -2.3113  -23.4553  -43.8684 H         1 UNK         0.3000 
    191 H191       -3.7351  -25.8552  -43.2132 H         1 UNK         0.0600 
    192 H192       -0.8410  -25.0026  -42.6544 H         1 UNK         0.0600 
    193 H193       -2.2310  -24.6805  -41.6173 H         1 UNK         0.0600 
    194 H194       -1.6839  -26.3309  -41.8659 H         1 UNK         0.0600 
    195 H195       -1.5122  -25.0766  -45.7534 H         1 UNK         0.3000 
    196 H196       -0.9552  -27.9146  -46.4456 H         1 UNK         0.0600 
    197 H197        0.9897  -26.3468  -46.3061 H         1 UNK         0.0600 
    198 H198        0.2458  -25.3042  -47.5139 H         1 UNK         0.0600 
    199 H199        0.7546  -26.9339  -47.9423 H         1 UNK         0.0600 
    200 H200       -3.5617  -26.1688  -46.7972 H         1 UNK         0.3000 
    201 H201       -5.2688  -25.9855  -48.1854 H         1 UNK         0.0600 
    202 H202       -5.6680  -27.7338  -49.8827 H         1 UNK         0.0600 
    203 H203       -5.0377  -28.4608  -48.4132 H         1 UNK         0.0600 
    204 H204       -3.9896  -28.2476  -49.8146 H         1 UNK         0.0600 
    205 H205       -3.5906  -24.0187  -48.4513 H         1 UNK         0.3000 
    206 H206       -3.0199  -22.2302  -49.6227 H         1 UNK         0.0600 
    207 H207       -5.2928  -22.3085  -50.6368 H         1 UNK         0.0600 
    208 H208       -4.6997  -23.3377  -51.9340 H         1 UNK         0.0600 
    209 H209       -4.1205  -21.6919  -51.7825 H         1 UNK         0.0600 
    210 H210       -1.2797  -24.2372  -49.3421 H         1 UNK         0.3000 
    211 H211        0.6276  -25.2189  -49.9517 H         1 UNK         0.0600 
    212 H212        1.4388  -22.9120  -50.2688 H         1 UNK         0.0600 
    213 H213        2.1726  -23.9607  -51.4669 H         1 UNK         0.0600 
    214 H214        0.8578  -22.8893  -51.9314 H         1 UNK         0.0600 
    215 H215       -1.3258  -26.6738  -50.7677 H         1 UNK         0.3000 
    216 H216       -2.2326  -28.1346  -52.1451 H         1 UNK         0.0600 
    217 H217       -0.7436  -29.4391  -53.6245 H         1 UNK         0.0600 
    218 H218        0.4855  -28.1833  -53.5643 H         1 UNK         0.0600 
    219 H219        0.0764  -29.0934  -52.1105 H         1 UNK         0.0600 
    220 H220       -3.0381  -25.6658  -52.6703 H         1 UNK         0.3000 
    221 H221       -4.0138  -24.2395  -54.0178 H         1 UNK         0.0600 
    222 H222       -4.2322  -26.5415  -56.0235 H         1 UNK         0.0600 
    223 H223       -5.3142  -26.2795  -54.6555 H         1 UNK         0.0600 
    224 H224       -5.2481  -25.1076  -55.9600 H         1 UNK         0.0600 
    225 H225       -1.0721  -24.3198  -54.1933 H         1 UNK         0.3000 
    226 H226       -0.4183  -23.4210  -56.9036 H         1 UNK         0.0600 
    227 H227        1.2978  -24.5446  -55.4919 H         1 UNK         0.0600 
    228 H228        1.7940  -22.9164  -55.9277 H         1 UNK         0.0600 
    229 H229        1.1926  -23.2406  -54.3082 H         1 UNK         0.0600 
    230 H230       -1.4166  -21.9860  -53.8117 H         1 UNK         0.3000 
    231 H231       -1.0892  -19.2125  -54.7577 H         1 UNK         0.0600 
    232 H232       -2.1313  -18.6620  -52.5603 H         1 UNK         0.0600 
    233 H233       -0.7527  -19.7303  -52.3493 H         1 UNK         0.0600 
    234 H234       -2.3858  -20.3692  -52.2317 H         1 UNK         0.0600 
    235 H235       -2.9011  -17.8192  -55.0736 H         1 UNK         0.3000 
    236 H236       -4.7689  -18.7568  -56.8927 H         1 UNK         0.0600 
    237 H237       -4.7874  -16.1587  -55.2657 H         1 UNK         0.0600 
    238 H238       -3.9507  -16.4216  -56.7972 H         1 UNK         0.0600 
    239 H239       -5.7052  -16.4387  -56.7404 H         1 UNK         0.0600 
    240 H240       -5.1388  -18.6187  -53.4249 H         1 UNK         0.3000 
    241 H241       -8.0305  -18.9688  -53.4149 H         1 UNK         0.0600 
    242 H242       -5.5675  -21.2405  -54.2569 H         1 UNK         0.3800 
    243 H243       -6.5152  -22.6484  -53.8416 H         1 UNK         0.3800 
    244 H244       -7.7166  -19.3361  -50.9463 H         1 UNK         0.0800 
    245 H245       -5.9855  -19.1962  -51.1549 H         1 UNK         0.0800 
    246 H246       -8.0980  -17.6078  -49.2994 H         1 UNK         0.0800 
    247 H247       -7.8500  -15.8938  -49.4873 H         1 UNK         0.0800 
@<TRIPOS>BOND
     1    1    2 1    
     2    1  127 1    
     3    1  128 1    
     4    1  129 1    
     5    2    3 2    
     6    2    4 am   BACKBONE|DICT|INTERRES
     7    4    5 1    
     8    4  130 1    
     9    5    6 1    
    10    5   65 1    
    11    5  131 1    
    12    6    7 1    
    13    6  132 1    
    14    6  133 1    
    15    7    8 1    
    16    8    9 1    
    17    8  134 1    
    18    8  135 1    
    19    9   10 ar   
    20    9   14 ar   
    21   10   11 ar   
    22   10  136 1    
    23   11   12 ar   
    24   11  126 1    
    25   12   13 ar   
    26   12  137 1    
    27   13   14 ar   
    28   13   15 1    
    29   14  138 1    
    30   15   16 1    
    31   15  139 1    
    32   15  140 1    
    33   16   17 1    
    34   17   18 1    
    35   17  141 1    
    36   17  142 1    
    37   18   19 1    
    38   18   67 1    
    39   18  143 1    
    40   19   20 am   BACKBONE|DICT|INTERRES
    41   19  144 1    
    42   20   21 2    
    43   20   22 1    
    44   22   23 1    
    45   22   24 1    
    46   22  145 1    
    47   23  146 1    
    48   23  147 1    
    49   23  148 1    
    50   24   25 am   BACKBONE|DICT|INTERRES
    51   24  149 1    
    52   25   26 2    
    53   25   27 1    
    54   27   28 1    
    55   27   29 1    
    56   27  150 1    
    57   28  151 1    
    58   28  152 1    
    59   28  153 1    
    60   29   30 am   BACKBONE|DICT|INTERRES
    61   29  154 1    
    62   30   31 2    
    63   30   32 1    
    64   32   33 1    
    65   32   34 1    
    66   32  155 1    
    67   33  156 1    
    68   33  157 1    
    69   33  158 1    
    70   34   35 am   BACKBONE|DICT|INTERRES
    71   34  159 1    
    72   35   36 2    
    73   35   37 1    
    74   37   38 1    
    75   37   39 1    
    76   37  160 1    
    77   38  161 1    
    78   38  162 1    
    79   38  163 1    
    80   39   40 am   BACKBONE|DICT|INTERRES
    81   39  164 1    
    82   40   41 2    
    83   40   42 1    
    84   42   43 1    
    85   42   44 1    
    86   42  165 1    
    87   43  166 1    
    88   43  167 1    
    89   43  168 1    
    90   44   45 am   BACKBONE|DICT|INTERRES
    91   44  169 1    
    92   45   46 2    
    93   45   47 1    
    94   47   48 1    
    95   47   49 1    
    96   47  170 1    
    97   48  171 1    
    98   48  172 1    
    99   48  173 1    
   100   49   50 am   BACKBONE|DICT|INTERRES
   101   49  174 1    
   102   50   51 2    
   103   50   52 1    
   104   52   53 1    
   105   52   54 1    
   106   52  175 1    
   107   53  176 1    
   108   53  177 1    
   109   53  178 1    
   110   54   55 am   BACKBONE|DICT|INTERRES
   111   54  179 1    
   112   55   56 2    
   113   55   57 1    
   114   57   58 1    
   115   57   59 1    
   116   57  180 1    
   117   58  181 1    
   118   58  182 1    
   119   58  183 1    
   120   59   60 am   BACKBONE|DICT|INTERRES
   121   59  184 1    
   122   60   61 2    
   123   60   62 1    
   124   62   63 1    
   125   62   64 1    
   126   62  185 1    
   127   63  186 1    
   128   63  187 1    
   129   63  188 1    
   130   64   65 am   BACKBONE|DICT|INTERRES
   131   64  189 1    
   132   65   66 2    
   133   67   68 2    
   134   67   69 am   BACKBONE|DICT|INTERRES
   135   69   70 1    
   136   69  190 1    
   137   70   71 1    
   138   70   72 1    
   139   70  191 1    
   140   71  192 1    
   141   71  193 1    
   142   71  194 1    
   143   72   73 2    
   144   72   74 am   BACKBONE|DICT|INTERRES
   145   74   75 1    
   146   74  195 1    
   147   75   76 1    
   148   75   77 1    
   149   75  196 1    
   150   76  197 1    
   151   76  198 1    
   152   76  199 1    
   153   77   78 2    
   154   77   79 am   BACKBONE|DICT|INTERRES
   155   79   80 1    
   156   79  200 1    
   157   80   81 1    
   158   80   82 1    
   159   80  201 1    
   160   81  202 1    
   161   81  203 1    
   162   81  204 1    
   163   82   83 2    
   164   82   84 am   BACKBONE|DICT|INTERRES
   165   84   85 1    
   166   84  205 1    
   167   85   86 1    
   168   85   87 1    
   169   85  206 1    
   170   86  207 1    
   171   86  208 1    
   172   86  209 1    
   173   87   88 2    
   174   87   89 am   BACKBONE|DICT|INTERRES
   175   89   90 1    
   176   89  210 1    
   177   90   91 1    
   178   90   92 1    
   179   90  211 1    
   180   91  212 1    
   181   91  213 1    
   182   91  214 1    
   183   92   93 2    
   184   92   94 am   BACKBONE|DICT|INTERRES
   185   94   95 1    
   186   94  215 1    
   187   95   96 1    
   188   95   97 1    
   189   95  216 1    
   190   96  217 1    
   191   96  218 1    
   192   96  219 1    
   193   97   98 2    
   194   97   99 am   BACKBONE|DICT|INTERRES
   195   99  100 1    
   196   99  220 1    
   197  100  101 1    
   198  100  102 1    
   199  100  221 1    
   200  101  222 1    
   201  101  223 1    
   202  101  224 1    
   203  102  103 2    
   204  102  104 am   BACKBONE|DICT|INTERRES
   205  104  105 1    
   206  104  225 1    
   207  105  106 1    
   208  105  107 1    
   209  105  226 1    
   210  106  227 1    
   211  106  228 1    
   212  106  229 1    
   213  107  108 2    
   214  107  109 am   BACKBONE|DICT|INTERRES
   215  109  110 1    
   216  109  230 1    
   217  110  111 1    
   218  110  112 1    
   219  110  231 1    
   220  111  232 1    
   221  111  233 1    
   222  111  234 1    
   223  112  113 2    
   224  112  114 am   BACKBONE|DICT|INTERRES
   225  114  115 1    
   226  114  235 1    
   227  115  116 1    
   228  115  117 1    
   229  115  236 1    
   230  116  237 1    
   231  116  238 1    
   232  116  239 1    
   233  117  118 2    
   234  117  119 am   BACKBONE|DICT|INTERRES
   235  119  120 1    
   236  119  240 1    
   237  120  121 1    
   238  120  124 1    
   239  120  241 1    
   240  121  122 am   BACKBONE|DICT|INTERRES
   241  121  123 2    
   242  122  242 1    
   243  122  243 1    
   244  124  125 1    
   245  124  244 1    
   246  124  245 1    
   247  125  126 1    
   248  126  246 1    
   249  126  247 1    
@<TRIPOS>SUBSTRUCTURE
     1 UNK         1 GROUP             0       ****    0 ROOT    
