@<TRIPOS>MOLECULE
3R540
247   249    1
SMALL
USER_CHARGES


@<TRIPOS>ATOM
      1 CA         -1.9929  -19.7495  -45.6124 C.3       0 UNK        -0.1800 
      2 C          -2.5592  -18.3659  -45.8911 C.2       0 UNK         0.5000 
      3 O          -3.6194  -18.0190  -45.3700 O.2       0 UNK        -0.5000 
      4 N          -1.8518  -17.5665  -46.7010 N.am      1 UNK        -0.5000 
      5 CA         -2.2286  -16.2035  -47.0891 C.3       1 UNK         0.1400 
      6 C6         -1.5094  -15.7424  -48.3814 C.3       23 UNK        -0.0398 
      7 S7         -1.9251  -16.7812  -49.8198 S.3       23 UNK        -0.2404 
      8 C8         -0.4745  -16.5313  -50.8902 C.3       23 UNK        -0.0205 
      9 C9          0.5093  -17.6914  -50.8135 C.ar      23 UNK        -0.0193 
     10 C10         0.7345  -18.4947  -51.9362 C.ar      23 UNK        -0.1150 
     11 C11         1.6657  -19.5386  -51.8931 C.ar      23 UNK        -0.0193 
     12 C12         2.3676  -19.7772  -50.7089 C.ar      23 UNK        -0.1150 
     13 C13         2.1489  -18.9882  -49.5750 C.ar      23 UNK        -0.0193 
     14 C14         1.2226  -17.9438  -49.6376 C.ar      23 UNK        -0.1150 
     15 C15         2.9455  -19.2203  -48.2960 C.3       23 UNK        -0.0205 
     16 S16         3.0088  -20.9669  -47.7848 S.3       23 UNK        -0.2404 
     17 C17         1.2746  -21.2717  -47.3119 C.3       23 UNK        -0.0398 
     18 CA          0.9580  -22.7830  -47.2869 C.3       11 UNK         0.1400 
     19 N           1.7868  -23.5048  -46.3203 N.am      11 UNK        -0.5000 
     20 C           1.9972  -24.8261  -46.3339 C.2       10 UNK         0.5000 
     21 O           1.5227  -25.5847  -47.1778 O.2       10 UNK        -0.5000 
     22 CA          2.8490  -25.3939  -45.1841 C.3       10 UNK         0.1400 
     23 CB          4.3449  -25.2782  -45.5122 C.3       10 UNK        -0.1800 
     24 N           2.5788  -24.7271  -43.9083 N.am      10 UNK        -0.5000 
     25 C           1.4144  -24.8071  -43.2493 C.2       9 UNK         0.5000 
     26 O           0.4624  -25.4874  -43.6285 O.2       9 UNK        -0.5000 
     27 CA          1.2718  -23.9457  -41.9820 C.3       9 UNK         0.1400 
     28 CB          1.8115  -24.6970  -40.7560 C.3       9 UNK        -0.1800 
     29 N           1.9321  -22.6412  -42.0833 N.am      9 UNK        -0.5000 
     30 C           1.6027  -21.6824  -42.9588 C.2       8 UNK         0.5000 
     31 O           0.7446  -21.8146  -43.8345 O.2       8 UNK        -0.5000 
     32 CA          2.4055  -20.3743  -42.8723 C.3       8 UNK         0.1400 
     33 CB          3.5445  -20.3721  -43.9016 C.3       8 UNK        -0.1800 
     34 N           1.5640  -19.1994  -43.0925 N.am      8 UNK        -0.5000 
     35 C           0.6546  -18.7396  -42.2224 C.2       7 UNK         0.5000 
     36 O           0.4003  -19.3024  -41.1558 O.2       7 UNK        -0.5000 
     37 CA         -0.0825  -17.4277  -42.5892 C.3       7 UNK         0.1400 
     38 CB         -0.4427  -16.6035  -41.3350 C.3       7 UNK        -0.1800 
     39 N           0.6092  -16.5745  -43.5695 N.am      7 UNK        -0.5000 
     40 C           1.8424  -16.0495  -43.4746 C.2       6 UNK         0.5000 
     41 O           2.6154  -16.2543  -42.5390 O.2       6 UNK        -0.5000 
     42 CA          2.2660  -15.1157  -44.6203 C.3       6 UNK         0.1400 
     43 CB          2.0890  -15.7667  -46.0048 C.3       6 UNK        -0.1800 
     44 N           1.5062  -13.8693  -44.5509 N.am      6 UNK        -0.5000 
     45 C           1.8100  -12.8523  -43.7295 C.2       5 UNK         0.5000 
     46 O           2.8032  -12.8464  -42.9999 O.2       5 UNK        -0.5000 
     47 CA          0.8418  -11.6500  -43.6985 C.3       5 UNK         0.1400 
     48 CB          1.5332  -10.3265  -43.3083 C.3       5 UNK        -0.1800 
     49 N           0.0563  -11.4923  -44.9252 N.am      5 UNK        -0.5000 
     50 C           0.4977  -11.2002  -46.1594 C.2       4 UNK         0.5000 
     51 O           1.6776  -10.9718  -46.4277 O.2       4 UNK        -0.5000 
     52 CA         -0.5489  -11.1820  -47.2941 C.3       4 UNK         0.1400 
     53 CB         -0.1321  -12.1273  -48.4344 C.3       4 UNK        -0.1800 
     54 N          -1.8761  -11.5803  -46.8191 N.am      4 UNK        -0.5000 
     55 C          -2.8467  -10.7403  -46.4321 C.2       3 UNK         0.5000 
     56 O          -2.7634   -9.5147  -46.5126 O.2       3 UNK        -0.5000 
     57 CA         -4.1179  -11.3759  -45.8290 C.3       3 UNK         0.1400 
     58 CB         -5.1984  -11.5249  -46.9098 C.3       3 UNK        -0.1800 
     59 N          -3.8802  -12.6860  -45.2143 N.am      3 UNK        -0.5000 
     60 C          -3.1246  -12.9035  -44.1278 C.2       2 UNK         0.5000 
     61 O          -2.5874  -12.0050  -43.4819 O.2       2 UNK        -0.5000 
     62 CA         -2.8535  -14.3730  -43.7495 C.3       2 UNK         0.1400 
     63 CB         -3.8670  -14.8705  -42.7100 C.3       2 UNK        -0.1800 
     64 N          -2.8563  -15.2777  -44.9030 N.am      2 UNK        -0.5000 
     65 C          -1.9985  -15.2138  -45.9277 C.2       1 UNK         0.5000 
     66 O          -1.0594  -14.4162  -45.9651 O.2       1 UNK        -0.5000 
     67 C          -0.5380  -23.0503  -47.0334 C.2       11 UNK         0.5000 
     68 O          -1.2919  -23.2231  -47.9900 O.2       11 UNK        -0.5000 
     69 N          -0.9367  -23.1405  -45.7566 N.am      12 UNK        -0.5000 
     70 CA         -2.2773  -23.5507  -45.3376 C.3       12 UNK         0.1400 
     71 CB         -2.4340  -23.3459  -43.8241 C.3       12 UNK        -0.1800 
     72 C          -2.5979  -25.0024  -45.7416 C.2       12 UNK         0.5000 
     73 O          -3.6950  -25.2607  -46.2350 O.2       12 UNK        -0.5000 
     74 N          -1.6217  -25.9098  -45.5888 N.am      13 UNK        -0.5000 
     75 CA         -1.6975  -27.3029  -46.0398 C.3       13 UNK         0.1400 
     76 CB         -0.5024  -28.0914  -45.4841 C.3       13 UNK        -0.1800 
     77 C          -1.7772  -27.4376  -47.5738 C.2       13 UNK         0.5000 
     78 O          -2.4794  -28.3199  -48.0682 O.2       13 UNK        -0.5000 
     79 N          -1.0967  -26.5374  -48.2983 N.am      14 UNK        -0.5000 
     80 CA         -1.1772  -26.3957  -49.7559 C.3       14 UNK         0.1400 
     81 CB          0.0327  -25.5877  -50.2537 C.3       14 UNK        -0.1800 
     82 C          -2.4940  -25.7502  -50.2407 C.2       14 UNK         0.5000 
     83 O          -2.7575  -25.7696  -51.4419 O.2       14 UNK        -0.5000 
     84 N          -3.2886  -25.2057  -49.3083 N.am      15 UNK        -0.5000 
     85 CA         -4.5681  -24.5214  -49.4962 C.3       15 UNK         0.1400 
     86 CB         -5.6096  -25.4331  -50.1803 C.3       15 UNK        -0.1800 
     87 C          -4.4289  -23.1371  -50.1589 C.2       15 UNK         0.5000 
     88 O          -5.2958  -22.7440  -50.9401 O.2       15 UNK        -0.5000 
     89 N          -3.3699  -22.3955  -49.7989 N.am      16 UNK        -0.5000 
     90 CA         -3.2165  -20.9698  -50.1022 C.3       16 UNK         0.1400 
     91 CB         -1.8253  -20.5081  -49.6441 C.3       16 UNK        -0.1800 
     92 C          -4.3213  -20.1517  -49.4004 C.2       16 UNK         0.5000 
     93 O          -4.6258  -20.4274  -48.2369 O.2       16 UNK        -0.5000 
     94 N          -4.9200  -19.1900  -50.1127 N.am      17 UNK        -0.5000 
     95 CA         -6.1466  -18.5157  -49.6830 C.3       17 UNK         0.1400 
     96 CB         -7.3674  -19.3695  -50.0830 C.3       17 UNK        -0.1800 
     97 C          -6.2050  -17.0841  -50.2360 C.2       17 UNK         0.5000 
     98 O          -7.1183  -16.7473  -50.9907 O.2       17 UNK        -0.5000 
     99 N          -5.2037  -16.2753  -49.8597 N.am      18 UNK        -0.5000 
    100 CA        -5.0080  -14.8659  -50.2406 C.3       18 UNK         0.1400 
    101 CB        -6.1417  -13.9826  -49.6789 C.3       18 UNK        -0.1800 
    102 C         -4.7869  -14.6650  -51.7568 C.2       18 UNK         0.5000 
    103 O         -5.0965  -13.6019  -52.2973 O.2       18 UNK        -0.5000 
    104 N         -4.2501  -15.6998  -52.4081 N.am      19 UNK        -0.5000 
    105 CA        -4.0223  -15.8396  -53.8388 C.3       19 UNK         0.1400 
    106 CB        -5.3664  -15.9056  -54.5931 C.3       19 UNK        -0.1800 
    107 C         -3.2257  -17.1352  -54.0465 C.2       19 UNK         0.5000 
    108 O         -3.0923  -17.9328  -53.1106 O.2       19 UNK        -0.5000 
    109 N         -2.7528  -17.3538  -55.2797 N.am      20 UNK        -0.5000 
    110 CA        -1.9803  -18.5204  -55.7246 C.3       20 UNK         0.1400 
    111 CB        -1.2737  -18.1693  -57.0459 C.3       20 UNK        -0.1800 
    112 C         -2.7988  -19.8325  -55.8220 C.2       20 UNK         0.5000 
    113 O         -2.5973  -20.6284  -56.7409 O.2       20 UNK        -0.5000 
    114 N         -3.6880  -20.0581  -54.8477 N.am      21 UNK        -0.5000 
    115 CA        -4.4708  -21.2811  -54.6516 C.3       21 UNK         0.1400 
    116 CB        -5.6251  -20.9692  -53.6870 C.3       21 UNK        -0.1800 
    117 C         -3.6166  -22.4656  -54.1469 C.2       21 UNK         0.5000 
    118 O         -4.0740  -23.6072  -54.1882 O.2       21 UNK        -0.5000 
    119 N         -2.3819  -22.1645  -53.7244 N.am      22 UNK        -0.5000 
    120 CA        -1.2934  -23.0926  -53.3877 C.3       22 UNK         0.1400 
    121 C         -0.8640  -24.0747  -54.5213 C.2       22 UNK         0.5000 
    122 N         -1.1836  -23.8187  -55.7853 N.am      22 UNK        -0.7600 
    123 O         -0.2225  -25.0849  -54.2470 O.2       22 UNK        -0.5000 
    124 C124       -0.0662  -22.3104  -52.8458 C.3       23 UNK        -0.0398 
    125 S125        0.5042  -21.0009  -53.9894 S.3       23 UNK        -0.2404 
    126 C126        1.9800  -20.3663  -53.1348 C.3       23 UNK        -0.0205 
    127 H127       -1.0032  -19.8730  -46.0467 H         1 UNK         0.0600 
    128 H128       -2.6490  -20.5092  -46.0358 H         1 UNK         0.0600 
    129 H129       -1.9149  -19.9209  -44.5390 H         1 UNK         0.0600 
    130 H130       -1.0001  -17.9132  -47.1158 H         1 UNK         0.3000 
    131 H131       -3.3007  -16.1952  -47.2976 H         1 UNK         0.0600 
    132 H132       -1.7947  -14.7194  -48.6319 H         1 UNK         0.0800 
    133 H133       -0.4293  -15.7273  -48.2357 H         1 UNK         0.0800 
    134 H134       -0.8313  -16.4075  -51.9137 H         1 UNK         0.0800 
    135 H135        0.0335  -15.6003  -50.6355 H         1 UNK         0.0800 
    136 H136        0.1983  -18.2954  -52.8533 H         1 UNK         0.1150 
    137 H137        3.1033  -20.5682  -50.6725 H         1 UNK         0.1150 
    138 H138        1.0694  -17.3167  -48.7729 H         1 UNK         0.1150 
    139 H139        3.9644  -18.8651  -48.4541 H         1 UNK         0.0800 
    140 H140        2.5378  -18.6339  -47.4722 H         1 UNK         0.0800 
    141 H141        0.6239  -20.7595  -48.0214 H         1 UNK         0.0800 
    142 H142        1.0983  -20.8185  -46.3361 H         1 UNK         0.0800 
    143 H143        1.1838  -23.1784  -48.2796 H         1 UNK         0.0600 
    144 H144        2.1842  -22.9564  -45.5728 H         1 UNK         0.3000 
    145 H145        2.6020  -26.4522  -45.0760 H         1 UNK         0.0600 
    146 H146        4.9557  -25.7395  -44.7360 H         1 UNK         0.0600 
    147 H147        4.5779  -25.7829  -46.4508 H         1 UNK         0.0600 
    148 H148        4.6575  -24.2379  -45.6127 H         1 UNK         0.0600 
    149 H149        3.3124  -24.1490  -43.5262 H         1 UNK         0.3000 
    150 H150        0.2066  -23.7646  -41.8261 H         1 UNK         0.0600 
    151 H151        2.8841  -24.8791  -40.8337 H         1 UNK         0.0600 
    152 H152        1.3213  -25.6652  -40.6448 H         1 UNK         0.0600 
    153 H153        1.6310  -24.1364  -39.8387 H         1 UNK         0.0600 
    154 H154        2.6574  -22.4551  -41.4057 H         1 UNK         0.3000 
    155 H155        2.8442  -20.2957  -41.8752 H         1 UNK         0.0600 
    156 H156        3.1629  -20.3971  -44.9211 H         1 UNK         0.0600 
    157 H157        4.1960  -21.2373  -43.7722 H         1 UNK         0.0600 
    158 H158        4.1648  -19.4813  -43.7999 H         1 UNK         0.0600 
    159 H159        1.7057  -18.6937  -43.9523 H         1 UNK         0.3000 
    160 H160       -1.0178  -17.7327  -43.0607 H         1 UNK         0.0600 
    161 H161       -1.0966  -17.1660  -40.6677 H         1 UNK         0.0600 
    162 H162       -0.9666  -15.6856  -41.5951 H         1 UNK         0.0600 
    163 H163        0.4464  -16.3284  -40.7666 H         1 UNK         0.0600 
    164 H164        0.0647  -16.3218  -44.3803 H         1 UNK         0.3000 
    165 H165        3.3289  -14.8951  -44.4989 H         1 UNK         0.0600 
    166 H166        2.4242  -15.0961  -46.7964 H         1 UNK         0.0600 
    167 H167        2.6850  -16.6764  -46.0788 H         1 UNK         0.0600 
    168 H168        1.0546  -16.0328  -46.2164 H         1 UNK         0.0600 
    169 H169        0.6566  -13.8200  -45.1036 H         1 UNK         0.3000 
    170 H170        0.1203  -11.8787  -42.9132 H         1 UNK         0.0600 
    171 H171        1.9713  -10.3926  -42.3118 H         1 UNK         0.0600 
    172 H172        2.3356  -10.0676  -43.9994 H         1 UNK         0.0600 
    173 H173        0.8225   -9.5003  -43.2930 H         1 UNK         0.0600 
    174 H174       -0.9371  -11.6460  -44.8072 H         1 UNK         0.3000 
    175 H175       -0.5847  -10.1657  -47.6915 H         1 UNK         0.0600 
    176 H176       -0.8935  -12.1713  -49.2133 H         1 UNK         0.0600 
    177 H177        0.7913  -11.7868  -48.9043 H         1 UNK         0.0600 
    178 H178        0.0437  -13.1408  -48.0742 H         1 UNK         0.0600 
    179 H179       -2.0046  -12.5723  -46.6736 H         1 UNK         0.3000 
    180 H180       -4.4920  -10.7016  -45.0558 H         1 UNK         0.0600 
    181 H181       -4.8679  -12.1832  -47.7131 H         1 UNK         0.0600 
    182 H182       -5.4407  -10.5595  -47.3562 H         1 UNK         0.0600 
    183 H183       -6.1215  -11.9317  -46.4965 H         1 UNK         0.0600 
    184 H184       -4.2962  -13.4830  -45.6725 H         1 UNK         0.3000 
    185 H185       -1.8577  -14.4075  -43.3046 H         1 UNK         0.0600 
    186 H186       -3.8667  -14.2311  -41.8261 H         1 UNK         0.0600 
    187 H187       -4.8817  -14.8800  -43.1099 H         1 UNK         0.0600 
    188 H188       -3.6269  -15.8812  -42.3790 H         1 UNK         0.0600 
    189 H189       -3.5426  -16.0258  -44.9044 H         1 UNK         0.3000 
    190 H190       -0.2746  -22.9149  -45.0193 H         1 UNK         0.3000 
    191 H191       -2.9963  -22.9025  -45.8426 H         1 UNK         0.0600 
    192 H192       -2.2241  -22.3143  -43.5409 H         1 UNK         0.0600 
    193 H193       -3.4521  -23.5717  -43.5051 H         1 UNK         0.0600 
    194 H194       -1.7635  -23.9911  -43.2575 H         1 UNK         0.0600 
    195 H195       -0.7712  -25.6359  -45.1047 H         1 UNK         0.3000 
    196 H196       -2.6095  -27.7363  -45.6244 H         1 UNK         0.0600 
    197 H197       -0.5533  -29.1394  -45.7820 H         1 UNK         0.0600 
    198 H198       -0.4845  -28.0638  -44.3944 H         1 UNK         0.0600 
    199 H199        0.4463  -27.6937  -45.8441 H         1 UNK         0.0600 
    200 H200       -0.4800  -25.8941  -47.8159 H         1 UNK         0.3000 
    201 H201       -1.1218  -27.3923  -50.1985 H         1 UNK         0.0600 
    202 H202        0.0537  -25.5498  -51.3436 H         1 UNK         0.0600 
    203 H203        0.9710  -26.0363  -49.9274 H         1 UNK         0.0600 
    204 H204        0.0076  -24.5597  -49.8944 H         1 UNK         0.0600 
    205 H205       -2.9643  -25.2366  -48.3503 H         1 UNK         0.3000 
    206 H206       -4.9391  -24.3207  -48.4905 H         1 UNK         0.0600 
    207 H207       -5.6735  -26.4015  -49.6842 H         1 UNK         0.0600 
    208 H208       -6.6025  -24.9838  -50.1431 H         1 UNK         0.0600 
    209 H209       -5.3729  -25.6059  -51.2305 H         1 UNK         0.0600 
    210 H210       -2.7014  -22.7845  -49.1381 H         1 UNK         0.3000 
    211 H211       -3.2912  -20.8451  -51.1840 H         1 UNK         0.0600 
    212 H212       -1.0527  -21.2322  -49.8946 H         1 UNK         0.0600 
    213 H213       -1.7854  -20.3497  -48.5663 H         1 UNK         0.0600 
    214 H214       -1.5547  -19.5729  -50.1285 H         1 UNK         0.0600 
    215 H215       -4.5915  -18.9747  -51.0443 H         1 UNK         0.3000 
    216 H216       -6.1493  -18.4145  -48.5954 H         1 UNK         0.0600 
    217 H217       -8.2990  -18.8919  -49.7771 H         1 UNK         0.0600 
    218 H218       -7.3368  -20.3505  -49.6085 H         1 UNK         0.0600 
    219 H219       -7.4120  -19.5236  -51.1619 H         1 UNK         0.0600 
    220 H220       -4.4685  -16.6787  -49.2959 H         1 UNK         0.3000 
    221 H221       -4.0827  -14.5448  -49.7617 H         1 UNK         0.0600 
    222 H222       -7.0964  -14.1918  -50.1619 H         1 UNK         0.0600 
    223 H223       -6.2680  -14.1361  -48.6073 H         1 UNK         0.0600 
    224 H224       -5.9272  -12.9246  -49.8328 H         1 UNK         0.0600 
    225 H225       -3.9646  -16.5169  -51.8821 H         1 UNK         0.3000 
    226 H226       -3.4274  -14.9959  -54.1930 H         1 UNK         0.0600 
    227 H227       -5.9393  -14.9862  -54.4742 H         1 UNK         0.0600 
    228 H228       -5.2164  -16.0477  -55.6637 H         1 UNK         0.0600 
    229 H229       -5.9846  -16.7303  -54.2351 H         1 UNK         0.0600 
    230 H230       -2.9466  -16.6658  -55.9931 H         1 UNK         0.3000 
    231 H231       -1.2034  -18.6999  -54.9795 H         1 UNK         0.0600 
    232 H232       -1.9899  -17.9933  -57.8493 H         1 UNK         0.0600 
    233 H233       -0.6112  -18.9754  -57.3644 H         1 UNK         0.0600 
    234 H234       -0.6594  -17.2749  -56.9398 H         1 UNK         0.0600 
    235 H235       -3.7407  -19.3592  -54.1122 H         1 UNK         0.3000 
    236 H236       -4.8975  -21.5745  -55.6128 H         1 UNK         0.0600 
    237 H237       -6.2758  -20.1916  -54.0874 H         1 UNK         0.0600 
    238 H238       -6.2414  -21.8525  -53.5148 H         1 UNK         0.0600 
    239 H239       -5.2592  -20.6323  -52.7174 H         1 UNK         0.0600 
    240 H240       -2.1097  -21.1939  -53.7570 H         1 UNK         0.3000 
    241 H241       -1.6663  -23.7158  -52.5758 H         1 UNK         0.0600 
    242 H242       -1.6867  -22.9788  -56.0289 H         1 UNK         0.3800 
    243 H243       -0.8996  -24.4607  -56.5081 H         1 UNK         0.3800 
    244 H244       -0.3249  -21.8369  -51.9012 H         1 UNK         0.0800 
    245 H245        0.7621  -22.9850  -52.6212 H         1 UNK         0.0800 
    246 H246        2.6335  -21.2055  -52.8913 H         1 UNK         0.0800 
    247 H247        2.5369  -19.7375  -53.8304 H         1 UNK         0.0800 
@<TRIPOS>BOND
     1    1    2 1    
     2    1  127 1    
     3    1  128 1    
     4    1  129 1    
     5    2    3 2    
     6    2    4 am   BACKBONE|DICT|INTERRES
     7    4    5 1    
     8    4  130 1    
     9    5    6 1    
    10    5   65 1    
    11    5  131 1    
    12    6    7 1    
    13    6  132 1    
    14    6  133 1    
    15    7    8 1    
    16    8    9 1    
    17    8  134 1    
    18    8  135 1    
    19    9   10 ar   
    20    9   14 ar   
    21   10   11 ar   
    22   10  136 1    
    23   11   12 ar   
    24   11  126 1    
    25   12   13 ar   
    26   12  137 1    
    27   13   14 ar   
    28   13   15 1    
    29   14  138 1    
    30   15   16 1    
    31   15  139 1    
    32   15  140 1    
    33   16   17 1    
    34   17   18 1    
    35   17  141 1    
    36   17  142 1    
    37   18   19 1    
    38   18   67 1    
    39   18  143 1    
    40   19   20 am   BACKBONE|DICT|INTERRES
    41   19  144 1    
    42   20   21 2    
    43   20   22 1    
    44   22   23 1    
    45   22   24 1    
    46   22  145 1    
    47   23  146 1    
    48   23  147 1    
    49   23  148 1    
    50   24   25 am   BACKBONE|DICT|INTERRES
    51   24  149 1    
    52   25   26 2    
    53   25   27 1    
    54   27   28 1    
    55   27   29 1    
    56   27  150 1    
    57   28  151 1    
    58   28  152 1    
    59   28  153 1    
    60   29   30 am   BACKBONE|DICT|INTERRES
    61   29  154 1    
    62   30   31 2    
    63   30   32 1    
    64   32   33 1    
    65   32   34 1    
    66   32  155 1    
    67   33  156 1    
    68   33  157 1    
    69   33  158 1    
    70   34   35 am   BACKBONE|DICT|INTERRES
    71   34  159 1    
    72   35   36 2    
    73   35   37 1    
    74   37   38 1    
    75   37   39 1    
    76   37  160 1    
    77   38  161 1    
    78   38  162 1    
    79   38  163 1    
    80   39   40 am   BACKBONE|DICT|INTERRES
    81   39  164 1    
    82   40   41 2    
    83   40   42 1    
    84   42   43 1    
    85   42   44 1    
    86   42  165 1    
    87   43  166 1    
    88   43  167 1    
    89   43  168 1    
    90   44   45 am   BACKBONE|DICT|INTERRES
    91   44  169 1    
    92   45   46 2    
    93   45   47 1    
    94   47   48 1    
    95   47   49 1    
    96   47  170 1    
    97   48  171 1    
    98   48  172 1    
    99   48  173 1    
   100   49   50 am   BACKBONE|DICT|INTERRES
   101   49  174 1    
   102   50   51 2    
   103   50   52 1    
   104   52   53 1    
   105   52   54 1    
   106   52  175 1    
   107   53  176 1    
   108   53  177 1    
   109   53  178 1    
   110   54   55 am   BACKBONE|DICT|INTERRES
   111   54  179 1    
   112   55   56 2    
   113   55   57 1    
   114   57   58 1    
   115   57   59 1    
   116   57  180 1    
   117   58  181 1    
   118   58  182 1    
   119   58  183 1    
   120   59   60 am   BACKBONE|DICT|INTERRES
   121   59  184 1    
   122   60   61 2    
   123   60   62 1    
   124   62   63 1    
   125   62   64 1    
   126   62  185 1    
   127   63  186 1    
   128   63  187 1    
   129   63  188 1    
   130   64   65 am   BACKBONE|DICT|INTERRES
   131   64  189 1    
   132   65   66 2    
   133   67   68 2    
   134   67   69 am   BACKBONE|DICT|INTERRES
   135   69   70 1    
   136   69  190 1    
   137   70   71 1    
   138   70   72 1    
   139   70  191 1    
   140   71  192 1    
   141   71  193 1    
   142   71  194 1    
   143   72   73 2    
   144   72   74 am   BACKBONE|DICT|INTERRES
   145   74   75 1    
   146   74  195 1    
   147   75   76 1    
   148   75   77 1    
   149   75  196 1    
   150   76  197 1    
   151   76  198 1    
   152   76  199 1    
   153   77   78 2    
   154   77   79 am   BACKBONE|DICT|INTERRES
   155   79   80 1    
   156   79  200 1    
   157   80   81 1    
   158   80   82 1    
   159   80  201 1    
   160   81  202 1    
   161   81  203 1    
   162   81  204 1    
   163   82   83 2    
   164   82   84 am   BACKBONE|DICT|INTERRES
   165   84   85 1    
   166   84  205 1    
   167   85   86 1    
   168   85   87 1    
   169   85  206 1    
   170   86  207 1    
   171   86  208 1    
   172   86  209 1    
   173   87   88 2    
   174   87   89 am   BACKBONE|DICT|INTERRES
   175   89   90 1    
   176   89  210 1    
   177   90   91 1    
   178   90   92 1    
   179   90  211 1    
   180   91  212 1    
   181   91  213 1    
   182   91  214 1    
   183   92   93 2    
   184   92   94 am   BACKBONE|DICT|INTERRES
   185   94   95 1    
   186   94  215 1    
   187   95   96 1    
   188   95   97 1    
   189   95  216 1    
   190   96  217 1    
   191   96  218 1    
   192   96  219 1    
   193   97   98 2    
   194   97   99 am   BACKBONE|DICT|INTERRES
   195   99  100 1    
   196   99  220 1    
   197  100  101 1    
   198  100  102 1    
   199  100  221 1    
   200  101  222 1    
   201  101  223 1    
   202  101  224 1    
   203  102  103 2    
   204  102  104 am   BACKBONE|DICT|INTERRES
   205  104  105 1    
   206  104  225 1    
   207  105  106 1    
   208  105  107 1    
   209  105  226 1    
   210  106  227 1    
   211  106  228 1    
   212  106  229 1    
   213  107  108 2    
   214  107  109 am   BACKBONE|DICT|INTERRES
   215  109  110 1    
   216  109  230 1    
   217  110  111 1    
   218  110  112 1    
   219  110  231 1    
   220  111  232 1    
   221  111  233 1    
   222  111  234 1    
   223  112  113 2    
   224  112  114 am   BACKBONE|DICT|INTERRES
   225  114  115 1    
   226  114  235 1    
   227  115  116 1    
   228  115  117 1    
   229  115  236 1    
   230  116  237 1    
   231  116  238 1    
   232  116  239 1    
   233  117  118 2    
   234  117  119 am   BACKBONE|DICT|INTERRES
   235  119  120 1    
   236  119  240 1    
   237  120  121 1    
   238  120  124 1    
   239  120  241 1    
   240  121  122 am   BACKBONE|DICT|INTERRES
   241  121  123 2    
   242  122  242 1    
   243  122  243 1    
   244  124  125 1    
   245  124  244 1    
   246  124  245 1    
   247  125  126 1    
   248  126  246 1    
   249  126  247 1    
@<TRIPOS>SUBSTRUCTURE
     1 UNK         1 GROUP             0       ****    0 ROOT    
