@<TRIPOS>MOLECULE
3R540
247   249    1
SMALL
USER_CHARGES


@<TRIPOS>ATOM
      1 CA          4.5620  -10.5664  -54.0357 C.3       0 UNK        -0.1800 
      2 C           4.4359  -11.4259  -52.7855 C.2       0 UNK         0.5000 
      3 O           5.1425  -11.1889  -51.8053 O.2       0 UNK        -0.5000 
      4 N           3.5464  -12.4258  -52.8184 N.am      1 UNK        -0.5000 
      5 CA          3.2379  -13.3115  -51.6938 C.3       1 UNK         0.1400 
      6 C6          2.4619  -14.5638  -52.1717 C.3       23 UNK        -0.0398 
      7 S7          2.2581  -15.8401  -50.8817 S.3       23 UNK        -0.2404 
      8 C8          1.1156  -16.9653  -51.7382 C.3       23 UNK        -0.0205 
      9 C9          0.5605  -18.0194  -50.7953 C.ar      23 UNK        -0.0193 
     10 C10        -0.5567  -17.7276  -50.0097 C.ar      23 UNK        -0.1150 
     11 C11        -1.0926  -18.6875  -49.1492 C.ar      23 UNK        -0.0193 
     12 C12        -0.5165  -19.9586  -49.0967 C.ar      23 UNK        -0.1150 
     13 C13         0.6085  -20.2629  -49.8707 C.ar      23 UNK        -0.0193 
     14 C14         1.1453  -19.2869  -50.7162 C.ar      23 UNK        -0.1150 
     15 C15         1.2165  -21.6574  -49.8255 C.3       23 UNK        -0.0205 
     16 S16         2.6188  -21.8093  -48.6645 S.3       23 UNK        -0.2404 
     17 C17         1.8630  -21.5055  -47.0289 C.3       23 UNK        -0.0398 
     18 CA          1.3564  -22.7718  -46.2938 C.3       11 UNK         0.1400 
     19 N           1.1428  -22.5072  -44.8644 N.am      11 UNK        -0.5000 
     20 C           0.8071  -23.4344  -43.9540 C.2       10 UNK         0.5000 
     21 O           0.7316  -24.6356  -44.2147 O.2       10 UNK        -0.5000 
     22 CA          0.4244  -22.9317  -42.5477 C.3       10 UNK         0.1400 
     23 CB          0.5255  -24.0240  -41.4622 C.3       10 UNK        -0.1800 
     24 N           1.1286  -21.7114  -42.1491 N.am      10 UNK        -0.5000 
     25 C           2.4368  -21.5639  -41.8918 C.2       9 UNK         0.5000 
     26 O           3.2545  -22.4819  -41.9672 O.2       9 UNK        -0.5000 
     27 CA          2.9288  -20.1570  -41.4853 C.3       9 UNK         0.1400 
     28 CB          3.9640  -19.6335  -42.4944 C.3       9 UNK        -0.1800 
     29 N           1.8547  -19.1686  -41.3581 N.am      9 UNK        -0.5000 
     30 C           0.9898  -19.0786  -40.3390 C.2       8 UNK         0.5000 
     31 O           1.0425  -19.7879  -39.3341 O.2       8 UNK        -0.5000 
     32 CA         -0.1569  -18.0582  -40.4929 C.3       8 UNK         0.1400 
     33 CB          0.2677  -16.6773  -39.9719 C.3       8 UNK        -0.1800 
     34 N          -0.6424  -17.9365  -41.8723 N.am      8 UNK        -0.5000 
     35 C          -1.2349  -18.9255  -42.5593 C.2       7 UNK         0.5000 
     36 O          -1.4580  -20.0420  -42.0918 O.2       7 UNK        -0.5000 
     37 CA         -1.5821  -18.6472  -44.0332 C.3       7 UNK         0.1400 
     38 CB         -2.8706  -17.8202  -44.1489 C.3       7 UNK        -0.1800 
     39 N          -0.4941  -17.9779  -44.7458 N.am      7 UNK        -0.5000 
     40 C           0.7170  -18.5130  -44.9552 C.2       6 UNK         0.5000 
     41 O           1.0153  -19.6626  -44.6298 O.2       6 UNK        -0.5000 
     42 CA          1.7884  -17.5999  -45.5809 C.3       6 UNK         0.1400 
     43 CB          1.6300  -17.5184  -47.1046 C.3       6 UNK        -0.1800 
     44 N           1.7683  -16.2505  -45.0175 N.am      6 UNK        -0.5000 
     45 C           2.0257  -15.9554  -43.7361 C.2       5 UNK         0.5000 
     46 O           2.3559  -16.7901  -42.8966 O.2       5 UNK        -0.5000 
     47 CA          1.8336  -14.4918  -43.3081 C.3       5 UNK         0.1400 
     48 CB          3.0757  -13.6516  -43.6402 C.3       5 UNK        -0.1800 
     49 N           0.6504  -13.8995  -43.9300 N.am      5 UNK        -0.5000 
     50 C          -0.6100  -14.2120  -43.5979 C.2       4 UNK         0.5000 
     51 O          -0.9045  -15.0067  -42.7044 O.2       4 UNK        -0.5000 
     52 CA         -1.7251  -13.5548  -44.4334 C.3       4 UNK         0.1400 
     53 CB         -2.0207  -12.1359  -43.9252 C.3       4 UNK        -0.1800 
     54 N          -1.4038  -13.5037  -45.8615 N.am      4 UNK        -0.5000 
     55 C          -1.2829  -14.5884  -46.6389 C.2       3 UNK         0.5000 
     56 O          -1.4618  -15.7358  -46.2357 O.2       3 UNK        -0.5000 
     57 CA         -0.8350  -14.3660  -48.0950 C.3       3 UNK         0.1400 
     58 CB         -2.0454  -14.1344  -49.0107 C.3       3 UNK        -0.1800 
     59 N           0.1326  -13.2812  -48.2791 N.am      3 UNK        -0.5000 
     60 C           1.3282  -13.2109  -47.6797 C.2       2 UNK         0.5000 
     61 O           1.7098  -14.0067  -46.8208 O.2       2 UNK        -0.5000 
     62 CA          2.2743  -12.1046  -48.1733 C.3       2 UNK         0.1400 
     63 CB          3.3217  -11.7153  -47.1154 C.3       2 UNK        -0.1800 
     64 N           2.9611  -12.5887  -49.3666 N.am      2 UNK        -0.5000 
     65 C           2.4611  -12.5393  -50.6064 C.2       1 UNK         0.5000 
     66 O           1.4199  -11.9472  -50.9030 O.2       1 UNK        -0.5000 
     67 C           0.0688  -23.3175  -46.9465 C.2       11 UNK         0.5000 
     68 O           0.1278  -24.2594  -47.7347 O.2       11 UNK        -0.5000 
     69 N          -1.0804  -22.7459  -46.5557 N.am      12 UNK        -0.5000 
     70 CA         -2.4197  -23.0990  -47.0320 C.3       12 UNK         0.1400 
     71 CB         -3.4240  -22.0980  -46.4395 C.3       12 UNK        -0.1800 
     72 C          -2.8473  -24.5483  -46.7180 C.2       12 UNK         0.5000 
     73 O          -3.7278  -25.0746  -47.3958 O.2       12 UNK        -0.5000 
     74 N          -2.2142  -25.1760  -45.7172 N.am      13 UNK        -0.5000 
     75 CA         -2.4203  -26.5801  -45.3583 C.3       13 UNK         0.1400 
     76 CB         -2.0633  -26.7685  -43.8749 C.3       13 UNK        -0.1800 
     77 C          -1.6077  -27.5521  -46.2401 C.2       13 UNK         0.5000 
     78 O          -1.8584  -28.7568  -46.1864 O.2       13 UNK        -0.5000 
     79 N          -0.6517  -27.0303  -47.0200 N.am      14 UNK        -0.5000 
     80 CA          0.2659  -27.7852  -47.8738 C.3       14 UNK         0.1400 
     81 CB          1.6872  -27.6441  -47.2991 C.3       14 UNK        -0.1800 
     82 C           0.1882  -27.3133  -49.3398 C.2       14 UNK         0.5000 
     83 O           1.1358  -27.5219  -50.0998 O.2       14 UNK        -0.5000 
     84 N          -0.9290  -26.6833  -49.7183 N.am      15 UNK        -0.5000 
     85 CA         -1.1812  -26.1131  -51.0370 C.3       15 UNK         0.1400 
     86 CB         -0.6229  -24.6778  -51.0807 C.3       15 UNK        -0.1800 
     87 C          -2.6908  -26.1296  -51.3189 C.2       15 UNK         0.5000 
     88 O          -3.4801  -26.4908  -50.4426 O.2       15 UNK        -0.5000 
     89 N          -3.0695  -25.7132  -52.5348 N.am      16 UNK        -0.5000 
     90 CA         -4.4646  -25.5347  -52.9511 C.3       16 UNK         0.1400 
     91 CB         -4.5148  -25.3511  -54.4759 C.3       16 UNK        -0.1800 
     92 C          -5.1587  -24.3500  -52.2485 C.2       16 UNK         0.5000 
     93 O          -6.3836  -24.3590  -52.1211 O.2       16 UNK        -0.5000 
     94 N          -4.3624  -23.3572  -51.8197 N.am      17 UNK        -0.5000 
     95 CA         -4.7070  -22.1392  -51.0732 C.3       17 UNK         0.1400 
     96 CB         -5.3671  -22.4808  -49.7249 C.3       17 UNK        -0.1800 
     97 C          -5.5468  -21.1196  -51.8660 C.2       17 UNK         0.5000 
     98 O          -5.1816  -19.9475  -51.9098 O.2       17 UNK        -0.5000 
     99 N          -6.6193  -21.5835  -52.5196 N.am      18 UNK        -0.5000 
    100 CA        -7.6128  -20.7914  -53.2541 C.3       18 UNK         0.1400 
    101 CB        -8.7397  -21.7310  -53.7112 C.3       18 UNK        -0.1800 
    102 C         -7.0648  -19.9832  -54.4500 C.2       18 UNK         0.5000 
    103 O         -7.7544  -19.0888  -54.9417 O.2       18 UNK        -0.5000 
    104 N         -5.8411  -20.2985  -54.8949 N.am      19 UNK        -0.5000 
    105 CA        -5.0789  -19.5258  -55.8768 C.3       19 UNK         0.1400 
    106 CB        -3.8992  -20.3814  -56.3643 C.3       19 UNK        -0.1800 
    107 C         -4.5749  -18.1720  -55.3283 C.2       19 UNK         0.5000 
    108 O         -4.2570  -17.2848  -56.1217 O.2       19 UNK        -0.5000 
    109 N         -4.5073  -18.0377  -53.9985 N.am      20 UNK        -0.5000 
    110 CA        -4.1362  -16.8308  -53.2682 C.3       20 UNK         0.1400 
    111 CB        -2.8511  -17.1253  -52.4751 C.3       20 UNK        -0.1800 
    112 C         -5.2913  -16.4143  -52.3378 C.2       20 UNK         0.5000 
    113 O         -6.3620  -17.0273  -52.3507 O.2       20 UNK        -0.5000 
    114 N         -5.0636  -15.3660  -51.5372 N.am      21 UNK        -0.5000 
    115 CA        -6.0082  -14.8430  -50.5479 C.3       21 UNK         0.1400 
    116 CB        -5.7021  -13.3527  -50.3118 C.3       21 UNK        -0.1800 
    117 C         -5.9969  -15.6729  -49.2446 C.2       21 UNK         0.5000 
    118 O         -5.7188  -15.1379  -48.1699 O.2       21 UNK        -0.5000 
    119 N         -6.2943  -16.9689  -49.3636 N.am      22 UNK        -0.5000 
    120 CA        -6.3899  -17.9378  -48.2659 C.3       22 UNK         0.1400 
    121 C         -7.2853  -19.1507  -48.6466 C.2       22 UNK         0.5000 
    122 N         -7.5260  -20.0722  -47.7227 N.am      22 UNK        -0.7600 
    123 O         -7.7944  -19.2584  -49.7600 O.2       22 UNK        -0.5000 
    124 C124       -5.0057  -18.3347  -47.6765 C.3       23 UNK        -0.0398 
    125 S125       -3.8286  -19.0145  -48.8967 S.3       23 UNK        -0.2404 
    126 C126       -2.2708  -18.3402  -48.2559 C.3       23 UNK        -0.0205 
    127 H127        3.8851  -10.8955  -54.8245 H         1 UNK         0.0600 
    128 H128        5.5806  -10.6117  -54.4212 H         1 UNK         0.0600 
    129 H129        4.3309   -9.5273  -53.8012 H         1 UNK         0.0600 
    130 H130        2.9758  -12.5482  -53.6428 H         1 UNK         0.3000 
    131 H131        4.1882  -13.6497  -51.2741 H         1 UNK         0.0600 
    132 H132        1.4791  -14.2804  -52.5535 H         1 UNK         0.0800 
    133 H133        2.9901  -15.0263  -53.0068 H         1 UNK         0.0800 
    134 H134        1.6321  -17.4378  -52.5752 H         1 UNK         0.0800 
    135 H135        0.2909  -16.3944  -52.1674 H         1 UNK         0.0800 
    136 H136       -1.0073  -16.7484  -50.0687 H         1 UNK         0.1150 
    137 H137       -0.9455  -20.7071  -48.4474 H         1 UNK         0.1150 
    138 H138        2.0107  -19.5182  -51.3211 H         1 UNK         0.1150 
    139 H139        0.4489  -22.3885  -49.5812 H         1 UNK         0.0800 
    140 H140        1.5673  -21.9280  -50.8224 H         1 UNK         0.0800 
    141 H141        1.0781  -20.7559  -47.1056 H         1 UNK         0.0800 
    142 H142        2.6434  -21.0373  -46.4272 H         1 UNK         0.0800 
    143 H143        2.1227  -23.5464  -46.3684 H         1 UNK         0.0600 
    144 H144        1.1697  -21.5293  -44.5821 H         1 UNK         0.3000 
    145 H145       -0.6272  -22.6510  -42.6178 H         1 UNK         0.0600 
    146 H146        0.2434  -23.6348  -40.4839 H         1 UNK         0.0600 
    147 H147       -0.1432  -24.8569  -41.6831 H         1 UNK         0.0600 
    148 H148        1.5343  -24.4300  -41.3853 H         1 UNK         0.0600 
    149 H149        0.5426  -20.8885  -42.0767 H         1 UNK         0.3000 
    150 H150        3.4211  -20.2561  -40.5159 H         1 UNK         0.0600 
    151 H151        4.8140  -20.3120  -42.5761 H         1 UNK         0.0600 
    152 H152        4.3546  -18.6620  -42.1909 H         1 UNK         0.0600 
    153 H153        3.5338  -19.5254  -43.4901 H         1 UNK         0.0600 
    154 H154        1.7871  -18.4852  -42.1067 H         1 UNK         0.3000 
    155 H155       -0.9903  -18.4076  -39.8801 H         1 UNK         0.0600 
    156 H156        0.5934  -16.7355  -38.9326 H         1 UNK         0.0600 
    157 H157       -0.5593  -15.9682  -40.0144 H         1 UNK         0.0600 
    158 H158        1.0930  -16.2637  -40.5511 H         1 UNK         0.0600 
    159 H159       -0.5229  -17.0331  -42.3179 H         1 UNK         0.3000 
    160 H160       -1.7554  -19.6089  -44.5207 H         1 UNK         0.0600 
    161 H161       -2.7539  -16.8279  -43.7126 H         1 UNK         0.0600 
    162 H162       -3.6986  -18.3113  -43.6363 H         1 UNK         0.0600 
    163 H163       -3.1635  -17.6921  -45.1902 H         1 UNK         0.0600 
    164 H164       -0.6902  -17.0459  -45.1021 H         1 UNK         0.3000 
    165 H165        2.7659  -18.0352  -45.3651 H         1 UNK         0.0600 
    166 H166        2.3801  -16.8641  -47.5492 H         1 UNK         0.0600 
    167 H167        1.7430  -18.4987  -47.5668 H         1 UNK         0.0600 
    168 H168        0.6495  -17.1360  -47.3827 H         1 UNK         0.0600 
    169 H169        1.5577  -15.4876  -45.6560 H         1 UNK         0.3000 
    170 H170        1.6958  -14.4737  -42.2250 H         1 UNK         0.0600 
    171 H171        3.9555  -14.0430  -43.1280 H         1 UNK         0.0600 
    172 H172        3.2938  -13.6533  -44.7078 H         1 UNK         0.0600 
    173 H173        2.9491  -12.6161  -43.3243 H         1 UNK         0.0600 
    174 H174        0.8103  -13.3029  -44.7288 H         1 UNK         0.3000 
    175 H175       -2.6288  -14.1559  -44.3110 H         1 UNK         0.0600 
    176 H176       -2.2787  -12.1476  -42.8654 H         1 UNK         0.0600 
    177 H177       -1.1614  -11.4753  -44.0468 H         1 UNK         0.0600 
    178 H178       -2.8626  -11.6939  -44.4584 H         1 UNK         0.0600 
    179 H179       -1.2338  -12.5949  -46.2662 H         1 UNK         0.3000 
    180 H180       -0.3387  -15.2816  -48.4166 H         1 UNK         0.0600 
    181 H181       -2.7823  -14.9312  -48.9000 H         1 UNK         0.0600 
    182 H182       -2.5438  -13.1926  -48.7793 H         1 UNK         0.0600 
    183 H183       -1.7483  -14.1105  -50.0593 H         1 UNK         0.0600 
    184 H184       -0.0750  -12.6114  -49.0075 H         1 UNK         0.3000 
    185 H185        1.6845  -11.2162  -48.4088 H         1 UNK         0.0600 
    186 H186        2.8414  -11.3882  -46.1923 H         1 UNK         0.0600 
    187 H187        3.9796  -12.5490  -46.8671 H         1 UNK         0.0600 
    188 H188        3.9455  -10.8931  -47.4663 H         1 UNK         0.0600 
    189 H189        3.8061  -13.1173  -49.2038 H         1 UNK         0.3000 
    190 H190       -1.0312  -22.0031  -45.8745 H         1 UNK         0.3000 
    191 H191       -2.4232  -22.9886  -48.1185 H         1 UNK         0.0600 
    192 H192       -4.4360  -22.2996  -46.7924 H         1 UNK         0.0600 
    193 H193       -3.4424  -22.1443  -45.3500 H         1 UNK         0.0600 
    194 H194       -3.1797  -21.0760  -46.7274 H         1 UNK         0.0600 
    195 H195       -1.4749  -24.6927  -45.2265 H         1 UNK         0.3000 
    196 H196       -3.4763  -26.8287  -45.4836 H         1 UNK         0.0600 
    197 H197       -2.2844  -27.7850  -43.5470 H         1 UNK         0.0600 
    198 H198       -2.6357  -26.0919  -43.2401 H         1 UNK         0.0600 
    199 H199       -1.0041  -26.5900  -43.6885 H         1 UNK         0.0600 
    200 H200       -0.5251  -26.0230  -47.0459 H         1 UNK         0.3000 
    201 H201        0.0028  -28.8445  -47.8778 H         1 UNK         0.0600 
    202 H202        1.7292  -27.9869  -46.2651 H         1 UNK         0.0600 
    203 H203        2.0243  -26.6068  -47.3210 H         1 UNK         0.0600 
    204 H204        2.4052  -28.2383  -47.8655 H         1 UNK         0.0600 
    205 H205       -1.7027  -26.6064  -49.0701 H         1 UNK         0.3000 
    206 H206       -0.6926  -26.7221  -51.8003 H         1 UNK         0.0600 
    207 H207        0.4382  -24.6593  -50.8304 H         1 UNK         0.0600 
    208 H208       -0.7256  -24.2362  -52.0721 H         1 UNK         0.0600 
    209 H209       -1.1420  -24.0300  -50.3730 H         1 UNK         0.0600 
    210 H210       -2.3626  -25.4596  -53.2102 H         1 UNK         0.3000 
    211 H211       -5.0187  -26.4406  -52.6959 H         1 UNK         0.0600 
    212 H212       -5.5433  -25.2410  -54.8224 H         1 UNK         0.0600 
    213 H213       -4.0910  -26.2132  -54.9913 H         1 UNK         0.0600 
    214 H214       -3.9650  -24.4645  -54.7946 H         1 UNK         0.0600 
    215 H215       -3.3791  -23.4575  -52.0235 H         1 UNK         0.3000 
    216 H216       -3.7548  -21.6542  -50.8504 H         1 UNK         0.0600 
    217 H217       -5.4592  -21.5907  -49.1033 H         1 UNK         0.0600 
    218 H218       -4.7745  -23.2067  -49.1696 H         1 UNK         0.0600 
    219 H219       -6.3680  -22.8938  -49.8509 H         1 UNK         0.0600 
    220 H220       -6.8020  -22.5808  -52.4397 H         1 UNK         0.3000 
    221 H221       -8.0315  -20.0682  -52.5513 H         1 UNK         0.0600 
    222 H222       -8.3688  -22.4989  -54.3913 H         1 UNK         0.0600 
    223 H223       -9.2047  -22.2314  -52.8616 H         1 UNK         0.0600 
    224 H224       -9.5248  -21.1808  -54.2316 H         1 UNK         0.0600 
    225 H225       -5.3529  -21.0493  -54.4304 H         1 UNK         0.3000 
    226 H226       -5.7276  -19.3161  -56.7298 H         1 UNK         0.0600 
    227 H227       -4.2450  -21.3141  -56.8105 H         1 UNK         0.0600 
    228 H228       -3.3215  -19.8536  -57.1243 H         1 UNK         0.0600 
    229 H229       -3.2188  -20.6298  -55.5487 H         1 UNK         0.0600 
    230 H230       -4.8535  -18.7896  -53.4065 H         1 UNK         0.3000 
    231 H231       -3.9503  -16.0038  -53.9559 H         1 UNK         0.0600 
    232 H232       -2.0551  -17.4788  -53.1308 H         1 UNK         0.0600 
    233 H233       -3.0183  -17.8906  -51.7156 H         1 UNK         0.0600 
    234 H234       -2.4781  -16.2335  -51.9718 H         1 UNK         0.0600 
    235 H235       -4.1598  -14.9186  -51.5656 H         1 UNK         0.3000 
    236 H236       -7.0197  -14.9047  -50.9553 H         1 UNK         0.0600 
    237 H237       -5.7791  -12.7835  -51.2382 H         1 UNK         0.0600 
    238 H238       -6.4086  -12.9154  -49.6051 H         1 UNK         0.0600 
    239 H239       -4.7005  -13.2037  -49.9097 H         1 UNK         0.0600 
    240 H240       -6.5102  -17.3459  -50.2824 H         1 UNK         0.3000 
    241 H241       -6.9468  -17.4379  -47.4712 H         1 UNK         0.0600 
    242 H242       -7.1575  -20.0032  -46.7879 H         1 UNK         0.3800 
    243 H243       -8.1198  -20.8505  -47.9615 H         1 UNK         0.3800 
    244 H244       -4.5603  -17.4522  -47.2162 H         1 UNK         0.0800 
    245 H245       -5.1142  -19.0548  -46.8649 H         1 UNK         0.0800 
    246 H246       -2.3655  -17.2585  -48.1669 H         1 UNK         0.0800 
    247 H247       -2.0917  -18.7201  -47.2494 H         1 UNK         0.0800 
@<TRIPOS>BOND
     1    1    2 1    
     2    1  127 1    
     3    1  128 1    
     4    1  129 1    
     5    2    3 2    
     6    2    4 am   BACKBONE|DICT|INTERRES
     7    4    5 1    
     8    4  130 1    
     9    5    6 1    
    10    5   65 1    
    11    5  131 1    
    12    6    7 1    
    13    6  132 1    
    14    6  133 1    
    15    7    8 1    
    16    8    9 1    
    17    8  134 1    
    18    8  135 1    
    19    9   10 ar   
    20    9   14 ar   
    21   10   11 ar   
    22   10  136 1    
    23   11   12 ar   
    24   11  126 1    
    25   12   13 ar   
    26   12  137 1    
    27   13   14 ar   
    28   13   15 1    
    29   14  138 1    
    30   15   16 1    
    31   15  139 1    
    32   15  140 1    
    33   16   17 1    
    34   17   18 1    
    35   17  141 1    
    36   17  142 1    
    37   18   19 1    
    38   18   67 1    
    39   18  143 1    
    40   19   20 am   BACKBONE|DICT|INTERRES
    41   19  144 1    
    42   20   21 2    
    43   20   22 1    
    44   22   23 1    
    45   22   24 1    
    46   22  145 1    
    47   23  146 1    
    48   23  147 1    
    49   23  148 1    
    50   24   25 am   BACKBONE|DICT|INTERRES
    51   24  149 1    
    52   25   26 2    
    53   25   27 1    
    54   27   28 1    
    55   27   29 1    
    56   27  150 1    
    57   28  151 1    
    58   28  152 1    
    59   28  153 1    
    60   29   30 am   BACKBONE|DICT|INTERRES
    61   29  154 1    
    62   30   31 2    
    63   30   32 1    
    64   32   33 1    
    65   32   34 1    
    66   32  155 1    
    67   33  156 1    
    68   33  157 1    
    69   33  158 1    
    70   34   35 am   BACKBONE|DICT|INTERRES
    71   34  159 1    
    72   35   36 2    
    73   35   37 1    
    74   37   38 1    
    75   37   39 1    
    76   37  160 1    
    77   38  161 1    
    78   38  162 1    
    79   38  163 1    
    80   39   40 am   BACKBONE|DICT|INTERRES
    81   39  164 1    
    82   40   41 2    
    83   40   42 1    
    84   42   43 1    
    85   42   44 1    
    86   42  165 1    
    87   43  166 1    
    88   43  167 1    
    89   43  168 1    
    90   44   45 am   BACKBONE|DICT|INTERRES
    91   44  169 1    
    92   45   46 2    
    93   45   47 1    
    94   47   48 1    
    95   47   49 1    
    96   47  170 1    
    97   48  171 1    
    98   48  172 1    
    99   48  173 1    
   100   49   50 am   BACKBONE|DICT|INTERRES
   101   49  174 1    
   102   50   51 2    
   103   50   52 1    
   104   52   53 1    
   105   52   54 1    
   106   52  175 1    
   107   53  176 1    
   108   53  177 1    
   109   53  178 1    
   110   54   55 am   BACKBONE|DICT|INTERRES
   111   54  179 1    
   112   55   56 2    
   113   55   57 1    
   114   57   58 1    
   115   57   59 1    
   116   57  180 1    
   117   58  181 1    
   118   58  182 1    
   119   58  183 1    
   120   59   60 am   BACKBONE|DICT|INTERRES
   121   59  184 1    
   122   60   61 2    
   123   60   62 1    
   124   62   63 1    
   125   62   64 1    
   126   62  185 1    
   127   63  186 1    
   128   63  187 1    
   129   63  188 1    
   130   64   65 am   BACKBONE|DICT|INTERRES
   131   64  189 1    
   132   65   66 2    
   133   67   68 2    
   134   67   69 am   BACKBONE|DICT|INTERRES
   135   69   70 1    
   136   69  190 1    
   137   70   71 1    
   138   70   72 1    
   139   70  191 1    
   140   71  192 1    
   141   71  193 1    
   142   71  194 1    
   143   72   73 2    
   144   72   74 am   BACKBONE|DICT|INTERRES
   145   74   75 1    
   146   74  195 1    
   147   75   76 1    
   148   75   77 1    
   149   75  196 1    
   150   76  197 1    
   151   76  198 1    
   152   76  199 1    
   153   77   78 2    
   154   77   79 am   BACKBONE|DICT|INTERRES
   155   79   80 1    
   156   79  200 1    
   157   80   81 1    
   158   80   82 1    
   159   80  201 1    
   160   81  202 1    
   161   81  203 1    
   162   81  204 1    
   163   82   83 2    
   164   82   84 am   BACKBONE|DICT|INTERRES
   165   84   85 1    
   166   84  205 1    
   167   85   86 1    
   168   85   87 1    
   169   85  206 1    
   170   86  207 1    
   171   86  208 1    
   172   86  209 1    
   173   87   88 2    
   174   87   89 am   BACKBONE|DICT|INTERRES
   175   89   90 1    
   176   89  210 1    
   177   90   91 1    
   178   90   92 1    
   179   90  211 1    
   180   91  212 1    
   181   91  213 1    
   182   91  214 1    
   183   92   93 2    
   184   92   94 am   BACKBONE|DICT|INTERRES
   185   94   95 1    
   186   94  215 1    
   187   95   96 1    
   188   95   97 1    
   189   95  216 1    
   190   96  217 1    
   191   96  218 1    
   192   96  219 1    
   193   97   98 2    
   194   97   99 am   BACKBONE|DICT|INTERRES
   195   99  100 1    
   196   99  220 1    
   197  100  101 1    
   198  100  102 1    
   199  100  221 1    
   200  101  222 1    
   201  101  223 1    
   202  101  224 1    
   203  102  103 2    
   204  102  104 am   BACKBONE|DICT|INTERRES
   205  104  105 1    
   206  104  225 1    
   207  105  106 1    
   208  105  107 1    
   209  105  226 1    
   210  106  227 1    
   211  106  228 1    
   212  106  229 1    
   213  107  108 2    
   214  107  109 am   BACKBONE|DICT|INTERRES
   215  109  110 1    
   216  109  230 1    
   217  110  111 1    
   218  110  112 1    
   219  110  231 1    
   220  111  232 1    
   221  111  233 1    
   222  111  234 1    
   223  112  113 2    
   224  112  114 am   BACKBONE|DICT|INTERRES
   225  114  115 1    
   226  114  235 1    
   227  115  116 1    
   228  115  117 1    
   229  115  236 1    
   230  116  237 1    
   231  116  238 1    
   232  116  239 1    
   233  117  118 2    
   234  117  119 am   BACKBONE|DICT|INTERRES
   235  119  120 1    
   236  119  240 1    
   237  120  121 1    
   238  120  124 1    
   239  120  241 1    
   240  121  122 am   BACKBONE|DICT|INTERRES
   241  121  123 2    
   242  122  242 1    
   243  122  243 1    
   244  124  125 1    
   245  124  244 1    
   246  124  245 1    
   247  125  126 1    
   248  126  246 1    
   249  126  247 1    
@<TRIPOS>SUBSTRUCTURE
     1 UNK         1 GROUP             0       ****    0 ROOT    
