@<TRIPOS>MOLECULE
3R540
247   249    1
SMALL
USER_CHARGES


@<TRIPOS>ATOM
      1 CA         -5.5503  -15.5202  -45.6366 C.3       0 UNK        -0.1800 
      2 C          -5.0327  -14.2158  -46.2269 C.2       0 UNK         0.5000 
      3 O          -5.6760  -13.1765  -46.0821 O.2       0 UNK        -0.5000 
      4 N          -3.8715  -14.2678  -46.8907 N.am      1 UNK        -0.5000 
      5 CA         -3.2093  -13.1294  -47.5409 C.3       1 UNK         0.1400 
      6 C6         -2.1196  -13.5859  -48.5447 C.3       23 UNK        -0.0398 
      7 S7         -2.7168  -14.7580  -49.8080 S.3       23 UNK        -0.2404 
      8 C8         -1.3268  -14.7176  -50.9892 C.3       23 UNK        -0.0205 
      9 C9         -0.4563  -15.9671  -50.9243 C.ar      23 UNK        -0.0193 
     10 C10        -0.2369  -16.7197  -52.0805 C.ar      23 UNK        -0.1150 
     11 C11         0.5716  -17.8614  -52.0502 C.ar      23 UNK        -0.0193 
     12 C12         1.1818  -18.2313  -50.8481 C.ar      23 UNK        -0.1150 
     13 C13         0.9801  -17.4876  -49.6795 C.ar      23 UNK        -0.0193 
     14 C14         0.1623  -16.3544  -49.7314 C.ar      23 UNK        -0.1150 
     15 C15         1.6683  -17.8455  -48.3618 C.3       23 UNK        -0.0205 
     16 S16         1.9709  -19.6268  -48.0882 S.3       23 UNK        -0.2404 
     17 C17         0.2817  -20.3072  -48.1134 C.3       23 UNK        -0.0398 
     18 CA          0.1913  -21.6728  -47.3908 C.3       11 UNK         0.1400 
     19 N           0.4541  -21.5651  -45.9519 N.am      11 UNK        -0.5000 
     20 C           0.6985  -22.6040  -45.1407 C.2       10 UNK         0.5000 
     21 O           0.7996  -23.7662  -45.5316 O.2       10 UNK        -0.5000 
     22 CA          0.7884  -22.2994  -43.6328 C.3       10 UNK         0.1400 
     23 CB          2.2182  -21.9181  -43.2267 C.3       10 UNK        -0.1800 
     24 N          -0.1416  -21.2419  -43.2306 N.am      10 UNK        -0.5000 
     25 C          -1.4725  -21.4118  -43.1860 C.2       9 UNK         0.5000 
     26 O          -2.0262  -22.4835  -43.4233 O.2       9 UNK        -0.5000 
     27 CA         -2.3407  -20.1789  -42.8819 C.3       9 UNK         0.1400 
     28 CB         -2.6241  -20.0835  -41.3767 C.3       9 UNK        -0.1800 
     29 N          -1.7446  -18.9357  -43.3760 N.am      9 UNK        -0.5000 
     30 C          -1.5814  -18.6630  -44.6807 C.2       8 UNK         0.5000 
     31 O          -1.9567  -19.4256  -45.5721 O.2       8 UNK        -0.5000 
     32 CA         -0.8249  -17.3814  -45.0760 C.3       8 UNK         0.1400 
     33 CB         -1.4686  -16.6710  -46.2812 C.3       8 UNK        -0.1800 
     34 N          -0.5700  -16.4824  -43.9477 N.am      8 UNK        -0.5000 
     35 C          -1.3961  -15.6085  -43.3552 C.2       7 UNK         0.5000 
     36 O          -2.4868  -15.2680  -43.8142 O.2       7 UNK        -0.5000 
     37 CA         -0.8923  -14.9822  -42.0347 C.3       7 UNK         0.1400 
     38 CB         -2.0315  -14.7476  -41.0209 C.3       7 UNK        -0.1800 
     39 N           0.2350  -15.7119  -41.4319 N.am      7 UNK        -0.5000 
     40 C           0.2005  -16.9459  -40.9089 C.2       6 UNK         0.5000 
     41 O          -0.8272  -17.6163  -40.8397 O.2       6 UNK        -0.5000 
     42 CA          1.5504  -17.5512  -40.4718 C.3       6 UNK         0.1400 
     43 CB          1.4174  -19.0053  -39.9702 C.3       6 UNK        -0.1800 
     44 N           2.5692  -17.4703  -41.5247 N.am      6 UNK        -0.5000 
     45 C           2.5104  -17.9790  -42.7633 C.2       5 UNK         0.5000 
     46 O           1.5292  -18.5830  -43.2046 O.2       5 UNK        -0.5000 
     47 CA          3.7450  -17.7368  -43.6629 C.3       5 UNK         0.1400 
     48 CB          3.5599  -18.3052  -45.0805 C.3       5 UNK        -0.1800 
     49 N           4.0705  -16.3161  -43.7940 N.am      5 UNK        -0.5000 
     50 C           4.6349  -15.5266  -42.8700 C.2       4 UNK         0.5000 
     51 O           5.0042  -15.9293  -41.7660 O.2       4 UNK        -0.5000 
     52 CA          4.7740  -14.0297  -43.2239 C.3       4 UNK         0.1400 
     53 CB          6.2083  -13.7170  -43.6762 C.3       4 UNK        -0.1800 
     54 N           3.8362  -13.5751  -44.2591 N.am      4 UNK        -0.5000 
     55 C           2.5029  -13.5686  -44.1289 C.2       3 UNK         0.5000 
     56 O           1.9226  -13.9313  -43.1038 O.2       3 UNK        -0.5000 
     57 CA          1.6987  -13.1656  -45.3799 C.3       3 UNK         0.1400 
     58 CB          1.7675  -14.2836  -46.4358 C.3       3 UNK        -0.1800 
     59 N           0.2904  -12.9109  -45.0795 N.am      3 UNK        -0.5000 
     60 C          -0.1948  -11.8399  -44.4353 C.2       2 UNK         0.5000 
     61 O           0.5029  -10.9011  -44.0484 O.2       2 UNK        -0.5000 
     62 CA         -1.7220  -11.8348  -44.1923 C.3       2 UNK         0.1400 
     63 CB         -2.2959  -10.4296  -43.9126 C.3       2 UNK        -0.1800 
     64 N          -2.4562  -12.5270  -45.2606 N.am      2 UNK        -0.5000 
     65 C          -2.5806  -12.1328  -46.5394 C.2       1 UNK         0.5000 
     66 O          -2.1768  -11.0489  -46.9618 O.2       1 UNK        -0.5000 
     67 C          -1.1661  -22.3574  -47.6549 C.2       11 UNK         0.5000 
     68 O          -1.2551  -23.2152  -48.5322 O.2       11 UNK        -0.5000 
     69 N          -2.1894  -22.0035  -46.8633 N.am      12 UNK        -0.5000 
     70 CA         -3.5134  -22.6237  -46.9023 C.3       12 UNK         0.1400 
     71 CB         -4.4919  -21.8089  -46.0454 C.3       12 UNK        -0.1800 
     72 C          -3.4909  -24.1018  -46.4653 C.2       12 UNK         0.5000 
     73 O          -4.1428  -24.9308  -47.1002 O.2       12 UNK        -0.5000 
     74 N          -2.7139  -24.4185  -45.4193 N.am      13 UNK        -0.5000 
     75 CA         -2.4911  -25.7824  -44.9314 C.3       13 UNK         0.1400 
     76 CB         -1.7103  -25.7386  -43.6097 C.3       13 UNK        -0.1800 
     77 C          -1.7707  -26.6810  -45.9540 C.2       13 UNK         0.5000 
     78 O          -2.0487  -27.8800  -46.0098 O.2       13 UNK        -0.5000 
     79 N          -0.8965  -26.0871  -46.7773 N.am      14 UNK        -0.5000 
     80 CA         -0.1997  -26.7267  -47.8930 C.3       14 UNK         0.1400 
     81 CB          1.0654  -25.9137  -48.2224 C.3       14 UNK        -0.1800 
     82 C          -1.1233  -26.9203  -49.1165 C.2       14 UNK         0.5000 
     83 O          -0.8330  -26.4143  -50.2003 O.2       14 UNK        -0.5000 
     84 N          -2.2243  -27.6575  -48.9139 N.am      15 UNK        -0.5000 
     85 CA         -3.2213  -28.0701  -49.9081 C.3       15 UNK         0.1400 
     86 CB         -2.6075  -29.0954  -50.8848 C.3       15 UNK        -0.1800 
     87 C          -3.9110  -26.8908  -50.6290 C.2       15 UNK         0.5000 
     88 O          -4.1305  -26.9530  -51.8401 O.2       15 UNK        -0.5000 
     89 N          -4.2491  -25.8420  -49.8636 N.am      16 UNK        -0.5000 
     90 CA         -4.9467  -24.6229  -50.2901 C.3       16 UNK         0.1400 
     91 CB         -6.3769  -24.9453  -50.7733 C.3       16 UNK        -0.1800 
     92 C          -4.1577  -23.7582  -51.2954 C.2       16 UNK         0.5000 
     93 O          -4.7641  -22.9773  -52.0294 O.2       16 UNK        -0.5000 
     94 N          -2.8232  -23.8738  -51.3011 N.am      17 UNK        -0.5000 
     95 CA         -1.9175  -23.1341  -52.1805 C.3       17 UNK         0.1400 
     96 CB         -0.6213  -23.9452  -52.3536 C.3       17 UNK        -0.1800 
     97 C          -1.6550  -21.6983  -51.6770 C.2       17 UNK         0.5000 
     98 O          -0.5020  -21.3161  -51.4791 O.2       17 UNK        -0.5000 
     99 N          -2.7319  -20.9332  -51.4812 N.am      18 UNK        -0.5000 
    100 CA        -2.7393  -19.5316  -51.0766 C.3       18 UNK         0.1400 
    101 CB        -3.1082  -19.4404  -49.5856 C.3       18 UNK        -0.1800 
    102 C         -3.7645  -18.7726  -51.9316 C.2       18 UNK         0.5000 
    103 O         -4.5541  -19.3992  -52.6411 O.2       18 UNK        -0.5000 
    104 N         -3.7540  -17.4357  -51.8317 N.am      19 UNK        -0.5000 
    105 CA        -4.7470  -16.5079  -52.3948 C.3       19 UNK         0.1400 
    106 CB        -6.0555  -16.5896  -51.5822 C.3       19 UNK        -0.1800 
    107 C         -4.9731  -16.6693  -53.9147 C.2       19 UNK         0.5000 
    108 O         -6.1115  -16.6260  -54.3835 O.2       19 UNK        -0.5000 
    109 N         -3.8679  -16.8734  -54.6453 N.am      20 UNK        -0.5000 
    110 CA        -3.7751  -17.0895  -56.0943 C.3       20 UNK         0.1400 
    111 CB        -4.3864  -15.9167  -56.8898 C.3       20 UNK        -0.1800 
    112 C         -4.2860  -18.4645  -56.5803 C.2       20 UNK         0.5000 
    113 O         -4.3142  -18.6939  -57.7898 O.2       20 UNK        -0.5000 
    114 N         -4.5998  -19.3869  -55.6573 N.am      21 UNK        -0.5000 
    115 CA        -4.8531  -20.8069  -55.9415 C.3       21 UNK         0.1400 
    116 CB        -5.9693  -21.3201  -55.0171 C.3       21 UNK        -0.1800 
    117 C         -3.5625  -21.6497  -55.8124 C.2       21 UNK         0.5000 
    118 O         -3.6282  -22.8752  -55.7208 O.2       21 UNK        -0.5000 
    119 N         -2.4138  -20.9648  -55.8131 N.am      22 UNK        -0.5000 
    120 CA        -1.0194  -21.4023  -55.6253 C.3       22 UNK         0.1400 
    121 C         -0.4674  -22.4753  -56.6188 C.2       22 UNK         0.5000 
    122 N         -1.2994  -23.2455  -57.3032 N.am      22 UNK        -0.7600 
    123 O          0.7426  -22.6220  -56.7686 O.2       22 UNK        -0.5000 
    124 C124       -0.0915  -20.1579  -55.5453 C.3       23 UNK        -0.0398 
    125 S125       -0.6711  -18.9192  -54.3297 S.3       23 UNK        -0.2404 
    126 C126        0.8194  -18.6940  -53.3046 C.3       23 UNK        -0.0205 
    127 H127       -4.9892  -16.3812  -46.0001 H         1 UNK         0.0600 
    128 H128       -6.5979  -15.6644  -45.9000 H         1 UNK         0.0600 
    129 H129       -5.4690  -15.4957  -44.5498 H         1 UNK         0.0600 
    130 H130       -3.4060  -15.1568  -46.9965 H         1 UNK         0.3000 
    131 H131       -3.9695  -12.5795  -48.0998 H         1 UNK         0.0600 
    132 H132       -1.2770  -14.0379  -48.0233 H         1 UNK         0.0800 
    133 H133       -1.7179  -12.7142  -49.0651 H         1 UNK         0.0800 
    134 H134       -0.6989  -13.8420  -50.8216 H         1 UNK         0.0800 
    135 H135       -1.7437  -14.5963  -51.9901 H         1 UNK         0.0800 
    136 H136       -0.6920  -16.4125  -53.0110 H         1 UNK         0.1150 
    137 H137        1.8211  -19.1022  -50.8279 H         1 UNK         0.1150 
    138 H138        0.0166  -15.7631  -48.8406 H         1 UNK         0.1150 
    139 H139        1.0893  -17.4625  -47.5234 H         1 UNK         0.0800 
    140 H140        2.6277  -17.3280  -48.3294 H         1 UNK         0.0800 
    141 H141       -0.0092  -20.4055  -49.1585 H         1 UNK         0.0800 
    142 H142       -0.4047  -19.5848  -47.6721 H         1 UNK         0.0800 
    143 H143        0.9571  -22.3244  -47.8179 H         1 UNK         0.0600 
    144 H144        0.3701  -20.6460  -45.5457 H         1 UNK         0.3000 
    145 H145        0.5224  -23.2106  -43.0930 H         1 UNK         0.0600 
    146 H146        2.5610  -21.0293  -43.7518 H         1 UNK         0.0600 
    147 H147        2.9159  -22.7240  -43.4576 H         1 UNK         0.0600 
    148 H148        2.2868  -21.7225  -42.1565 H         1 UNK         0.0600 
    149 H149        0.2510  -20.3239  -43.0525 H         1 UNK         0.3000 
    150 H150       -3.2973  -20.3093  -43.3910 H         1 UNK         0.0600 
    151 H151       -1.7033  -20.0593  -40.7933 H         1 UNK         0.0600 
    152 H152       -3.1989  -20.9458  -41.0367 H         1 UNK         0.0600 
    153 H153       -3.2020  -19.1910  -41.1361 H         1 UNK         0.0600 
    154 H154       -1.3901  -18.2955  -42.6735 H         1 UNK         0.3000 
    155 H155        0.1615  -17.7186  -45.3932 H         1 UNK         0.0600 
    156 H156       -2.5274  -16.4907  -46.1082 H         1 UNK         0.0600 
    157 H157       -1.3951  -17.2814  -47.1818 H         1 UNK         0.0600 
    158 H158       -0.9824  -15.7201  -46.4863 H         1 UNK         0.0600 
    159 H159        0.2938  -16.6784  -43.4593 H         1 UNK         0.3000 
    160 H160       -0.4990  -14.0017  -42.2952 H         1 UNK         0.0600 
    161 H161       -2.5602  -15.6695  -40.7780 H         1 UNK         0.0600 
    162 H162       -2.7696  -14.0499  -41.4180 H         1 UNK         0.0600 
    163 H163       -1.6522  -14.3219  -40.0921 H         1 UNK         0.0600 
    164 H164        1.1308  -15.2465  -41.5265 H         1 UNK         0.3000 
    165 H165        1.9080  -16.9431  -39.6398 H         1 UNK         0.0600 
    166 H166        0.7314  -19.0654  -39.1245 H         1 UNK         0.0600 
    167 H167        1.0375  -19.6714  -40.7456 H         1 UNK         0.0600 
    168 H168        2.3785  -19.3960  -39.6362 H         1 UNK         0.0600 
    169 H169        3.4128  -16.9560  -41.2868 H         1 UNK         0.3000 
    170 H170        4.5904  -18.2490  -43.1995 H         1 UNK         0.0600 
    171 H171        4.4495  -18.1464  -45.6903 H         1 UNK         0.0600 
    172 H172        3.3751  -19.3782  -45.0624 H         1 UNK         0.0600 
    173 H173        2.7185  -17.8361  -45.5901 H         1 UNK         0.0600 
    174 H174        3.7947  -15.8813  -44.6608 H         1 UNK         0.3000 
    175 H175        4.5697  -13.4613  -42.3142 H         1 UNK         0.0600 
    176 H176        6.9320  -14.0163  -42.9167 H         1 UNK         0.0600 
    177 H177        6.4634  -14.2420  -44.5976 H         1 UNK         0.0600 
    178 H178        6.3443  -12.6491  -43.8482 H         1 UNK         0.0600 
    179 H179        4.2461  -13.2700  -45.1304 H         1 UNK         0.3000 
    180 H180        2.1357  -12.2550  -45.7947 H         1 UNK         0.0600 
    181 H181        1.3841  -15.2283  -46.0486 H         1 UNK         0.0600 
    182 H182        2.7930  -14.4581  -46.7633 H         1 UNK         0.0600 
    183 H183        1.1913  -14.0243  -47.3241 H         1 UNK         0.0600 
    184 H184       -0.3582  -13.6368  -45.3386 H         1 UNK         0.3000 
    185 H185       -1.8895  -12.4226  -43.2907 H         1 UNK         0.0600 
    186 H186       -1.8708  -10.0127  -42.9989 H         1 UNK         0.0600 
    187 H187       -2.0776   -9.7284  -44.7180 H         1 UNK         0.0600 
    188 H188       -3.3772  -10.4644  -43.7798 H         1 UNK         0.0600 
    189 H189       -2.8256  -13.4380  -45.0106 H         1 UNK         0.3000 
    190 H190       -2.0617  -21.2375  -46.2080 H         1 UNK         0.3000 
    191 H191       -3.8605  -22.5837  -47.9361 H         1 UNK         0.0600 
    192 H192       -4.5209  -20.7660  -46.3622 H         1 UNK         0.0600 
    193 H193       -5.5046  -22.2048  -46.1301 H         1 UNK         0.0600 
    194 H194       -4.2192  -21.8322  -44.9908 H         1 UNK         0.0600 
    195 H195       -2.2725  -23.6713  -44.8904 H         1 UNK         0.3000 
    196 H196       -3.4681  -26.2280  -44.7337 H         1 UNK         0.0600 
    197 H197       -0.7322  -25.2745  -43.7364 H         1 UNK         0.0600 
    198 H198       -1.5488  -26.7434  -43.2173 H         1 UNK         0.0600 
    199 H199       -2.2530  -25.1774  -42.8490 H         1 UNK         0.0600 
    200 H200       -0.7209  -25.0980  -46.6539 H         1 UNK         0.3000 
    201 H201        0.1243  -27.7202  -47.5765 H         1 UNK         0.0600 
    202 H202        0.8225  -24.9041  -48.5539 H         1 UNK         0.0600 
    203 H203        1.7181  -25.8309  -47.3532 H         1 UNK         0.0600 
    204 H204        1.6412  -26.3903  -49.0166 H         1 UNK         0.0600 
    205 H205       -2.3800  -27.9889  -47.9665 H         1 UNK         0.3000 
    206 H206       -4.0088  -28.5807  -49.3522 H         1 UNK         0.0600 
    207 H207       -2.1573  -29.9307  -50.3483 H         1 UNK         0.0600 
    208 H208       -3.3679  -29.5103  -51.5474 H         1 UNK         0.0600 
    209 H209       -1.8371  -28.6451  -51.5118 H         1 UNK         0.0600 
    210 H210       -4.0190  -25.8664  -48.8747 H         1 UNK         0.3000 
    211 H211       -5.0504  -24.0069  -49.3981 H         1 UNK         0.0600 
    212 H212       -6.9152  -25.5456  -50.0399 H         1 UNK         0.0600 
    213 H213       -6.9533  -24.0323  -50.9272 H         1 UNK         0.0600 
    214 H214       -6.3739  -25.4897  -51.7179 H         1 UNK         0.0600 
    215 H215       -2.3841  -24.5018  -50.6399 H         1 UNK         0.3000 
    216 H216       -2.3858  -23.0515  -53.1628 H         1 UNK         0.0600 
    217 H217       -0.0933  -24.0583  -51.4056 H         1 UNK         0.0600 
    218 H218        0.0598  -23.4593  -53.0529 H         1 UNK         0.0600 
    219 H219       -0.8289  -24.9425  -52.7419 H         1 UNK         0.0600 
    220 H220       -3.6399  -21.3092  -51.7412 H         1 UNK         0.3000 
    221 H221       -1.7577  -19.0869  -51.2385 H         1 UNK         0.0600 
    222 H222       -4.1238  -19.7922  -49.3997 H         1 UNK         0.0600 
    223 H223       -2.4381  -20.0401  -48.9749 H         1 UNK         0.0600 
    224 H224       -3.0416  -18.4137  -49.2234 H         1 UNK         0.0600 
    225 H225       -3.0607  -17.0064  -51.2338 H         1 UNK         0.3000 
    226 H226       -4.3429  -15.5038  -52.2622 H         1 UNK         0.0600 
    227 H227       -5.8692  -16.4235  -50.5210 H         1 UNK         0.0600 
    228 H228       -6.7687  -15.8311  -51.9068 H         1 UNK         0.0600 
    229 H229       -6.5366  -17.5623  -51.6906 H         1 UNK         0.0600 
    230 H230       -2.9904  -16.9275  -54.1476 H         1 UNK         0.3000 
    231 H231       -2.7056  -17.0916  -56.3099 H         1 UNK         0.0600 
    232 H232       -5.4738  -15.8963  -56.8176 H         1 UNK         0.0600 
    233 H233       -4.1360  -15.9914  -57.9486 H         1 UNK         0.0600 
    234 H234       -4.0065  -14.9582  -56.5361 H         1 UNK         0.0600 
    235 H235       -4.5612  -19.1395  -54.6729 H         1 UNK         0.3000 
    236 H236       -5.2033  -20.9204  -56.9691 H         1 UNK         0.0600 
    237 H237       -5.6581  -21.3272  -53.9733 H         1 UNK         0.0600 
    238 H238       -6.8635  -20.7019  -55.0962 H         1 UNK         0.0600 
    239 H239       -6.2552  -22.3400  -55.2765 H         1 UNK         0.0600 
    240 H240       -2.5102  -19.9652  -55.8990 H         1 UNK         0.3000 
    241 H241       -0.9817  -21.8873  -54.6520 H         1 UNK         0.0600 
    242 H242       -0.9397  -23.9385  -57.9402 H         1 UNK         0.3800 
    243 H243       -2.2883  -23.2164  -57.0804 H         1 UNK         0.3800 
    244 H244       -0.0270  -19.6715  -56.5200 H         1 UNK         0.0800 
    245 H245        0.9261  -20.4583  -55.2905 H         1 UNK         0.0800 
    246 H246        1.5974  -18.2149  -53.9001 H         1 UNK         0.0800 
    247 H247        1.1961  -19.6792  -53.0244 H         1 UNK         0.0800 
@<TRIPOS>BOND
     1    1    2 1    
     2    1  127 1    
     3    1  128 1    
     4    1  129 1    
     5    2    3 2    
     6    2    4 am   BACKBONE|DICT|INTERRES
     7    4    5 1    
     8    4  130 1    
     9    5    6 1    
    10    5   65 1    
    11    5  131 1    
    12    6    7 1    
    13    6  132 1    
    14    6  133 1    
    15    7    8 1    
    16    8    9 1    
    17    8  134 1    
    18    8  135 1    
    19    9   10 ar   
    20    9   14 ar   
    21   10   11 ar   
    22   10  136 1    
    23   11   12 ar   
    24   11  126 1    
    25   12   13 ar   
    26   12  137 1    
    27   13   14 ar   
    28   13   15 1    
    29   14  138 1    
    30   15   16 1    
    31   15  139 1    
    32   15  140 1    
    33   16   17 1    
    34   17   18 1    
    35   17  141 1    
    36   17  142 1    
    37   18   19 1    
    38   18   67 1    
    39   18  143 1    
    40   19   20 am   BACKBONE|DICT|INTERRES
    41   19  144 1    
    42   20   21 2    
    43   20   22 1    
    44   22   23 1    
    45   22   24 1    
    46   22  145 1    
    47   23  146 1    
    48   23  147 1    
    49   23  148 1    
    50   24   25 am   BACKBONE|DICT|INTERRES
    51   24  149 1    
    52   25   26 2    
    53   25   27 1    
    54   27   28 1    
    55   27   29 1    
    56   27  150 1    
    57   28  151 1    
    58   28  152 1    
    59   28  153 1    
    60   29   30 am   BACKBONE|DICT|INTERRES
    61   29  154 1    
    62   30   31 2    
    63   30   32 1    
    64   32   33 1    
    65   32   34 1    
    66   32  155 1    
    67   33  156 1    
    68   33  157 1    
    69   33  158 1    
    70   34   35 am   BACKBONE|DICT|INTERRES
    71   34  159 1    
    72   35   36 2    
    73   35   37 1    
    74   37   38 1    
    75   37   39 1    
    76   37  160 1    
    77   38  161 1    
    78   38  162 1    
    79   38  163 1    
    80   39   40 am   BACKBONE|DICT|INTERRES
    81   39  164 1    
    82   40   41 2    
    83   40   42 1    
    84   42   43 1    
    85   42   44 1    
    86   42  165 1    
    87   43  166 1    
    88   43  167 1    
    89   43  168 1    
    90   44   45 am   BACKBONE|DICT|INTERRES
    91   44  169 1    
    92   45   46 2    
    93   45   47 1    
    94   47   48 1    
    95   47   49 1    
    96   47  170 1    
    97   48  171 1    
    98   48  172 1    
    99   48  173 1    
   100   49   50 am   BACKBONE|DICT|INTERRES
   101   49  174 1    
   102   50   51 2    
   103   50   52 1    
   104   52   53 1    
   105   52   54 1    
   106   52  175 1    
   107   53  176 1    
   108   53  177 1    
   109   53  178 1    
   110   54   55 am   BACKBONE|DICT|INTERRES
   111   54  179 1    
   112   55   56 2    
   113   55   57 1    
   114   57   58 1    
   115   57   59 1    
   116   57  180 1    
   117   58  181 1    
   118   58  182 1    
   119   58  183 1    
   120   59   60 am   BACKBONE|DICT|INTERRES
   121   59  184 1    
   122   60   61 2    
   123   60   62 1    
   124   62   63 1    
   125   62   64 1    
   126   62  185 1    
   127   63  186 1    
   128   63  187 1    
   129   63  188 1    
   130   64   65 am   BACKBONE|DICT|INTERRES
   131   64  189 1    
   132   65   66 2    
   133   67   68 2    
   134   67   69 am   BACKBONE|DICT|INTERRES
   135   69   70 1    
   136   69  190 1    
   137   70   71 1    
   138   70   72 1    
   139   70  191 1    
   140   71  192 1    
   141   71  193 1    
   142   71  194 1    
   143   72   73 2    
   144   72   74 am   BACKBONE|DICT|INTERRES
   145   74   75 1    
   146   74  195 1    
   147   75   76 1    
   148   75   77 1    
   149   75  196 1    
   150   76  197 1    
   151   76  198 1    
   152   76  199 1    
   153   77   78 2    
   154   77   79 am   BACKBONE|DICT|INTERRES
   155   79   80 1    
   156   79  200 1    
   157   80   81 1    
   158   80   82 1    
   159   80  201 1    
   160   81  202 1    
   161   81  203 1    
   162   81  204 1    
   163   82   83 2    
   164   82   84 am   BACKBONE|DICT|INTERRES
   165   84   85 1    
   166   84  205 1    
   167   85   86 1    
   168   85   87 1    
   169   85  206 1    
   170   86  207 1    
   171   86  208 1    
   172   86  209 1    
   173   87   88 2    
   174   87   89 am   BACKBONE|DICT|INTERRES
   175   89   90 1    
   176   89  210 1    
   177   90   91 1    
   178   90   92 1    
   179   90  211 1    
   180   91  212 1    
   181   91  213 1    
   182   91  214 1    
   183   92   93 2    
   184   92   94 am   BACKBONE|DICT|INTERRES
   185   94   95 1    
   186   94  215 1    
   187   95   96 1    
   188   95   97 1    
   189   95  216 1    
   190   96  217 1    
   191   96  218 1    
   192   96  219 1    
   193   97   98 2    
   194   97   99 am   BACKBONE|DICT|INTERRES
   195   99  100 1    
   196   99  220 1    
   197  100  101 1    
   198  100  102 1    
   199  100  221 1    
   200  101  222 1    
   201  101  223 1    
   202  101  224 1    
   203  102  103 2    
   204  102  104 am   BACKBONE|DICT|INTERRES
   205  104  105 1    
   206  104  225 1    
   207  105  106 1    
   208  105  107 1    
   209  105  226 1    
   210  106  227 1    
   211  106  228 1    
   212  106  229 1    
   213  107  108 2    
   214  107  109 am   BACKBONE|DICT|INTERRES
   215  109  110 1    
   216  109  230 1    
   217  110  111 1    
   218  110  112 1    
   219  110  231 1    
   220  111  232 1    
   221  111  233 1    
   222  111  234 1    
   223  112  113 2    
   224  112  114 am   BACKBONE|DICT|INTERRES
   225  114  115 1    
   226  114  235 1    
   227  115  116 1    
   228  115  117 1    
   229  115  236 1    
   230  116  237 1    
   231  116  238 1    
   232  116  239 1    
   233  117  118 2    
   234  117  119 am   BACKBONE|DICT|INTERRES
   235  119  120 1    
   236  119  240 1    
   237  120  121 1    
   238  120  124 1    
   239  120  241 1    
   240  121  122 am   BACKBONE|DICT|INTERRES
   241  121  123 2    
   242  122  242 1    
   243  122  243 1    
   244  124  125 1    
   245  124  244 1    
   246  124  245 1    
   247  125  126 1    
   248  126  246 1    
   249  126  247 1    
@<TRIPOS>SUBSTRUCTURE
     1 UNK         1 GROUP             0       ****    0 ROOT    
