@<TRIPOS>MOLECULE
3R540
247   249    1
SMALL
USER_CHARGES


@<TRIPOS>ATOM
      1 CA         -3.7438  -12.7804  -45.1343 C.3       0 UNK        -0.1800 
      2 C          -2.2726  -12.7617  -45.5234 C.2       0 UNK         0.5000 
      3 O          -1.4261  -13.1691  -44.7304 O.2       0 UNK        -0.5000 
      4 N          -1.9587  -12.2859  -46.7359 N.am      1 UNK        -0.5000 
      5 CA         -0.5927  -12.0995  -47.2372 C.3       1 UNK         0.1400 
      6 C6         -0.5546  -11.2455  -48.5334 C.3       23 UNK        -0.0398 
      7 S7         -0.8665  -12.1063  -50.1176 S.3       23 UNK        -0.2404 
      8 C8         -2.6839  -12.1892  -50.2106 C.3       23 UNK        -0.0205 
      9 C9         -3.1635  -13.6271  -50.0797 C.ar      23 UNK        -0.0193 
     10 C10        -2.9654  -14.5214  -51.1362 C.ar      23 UNK        -0.1150 
     11 C11        -3.3682  -15.8544  -51.0252 C.ar      23 UNK        -0.0193 
     12 C12        -3.9673  -16.2926  -49.8403 C.ar      23 UNK        -0.1150 
     13 C13        -4.1921  -15.4046  -48.7858 C.ar      23 UNK        -0.0193 
     14 C14        -3.7970  -14.0709  -48.9151 C.ar      23 UNK        -0.1150 
     15 C15        -4.8709  -15.8897  -47.5158 C.3       23 UNK        -0.0205 
     16 S16        -3.6500  -16.3597  -46.2526 S.3       23 UNK        -0.2404 
     17 C17        -4.6494  -17.4729  -45.2135 C.3       23 UNK        -0.0398 
     18 CA         -4.3841  -18.9590  -45.5530 C.3       11 UNK         0.1400 
     19 N          -2.9983  -19.3705  -45.2761 N.am      11 UNK        -0.5000 
     20 C          -2.4834  -20.5710  -45.5780 C.2       10 UNK         0.5000 
     21 O          -3.1209  -21.4424  -46.1675 O.2       10 UNK        -0.5000 
     22 CA         -1.0483  -20.8905  -45.1190 C.3       10 UNK         0.1400 
     23 CB         -0.0528  -20.6270  -46.2574 C.3       10 UNK        -0.1800 
     24 N          -0.5841  -20.2069  -43.9069 N.am      10 UNK        -0.5000 
     25 C          -1.2112  -20.1641  -42.7213 C.2       9 UNK         0.5000 
     26 O          -2.3581  -20.5715  -42.5309 O.2       9 UNK        -0.5000 
     27 CA         -0.3853  -19.5767  -41.5632 C.3       9 UNK         0.1400 
     28 CB         -1.1524  -19.5129  -40.2258 C.3       9 UNK        -0.1800 
     29 N           0.8987  -20.2687  -41.4273 N.am      9 UNK        -0.5000 
     30 C           1.1168  -21.5354  -41.0357 C.2       8 UNK         0.5000 
     31 O           0.2234  -22.3138  -40.7011 O.2       8 UNK        -0.5000 
     32 CA          2.5803  -22.0362  -41.0194 C.3       8 UNK         0.1400 
     33 CB          2.7925  -23.1028  -42.1063 C.3       8 UNK        -0.1800 
     34 N           3.5731  -20.9779  -41.2145 N.am      8 UNK        -0.5000 
     35 C           3.8470  -19.9890  -40.3529 C.2       7 UNK         0.5000 
     36 O           3.3949  -19.9415  -39.2086 O.2       7 UNK        -0.5000 
     37 CA          4.7435  -18.8389  -40.8629 C.3       7 UNK         0.1400 
     38 CB          6.1212  -18.8903  -40.1838 C.3       7 UNK        -0.1800 
     39 N           4.9400  -18.7861  -42.3189 N.am      7 UNK        -0.5000 
     40 C           3.9837  -18.6536  -43.2486 C.2       6 UNK         0.5000 
     41 O           2.7758  -18.6416  -43.0010 O.2       6 UNK        -0.5000 
     42 CA          4.4622  -18.5608  -44.7027 C.3       6 UNK         0.1400 
     43 CB          3.7176  -19.5660  -45.5960 C.3       6 UNK        -0.1800 
     44 N           4.2302  -17.2094  -45.1990 N.am      6 UNK        -0.5000 
     45 C           5.1503  -16.2373  -45.2182 C.2       5 UNK         0.5000 
     46 O           6.3060  -16.3819  -44.8168 O.2       5 UNK        -0.5000 
     47 CA          4.7102  -14.8753  -45.7853 C.3       5 UNK         0.1400 
     48 CB          4.4347  -14.9667  -47.2949 C.3       5 UNK        -0.1800 
     49 N           3.5329  -14.3385  -45.1064 N.am      5 UNK        -0.5000 
     50 C           3.5222  -13.8626  -43.8528 C.2       4 UNK         0.5000 
     51 O           4.5205  -13.7949  -43.1350 O.2       4 UNK        -0.5000 
     52 CA          2.1616  -13.3917  -43.3052 C.3       4 UNK         0.1400 
     53 CB          1.8465  -11.9585  -43.7601 C.3       4 UNK        -0.1800 
     54 N           1.0817  -14.2869  -43.7151 N.am      4 UNK        -0.5000 
     55 C           0.9004  -15.5164  -43.2175 C.2       3 UNK         0.5000 
     56 O           1.5265  -15.9563  -42.2541 O.2       3 UNK        -0.5000 
     57 CA         -0.1457  -16.4085  -43.9098 C.3       3 UNK         0.1400 
     58 CB         -1.4927  -16.3466  -43.1728 C.3       3 UNK        -0.1800 
     59 N          -0.3416  -16.0768  -45.3224 N.am      3 UNK        -0.5000 
     60 C           0.5239  -16.3852  -46.2985 C.2       2 UNK         0.5000 
     61 O           1.5544  -17.0280  -46.1129 O.2       2 UNK        -0.5000 
     62 CA          0.2229  -15.8454  -47.7084 C.3       2 UNK         0.1400 
     63 CB         -0.6248  -16.8370  -48.5194 C.3       2 UNK        -0.1800 
     64 N          -0.4181  -14.5289  -47.6745 N.am      2 UNK        -0.5000 
     65 C           0.2284  -13.4073  -47.3193 C.2       1 UNK         0.5000 
     66 O           1.4195  -13.3876  -47.0064 O.2       1 UNK        -0.5000 
     67 C          -5.4365  -19.8619  -44.8703 C.2       11 UNK         0.5000 
     68 O          -6.5196  -20.0403  -45.4282 O.2       11 UNK        -0.5000 
     69 N          -5.0922  -20.4689  -43.7230 N.am      12 UNK        -0.5000 
     70 CA         -5.9277  -21.4537  -43.0264 C.3       12 UNK         0.1400 
     71 CB         -5.3685  -21.6793  -41.6135 C.3       12 UNK        -0.1800 
     72 C          -6.0463  -22.7960  -43.7803 C.2       12 UNK         0.5000 
     73 O          -6.9851  -23.5510  -43.5266 O.2       12 UNK        -0.5000 
     74 N          -5.1089  -23.0571  -44.6999 N.am      13 UNK        -0.5000 
     75 CA         -5.0603  -24.2196  -45.5838 C.3       13 UNK         0.1400 
     76 CB         -3.6788  -24.8804  -45.4325 C.3       13 UNK        -0.1800 
     77 C          -5.3426  -23.8176  -47.0468 C.2       13 UNK         0.5000 
     78 O          -4.9428  -24.5400  -47.9605 O.2       13 UNK        -0.5000 
     79 N          -5.9954  -22.6614  -47.2536 N.am      14 UNK        -0.5000 
     80 CA         -6.3684  -22.0720  -48.5469 C.3       14 UNK         0.1400 
     81 CB         -7.4549  -22.9236  -49.2363 C.3       14 UNK        -0.1800 
     82 C          -5.1585  -21.7845  -49.4641 C.2       14 UNK         0.5000 
     83 O          -5.2537  -21.9496  -50.6796 O.2       14 UNK        -0.5000 
     84 N          -4.0462  -21.3649  -48.8448 N.am      15 UNK        -0.5000 
     85 CA         -2.7199  -21.0942  -49.4105 C.3       15 UNK         0.1400 
     86 CB         -2.7765  -20.2343  -50.6862 C.3       15 UNK        -0.1800 
     87 C          -1.8475  -22.3538  -49.5769 C.2       15 UNK         0.5000 
     88 O          -0.7257  -22.2377  -50.0719 O.2       15 UNK        -0.5000 
     89 N          -2.3347  -23.5192  -49.1224 N.am      16 UNK        -0.5000 
     90 CA         -1.6393  -24.8085  -49.0802 C.3       16 UNK         0.1400 
     91 CB         -0.5353  -24.7783  -47.9977 C.3       16 UNK        -0.1800 
     92 C          -1.1396  -25.2364  -50.4763 C.2       16 UNK         0.5000 
     93 O          -1.9581  -25.4498  -51.3702 O.2       16 UNK        -0.5000 
     94 N           0.1843  -25.3248  -50.6594 N.am      17 UNK        -0.5000 
     95 CA          0.8347  -25.6524  -51.9299 C.3       17 UNK         0.1400 
     96 CB          2.3305  -25.8919  -51.6748 C.3       17 UNK        -0.1800 
     97 C           0.6394  -24.5831  -53.0248 C.2       17 UNK         0.5000 
     98 O           0.7255  -24.9137  -54.2079 O.2       17 UNK        -0.5000 
     99 N           0.3679  -23.3324  -52.6253 N.am      18 UNK        -0.5000 
    100 CA         0.1273  -22.2069  -53.5281 C.3       18 UNK         0.1400 
    101 CB         0.6653  -20.9169  -52.8873 C.3       18 UNK        -0.1800 
    102 C         -1.3544  -22.0566  -53.9221 C.2       18 UNK         0.5000 
    103 O         -1.6747  -21.1262  -54.6617 O.2       18 UNK        -0.5000 
    104 N         -2.2380  -22.9573  -53.4604 N.am      19 UNK        -0.5000 
    105 CA        -3.6807  -22.9462  -53.7391 C.3       19 UNK         0.1400 
    106 CB        -4.3507  -24.1329  -53.0331 C.3       19 UNK        -0.1800 
    107 C         -4.0338  -22.9557  -55.2390 C.2       19 UNK         0.5000 
    108 O         -5.0079  -22.3168  -55.6373 O.2       19 UNK        -0.5000 
    109 N         -3.2100  -23.6383  -56.0465 N.am      20 UNK        -0.5000 
    110 CA        -3.3282  -23.6987  -57.5046 C.3       20 UNK         0.1400 
    111 CB        -2.3686  -24.7734  -58.0377 C.3       20 UNK        -0.1800 
    112 C         -3.0666  -22.3481  -58.2022 C.2       20 UNK         0.5000 
    113 O         -3.6320  -22.1036  -59.2687 O.2       20 UNK        -0.5000 
    114 N         -2.2261  -21.4998  -57.5941 N.am      21 UNK        -0.5000 
    115 CA        -1.9458  -20.1409  -58.0564 C.3       21 UNK         0.1400 
    116 CB        -0.5015  -19.7653  -57.6875 C.3       21 UNK        -0.1800 
    117 C         -2.9417  -19.1347  -57.4546 C.2       21 UNK         0.5000 
    118 O         -3.3810  -18.2219  -58.1550 O.2       21 UNK        -0.5000 
    119 N         -3.2738  -19.3219  -56.1707 N.am      22 UNK        -0.5000 
    120 CA        -4.2320  -18.5084  -55.4107 C.3       22 UNK         0.1400 
    121 C         -5.6953  -18.6117  -55.9308 C.2       22 UNK         0.5000 
    122 N         -6.1762  -19.7947  -56.2937 N.am      22 UNK        -0.7600 
    123 O         -6.3956  -17.6074  -56.0245 O.2       22 UNK        -0.5000 
    124 C124       -4.1364  -18.8259  -53.8966 C.3       23 UNK        -0.0398 
    125 S125       -4.7129  -17.4598  -52.8347 S.3       23 UNK        -0.2404 
    126 C126       -3.1387  -16.8267  -52.1718 C.3       23 UNK        -0.0205 
    127 H127       -4.3893  -12.4686  -45.9549 H         1 UNK         0.0600 
    128 H128       -3.9132  -12.1061  -44.2951 H         1 UNK         0.0600 
    129 H129       -4.0410  -13.7822  -44.8266 H         1 UNK         0.0600 
    130 H130       -2.6943  -11.9495  -47.3375 H         1 UNK         0.3000 
    131 H131       -0.0961  -11.4973  -46.4730 H         1 UNK         0.0600 
    132 H132       -1.2311  -10.3940  -48.4487 H         1 UNK         0.0800 
    133 H133        0.4389  -10.8029  -48.6217 H         1 UNK         0.0800 
    134 H134       -3.0040  -11.7926  -51.1752 H         1 UNK         0.0800 
    135 H135       -3.1416  -11.5500  -49.4551 H         1 UNK         0.0800 
    136 H136       -2.4839  -14.1776  -52.0410 H         1 UNK         0.1150 
    137 H137       -4.2721  -17.3250  -49.7454 H         1 UNK         0.1150 
    138 H138       -3.9876  -13.3842  -48.1062 H         1 UNK         0.1150 
    139 H139       -5.5251  -15.1134  -47.1162 H         1 UNK         0.0800 
    140 H140       -5.5101  -16.7432  -47.7473 H         1 UNK         0.0800 
    141 H141       -5.7036  -17.2220  -45.3472 H         1 UNK         0.0800 
    142 H142       -4.4281  -17.2706  -44.1648 H         1 UNK         0.0800 
    143 H143       -4.5357  -19.0822  -46.6279 H         1 UNK         0.0600 
    144 H144       -2.4146  -18.7009  -44.7998 H         1 UNK         0.3000 
    145 H145       -1.0276  -21.9597  -44.8990 H         1 UNK         0.0600 
    146 H146        0.9398  -20.9973  -46.0027 H         1 UNK         0.0600 
    147 H147       -0.3539  -21.1385  -47.1720 H         1 UNK         0.0600 
    148 H148        0.0294  -19.5632  -46.4840 H         1 UNK         0.0600 
    149 H149        0.3602  -19.8497  -43.9446 H         1 UNK         0.3000 
    150 H150       -0.1379  -18.5522  -41.8355 H         1 UNK         0.0600 
    151 H151       -2.0338  -18.8771  -40.3173 H         1 UNK         0.0600 
    152 H152       -0.5301  -19.0947  -39.4347 H         1 UNK         0.0600 
    153 H153       -1.4959  -20.4949  -39.9000 H         1 UNK         0.0600 
    154 H154        1.7021  -19.7321  -41.7419 H         1 UNK         0.3000 
    155 H155        2.7574  -22.4951  -40.0446 H         1 UNK         0.0600 
    156 H156        2.6301  -22.6958  -43.1053 H         1 UNK         0.0600 
    157 H157        2.1031  -23.9381  -41.9766 H         1 UNK         0.0600 
    158 H158        3.8029  -23.5103  -42.0684 H         1 UNK         0.0600 
    159 H159        3.9989  -20.9287  -42.1277 H         1 UNK         0.3000 
    160 H160        4.2539  -17.9075  -40.5714 H         1 UNK         0.0600 
    161 H161        6.6732  -19.7882  -40.4643 H         1 UNK         0.0600 
    162 H162        6.0243  -18.8907  -39.0972 H         1 UNK         0.0600 
    163 H163        6.7270  -18.0245  -40.4522 H         1 UNK         0.0600 
    164 H164        5.9020  -18.7914  -42.6268 H         1 UNK         0.3000 
    165 H165        5.5256  -18.8051  -44.7500 H         1 UNK         0.0600 
    166 H166        4.0696  -19.5125  -46.6262 H         1 UNK         0.0600 
    167 H167        3.8728  -20.5884  -45.2496 H         1 UNK         0.0600 
    168 H168        2.6439  -19.3813  -45.6027 H         1 UNK         0.0600 
    169 H169        3.2805  -17.0139  -45.5110 H         1 UNK         0.3000 
    170 H170        5.5335  -14.1728  -45.6398 H         1 UNK         0.0600 
    171 H171        3.5953  -15.6264  -47.5153 H         1 UNK         0.0600 
    172 H172        4.2049  -13.9861  -47.7124 H         1 UNK         0.0600 
    173 H173        5.3046  -15.3519  -47.8281 H         1 UNK         0.0600 
    174 H174        2.6771  -14.2954  -45.6483 H         1 UNK         0.3000 
    175 H175        2.2171  -13.3934  -42.2145 H         1 UNK         0.0600 
    176 H176        1.8155  -11.8740  -44.8459 H         1 UNK         0.0600 
    177 H177        0.8848  -11.6235  -43.3709 H         1 UNK         0.0600 
    178 H178        2.6050  -11.2623  -43.4005 H         1 UNK         0.0600 
    179 H179        0.4439  -13.9533  -44.4291 H         1 UNK         0.3000 
    180 H180        0.2294  -17.4313  -43.8539 H         1 UNK         0.0600 
    181 H181       -2.1641  -17.1283  -43.5211 H         1 UNK         0.0600 
    182 H182       -1.9896  -15.3870  -43.3165 H         1 UNK         0.0600 
    183 H183       -1.3654  -16.4870  -42.0988 H         1 UNK         0.0600 
    184 H184       -1.1461  -15.5079  -45.5475 H         1 UNK         0.3000 
    185 H185        1.1784  -15.7387  -48.2263 H         1 UNK         0.0600 
    186 H186       -0.7989  -16.4696  -49.5307 H         1 UNK         0.0600 
    187 H187       -0.1191  -17.7994  -48.6065 H         1 UNK         0.0600 
    188 H188       -1.5933  -17.0224  -48.0602 H         1 UNK         0.0600 
    189 H189       -1.3963  -14.4796  -47.9220 H         1 UNK         0.3000 
    190 H190       -4.1622  -20.3225  -43.3396 H         1 UNK         0.3000 
    191 H191       -6.9337  -21.0397  -42.9319 H         1 UNK         0.0600 
    192 H192       -6.0152  -22.3437  -41.0393 H         1 UNK         0.0600 
    193 H193       -5.2935  -20.7416  -41.0625 H         1 UNK         0.0600 
    194 H194       -4.3768  -22.1323  -41.6413 H         1 UNK         0.0600 
    195 H195       -4.3926  -22.3609  -44.8732 H         1 UNK         0.3000 
    196 H196       -5.8218  -24.9491  -45.3022 H         1 UNK         0.0600 
    197 H197       -2.8797  -24.1987  -45.7235 H         1 UNK         0.0600 
    198 H198       -3.4994  -25.1827  -44.4007 H         1 UNK         0.0600 
    199 H199       -3.5938  -25.7752  -46.0502 H         1 UNK         0.0600 
    200 H200       -6.2606  -22.1199  -46.4409 H         1 UNK         0.3000 
    201 H201       -6.8088  -21.1000  -48.3199 H         1 UNK         0.0600 
    202 H202       -7.8383  -22.4232  -50.1263 H         1 UNK         0.0600 
    203 H203       -8.3020  -23.0952  -48.5723 H         1 UNK         0.0600 
    204 H204       -7.0703  -23.8950  -49.5486 H         1 UNK         0.0600 
    205 H205       -4.0596  -21.3407  -47.8290 H         1 UNK         0.3000 
    206 H206       -2.2156  -20.4889  -48.6571 H         1 UNK         0.0600 
    207 H207       -3.4871  -19.4168  -50.5763 H         1 UNK         0.0600 
    208 H208       -1.8019  -19.7970  -50.9010 H         1 UNK         0.0600 
    209 H209       -3.0688  -20.8179  -51.5575 H         1 UNK         0.0600 
    210 H210       -3.2875  -23.5394  -48.7775 H         1 UNK         0.3000 
    211 H211       -2.3800  -25.5505  -48.7789 H         1 UNK         0.0600 
    212 H212       -0.0517  -25.7512  -47.9003 H         1 UNK         0.0600 
    213 H213       -0.9528  -24.5333  -47.0222 H         1 UNK         0.0600 
    214 H214        0.2372  -24.0390  -48.2125 H         1 UNK         0.0600 
    215 H215        0.7919  -25.1078  -49.8830 H         1 UNK         0.3000 
    216 H216        0.3981  -26.5821  -52.3010 H         1 UNK         0.0600 
    217 H217        2.8191  -24.9994  -51.2816 H         1 UNK         0.0600 
    218 H218        2.8451  -26.1689  -52.5959 H         1 UNK         0.0600 
    219 H219        2.4852  -26.7023  -50.9622 H         1 UNK         0.0600 
    220 H220        0.2531  -23.1390  -51.6349 H         1 UNK         0.3000 
    221 H221        0.6824  -22.3632  -54.4552 H         1 UNK         0.0600 
    222 H222        1.7234  -21.0109  -52.6431 H         1 UNK         0.0600 
    223 H223        0.1329  -20.6646  -51.9717 H         1 UNK         0.0600 
    224 H224        0.5650  -20.0694  -53.5665 H         1 UNK         0.0600 
    225 H225       -1.9054  -23.6977  -52.8557 H         1 UNK         0.3000 
    226 H226       -4.0901  -22.0283  -53.3158 H         1 UNK         0.0600 
    227 H227       -3.9576  -25.0870  -53.3859 H         1 UNK         0.0600 
    228 H228       -4.1991  -24.0857  -51.9548 H         1 UNK         0.0600 
    229 H229       -5.4277  -24.1337  -53.2050 H         1 UNK         0.0600 
    230 H230       -2.4312  -24.1291  -55.6319 H         1 UNK         0.3000 
    231 H231       -4.3492  -24.0011  -57.7469 H         1 UNK         0.0600 
    232 H232       -1.3300  -24.5385  -57.8012 H         1 UNK         0.0600 
    233 H233       -2.4463  -24.8637  -59.1220 H         1 UNK         0.0600 
    234 H234       -2.5970  -25.7518  -57.6144 H         1 UNK         0.0600 
    235 H235       -1.8479  -21.7527  -56.6904 H         1 UNK         0.3000 
    236 H236       -2.0352  -20.0960  -59.1440 H         1 UNK         0.0600 
    237 H237       -0.3389  -19.7798  -56.6093 H         1 UNK         0.0600 
    238 H238        0.2117  -20.4528  -58.1425 H         1 UNK         0.0600 
    239 H239       -0.2581  -18.7629  -58.0417 H         1 UNK         0.0600 
    240 H240       -2.8144  -20.0701  -55.6590 H         1 UNK         0.3000 
    241 H241       -3.9189  -17.4717  -55.5511 H         1 UNK         0.0600 
    242 H242       -7.1197  -19.8564  -56.6407 H         1 UNK         0.3800 
    243 H243       -5.6365  -20.6480  -56.1673 H         1 UNK         0.3800 
    244 H244       -3.1044  -19.0524  -53.6261 H         1 UNK         0.0800 
    245 H245       -4.7041  -19.7243  -53.6493 H         1 UNK         0.0800 
    246 H246       -2.5178  -17.6464  -51.8134 H         1 UNK         0.0800 
    247 H247       -2.5818  -16.3516  -52.9808 H         1 UNK         0.0800 
@<TRIPOS>BOND
     1    1    2 1    
     2    1  127 1    
     3    1  128 1    
     4    1  129 1    
     5    2    3 2    
     6    2    4 am   BACKBONE|DICT|INTERRES
     7    4    5 1    
     8    4  130 1    
     9    5    6 1    
    10    5   65 1    
    11    5  131 1    
    12    6    7 1    
    13    6  132 1    
    14    6  133 1    
    15    7    8 1    
    16    8    9 1    
    17    8  134 1    
    18    8  135 1    
    19    9   10 ar   
    20    9   14 ar   
    21   10   11 ar   
    22   10  136 1    
    23   11   12 ar   
    24   11  126 1    
    25   12   13 ar   
    26   12  137 1    
    27   13   14 ar   
    28   13   15 1    
    29   14  138 1    
    30   15   16 1    
    31   15  139 1    
    32   15  140 1    
    33   16   17 1    
    34   17   18 1    
    35   17  141 1    
    36   17  142 1    
    37   18   19 1    
    38   18   67 1    
    39   18  143 1    
    40   19   20 am   BACKBONE|DICT|INTERRES
    41   19  144 1    
    42   20   21 2    
    43   20   22 1    
    44   22   23 1    
    45   22   24 1    
    46   22  145 1    
    47   23  146 1    
    48   23  147 1    
    49   23  148 1    
    50   24   25 am   BACKBONE|DICT|INTERRES
    51   24  149 1    
    52   25   26 2    
    53   25   27 1    
    54   27   28 1    
    55   27   29 1    
    56   27  150 1    
    57   28  151 1    
    58   28  152 1    
    59   28  153 1    
    60   29   30 am   BACKBONE|DICT|INTERRES
    61   29  154 1    
    62   30   31 2    
    63   30   32 1    
    64   32   33 1    
    65   32   34 1    
    66   32  155 1    
    67   33  156 1    
    68   33  157 1    
    69   33  158 1    
    70   34   35 am   BACKBONE|DICT|INTERRES
    71   34  159 1    
    72   35   36 2    
    73   35   37 1    
    74   37   38 1    
    75   37   39 1    
    76   37  160 1    
    77   38  161 1    
    78   38  162 1    
    79   38  163 1    
    80   39   40 am   BACKBONE|DICT|INTERRES
    81   39  164 1    
    82   40   41 2    
    83   40   42 1    
    84   42   43 1    
    85   42   44 1    
    86   42  165 1    
    87   43  166 1    
    88   43  167 1    
    89   43  168 1    
    90   44   45 am   BACKBONE|DICT|INTERRES
    91   44  169 1    
    92   45   46 2    
    93   45   47 1    
    94   47   48 1    
    95   47   49 1    
    96   47  170 1    
    97   48  171 1    
    98   48  172 1    
    99   48  173 1    
   100   49   50 am   BACKBONE|DICT|INTERRES
   101   49  174 1    
   102   50   51 2    
   103   50   52 1    
   104   52   53 1    
   105   52   54 1    
   106   52  175 1    
   107   53  176 1    
   108   53  177 1    
   109   53  178 1    
   110   54   55 am   BACKBONE|DICT|INTERRES
   111   54  179 1    
   112   55   56 2    
   113   55   57 1    
   114   57   58 1    
   115   57   59 1    
   116   57  180 1    
   117   58  181 1    
   118   58  182 1    
   119   58  183 1    
   120   59   60 am   BACKBONE|DICT|INTERRES
   121   59  184 1    
   122   60   61 2    
   123   60   62 1    
   124   62   63 1    
   125   62   64 1    
   126   62  185 1    
   127   63  186 1    
   128   63  187 1    
   129   63  188 1    
   130   64   65 am   BACKBONE|DICT|INTERRES
   131   64  189 1    
   132   65   66 2    
   133   67   68 2    
   134   67   69 am   BACKBONE|DICT|INTERRES
   135   69   70 1    
   136   69  190 1    
   137   70   71 1    
   138   70   72 1    
   139   70  191 1    
   140   71  192 1    
   141   71  193 1    
   142   71  194 1    
   143   72   73 2    
   144   72   74 am   BACKBONE|DICT|INTERRES
   145   74   75 1    
   146   74  195 1    
   147   75   76 1    
   148   75   77 1    
   149   75  196 1    
   150   76  197 1    
   151   76  198 1    
   152   76  199 1    
   153   77   78 2    
   154   77   79 am   BACKBONE|DICT|INTERRES
   155   79   80 1    
   156   79  200 1    
   157   80   81 1    
   158   80   82 1    
   159   80  201 1    
   160   81  202 1    
   161   81  203 1    
   162   81  204 1    
   163   82   83 2    
   164   82   84 am   BACKBONE|DICT|INTERRES
   165   84   85 1    
   166   84  205 1    
   167   85   86 1    
   168   85   87 1    
   169   85  206 1    
   170   86  207 1    
   171   86  208 1    
   172   86  209 1    
   173   87   88 2    
   174   87   89 am   BACKBONE|DICT|INTERRES
   175   89   90 1    
   176   89  210 1    
   177   90   91 1    
   178   90   92 1    
   179   90  211 1    
   180   91  212 1    
   181   91  213 1    
   182   91  214 1    
   183   92   93 2    
   184   92   94 am   BACKBONE|DICT|INTERRES
   185   94   95 1    
   186   94  215 1    
   187   95   96 1    
   188   95   97 1    
   189   95  216 1    
   190   96  217 1    
   191   96  218 1    
   192   96  219 1    
   193   97   98 2    
   194   97   99 am   BACKBONE|DICT|INTERRES
   195   99  100 1    
   196   99  220 1    
   197  100  101 1    
   198  100  102 1    
   199  100  221 1    
   200  101  222 1    
   201  101  223 1    
   202  101  224 1    
   203  102  103 2    
   204  102  104 am   BACKBONE|DICT|INTERRES
   205  104  105 1    
   206  104  225 1    
   207  105  106 1    
   208  105  107 1    
   209  105  226 1    
   210  106  227 1    
   211  106  228 1    
   212  106  229 1    
   213  107  108 2    
   214  107  109 am   BACKBONE|DICT|INTERRES
   215  109  110 1    
   216  109  230 1    
   217  110  111 1    
   218  110  112 1    
   219  110  231 1    
   220  111  232 1    
   221  111  233 1    
   222  111  234 1    
   223  112  113 2    
   224  112  114 am   BACKBONE|DICT|INTERRES
   225  114  115 1    
   226  114  235 1    
   227  115  116 1    
   228  115  117 1    
   229  115  236 1    
   230  116  237 1    
   231  116  238 1    
   232  116  239 1    
   233  117  118 2    
   234  117  119 am   BACKBONE|DICT|INTERRES
   235  119  120 1    
   236  119  240 1    
   237  120  121 1    
   238  120  124 1    
   239  120  241 1    
   240  121  122 am   BACKBONE|DICT|INTERRES
   241  121  123 2    
   242  122  242 1    
   243  122  243 1    
   244  124  125 1    
   245  124  244 1    
   246  124  245 1    
   247  125  126 1    
   248  126  246 1    
   249  126  247 1    
@<TRIPOS>SUBSTRUCTURE
     1 UNK         1 GROUP             0       ****    0 ROOT    
