@<TRIPOS>MOLECULE
3R540
247   249    1
SMALL
USER_CHARGES


@<TRIPOS>ATOM
      1 CA         -3.9530  -10.5002  -49.6342 C.3       0 UNK        -0.1800 
      2 C          -3.5369  -11.7166  -48.8213 C.2       0 UNK         0.5000 
      3 O          -2.4411  -11.7309  -48.2626 O.2       0 UNK        -0.5000 
      4 N          -4.4131  -12.7271  -48.7358 N.am      1 UNK        -0.5000 
      5 CA         -4.1963  -14.0061  -48.0432 C.3       1 UNK         0.1400 
      6 C6         -5.4224  -14.9363  -48.2183 C.3       23 UNK        -0.0398 
      7 S7         -5.1004  -16.6741  -47.7640 S.3       23 UNK        -0.2404 
      8 C8         -4.8744  -17.4613  -49.3875 C.3       23 UNK        -0.0205 
      9 C9         -3.5613  -17.0582  -50.0403 C.ar      23 UNK        -0.0193 
     10 C10        -3.5521  -16.1802  -51.1253 C.ar      23 UNK        -0.1150 
     11 C11        -2.3503  -15.8460  -51.7536 C.ar      23 UNK        -0.0193 
     12 C12        -1.1510  -16.3828  -51.2735 C.ar      23 UNK        -0.1150 
     13 C13        -1.1368  -17.2493  -50.1748 C.ar      23 UNK        -0.0193 
     14 C14        -2.3545  -17.5805  -49.5680 C.ar      23 UNK        -0.1150 
     15 C15         0.2142  -17.7576  -49.6595 C.3       23 UNK        -0.0205 
     16 S16         0.2113  -19.3910  -48.8434 S.3       23 UNK        -0.2404 
     17 C17        -0.3200  -18.9708  -47.1489 C.3       23 UNK        -0.0398 
     18 CA         -1.4080  -19.9503  -46.6502 C.3       11 UNK         0.1400 
     19 N          -0.8797  -21.3028  -46.4504 N.am      11 UNK        -0.5000 
     20 C          -1.6296  -22.4121  -46.4418 C.2       10 UNK         0.5000 
     21 O          -2.8515  -22.4099  -46.5798 O.2       10 UNK        -0.5000 
     22 CA         -0.8920  -23.7326  -46.1621 C.3       10 UNK         0.1400 
     23 CB         -0.1383  -24.2093  -47.4120 C.3       10 UNK        -0.1800 
     24 N           0.0471  -23.6283  -45.0422 N.am      10 UNK        -0.5000 
     25 C          -0.2727  -23.2686  -43.7932 C.2       9 UNK         0.5000 
     26 O          -1.4172  -22.9796  -43.4472 O.2       9 UNK        -0.5000 
     27 CA          0.8616  -23.1562  -42.7601 C.3       9 UNK         0.1400 
     28 CB          1.0279  -24.4683  -41.9717 C.3       9 UNK        -0.1800 
     29 N           2.1447  -22.6770  -43.2892 N.am      9 UNK        -0.5000 
     30 C           3.0204  -23.3016  -44.0934 C.2       8 UNK         0.5000 
     31 O           2.7929  -24.3778  -44.6462 O.2       8 UNK        -0.5000 
     32 CA          4.3790  -22.6053  -44.3326 C.3       8 UNK         0.1400 
     33 CB          4.4008  -21.9482  -45.7216 C.3       8 UNK        -0.1800 
     34 N           4.7006  -21.5882  -43.3279 N.am      8 UNK        -0.5000 
     35 C           4.8860  -21.8111  -42.0186 C.2       7 UNK         0.5000 
     36 O           4.9805  -22.9377  -41.5301 O.2       7 UNK        -0.5000 
     37 CA          4.9318  -20.5789  -41.0872 C.3       7 UNK         0.1400 
     38 CB          6.3332  -20.4181  -40.4764 C.3       7 UNK        -0.1800 
     39 N           4.5420  -19.3028  -41.7031 N.am      7 UNK        -0.5000 
     40 C           3.3600  -18.9989  -42.2586 C.2       6 UNK         0.5000 
     41 O           2.4221  -19.7958  -42.3676 O.2       6 UNK        -0.5000 
     42 CA          3.2403  -17.5785  -42.8331 C.3       6 UNK         0.1400 
     43 CB          4.2900  -17.3324  -43.9380 C.3       6 UNK        -0.1800 
     44 N           1.9031  -17.3772  -43.3825 N.am      6 UNK        -0.5000 
     45 C           1.3463  -16.1862  -43.6254 C.2       5 UNK         0.5000 
     46 O           1.8552  -15.1125  -43.2945 O.2       5 UNK        -0.5000 
     47 CA         -0.0069  -16.1969  -44.3637 C.3       5 UNK         0.1400 
     48 CB         -1.1643  -15.9967  -43.3742 C.3       5 UNK        -0.1800 
     49 N          -0.0863  -15.1697  -45.4049 N.am      5 UNK        -0.5000 
     50 C           0.7605  -15.0202  -46.4344 C.2       4 UNK         0.5000 
     51 O           1.6604  -15.8190  -46.6966 O.2       4 UNK        -0.5000 
     52 CA          0.5836  -13.7752  -47.3294 C.3       4 UNK         0.1400 
     53 CB         -0.0690  -14.1451  -48.6691 C.3       4 UNK        -0.1800 
     54 N          -0.2001  -12.7078  -46.7080 N.am      4 UNK        -0.5000 
     55 C           0.2396  -11.8886  -45.7432 C.2       3 UNK         0.5000 
     56 O           1.3683  -11.9483  -45.2553 O.2       3 UNK        -0.5000 
     57 CA         -0.7469  -10.8188  -45.2431 C.3       3 UNK         0.1400 
     58 CB         -0.6506   -9.5492  -46.1036 C.3       3 UNK        -0.1800 
     59 N          -2.1253  -11.3084  -45.2608 N.am      3 UNK        -0.5000 
     60 C          -2.7038  -11.9715  -44.2504 C.2       2 UNK         0.5000 
     61 O          -2.1557  -12.1807  -43.1679 O.2       2 UNK        -0.5000 
     62 CA         -4.1332  -12.5013  -44.4853 C.3       2 UNK         0.1400 
     63 CB         -5.1718  -11.4762  -44.0055 C.3       2 UNK        -0.1800 
     64 N          -4.4131  -12.8469  -45.8810 N.am      2 UNK        -0.5000 
     65 C          -3.8076  -13.8354  -46.5555 C.2       1 UNK         0.5000 
     66 O          -2.9366  -14.5524  -46.0655 O.2       1 UNK        -0.5000 
     67 C          -2.1280  -19.4020  -45.4020 C.2       11 UNK         0.5000 
     68 O          -2.9869  -18.5364  -45.5493 O.2       11 UNK        -0.5000 
     69 N          -1.8004  -19.9169  -44.2076 N.am      12 UNK        -0.5000 
     70 CA         -2.5114  -19.5949  -42.9671 C.3       12 UNK         0.1400 
     71 CB         -1.6294  -19.9347  -41.7560 C.3       12 UNK        -0.1800 
     72 C          -3.8729  -20.3121  -42.8952 C.2       12 UNK         0.5000 
     73 O          -4.8586  -19.7080  -42.4719 O.2       12 UNK        -0.5000 
     74 N          -3.9093  -21.5729  -43.3495 N.am      13 UNK        -0.5000 
     75 CA         -5.1272  -22.3647  -43.5336 C.3       13 UNK         0.1400 
     76 CB         -4.7351  -23.8401  -43.7120 C.3       13 UNK        -0.1800 
     77 C          -5.9753  -21.8920  -44.7319 C.2       13 UNK         0.5000 
     78 O          -7.1853  -22.1205  -44.7406 O.2       13 UNK        -0.5000 
     79 N          -5.3159  -21.2565  -45.7118 N.am      14 UNK        -0.5000 
     80 CA         -5.8268  -20.8000  -47.0057 C.3       14 UNK         0.1400 
     81 CB         -6.9056  -19.7124  -46.8245 C.3       14 UNK        -0.1800 
     82 C          -6.2877  -21.9849  -47.8775 C.2       14 UNK         0.5000 
     83 O          -7.3931  -21.9640  -48.4229 O.2       14 UNK        -0.5000 
     84 N          -5.4372  -23.0144  -47.9660 N.am      15 UNK        -0.5000 
     85 CA         -5.7249  -24.2791  -48.6352 C.3       15 UNK         0.1400 
     86 CB         -6.3515  -25.2457  -47.6135 C.3       15 UNK        -0.1800 
     87 C          -4.4466  -24.8739  -49.2432 C.2       15 UNK         0.5000 
     88 O          -3.3435  -24.4118  -48.9430 O.2       15 UNK        -0.5000 
     89 N          -4.6264  -25.9096  -50.0756 N.am      16 UNK        -0.5000 
     90 CA         -3.5869  -26.7265  -50.7097 C.3       16 UNK         0.1400 
     91 CB         -2.9193  -27.6388  -49.6549 C.3       16 UNK        -0.1800 
     92 C          -2.5906  -25.8741  -51.5226 C.2       16 UNK         0.5000 
     93 O          -2.9814  -25.2907  -52.5360 O.2       16 UNK        -0.5000 
     94 N          -1.3388  -25.7869  -51.0509 N.am      17 UNK        -0.5000 
     95 CA         -0.2440  -25.0268  -51.6565 C.3       17 UNK         0.1400 
     96 CB          1.0610  -25.3330  -50.9067 C.3       17 UNK        -0.1800 
     97 C          -0.4834  -23.5064  -51.7403 C.2       17 UNK         0.5000 
     98 O           0.2093  -22.8447  -52.5122 O.2       17 UNK        -0.5000 
     99 N          -1.4737  -22.9774  -51.0041 N.am      18 UNK        -0.5000 
    100 CA        -1.9269  -21.5885  -51.1090 C.3       18 UNK         0.1400 
    101 CB        -3.0435  -21.3307  -50.0897 C.3       18 UNK        -0.1800 
    102 C         -2.4085  -21.2147  -52.5218 C.2       18 UNK         0.5000 
    103 O         -2.1334  -20.1074  -52.9797 O.2       18 UNK        -0.5000 
    104 N         -3.0732  -22.1567  -53.2077 N.am      19 UNK        -0.5000 
    105 CA        -3.5279  -21.9896  -54.5883 C.3       19 UNK         0.1400 
    106 CB        -4.4699  -23.1440  -54.9605 C.3       19 UNK        -0.1800 
    107 C         -2.3540  -21.8969  -55.5795 C.2       19 UNK         0.5000 
    108 O         -2.3809  -21.0579  -56.4804 O.2       19 UNK        -0.5000 
    109 N         -1.3284  -22.7335  -55.3683 N.am      20 UNK        -0.5000 
    110 CA        -0.0928  -22.7436  -56.1516 C.3       20 UNK         0.1400 
    111 CB         0.7030  -24.0200  -55.8368 C.3       20 UNK        -0.1800 
    112 C          0.7645  -21.4868  -55.9141 C.2       20 UNK         0.5000 
    113 O          1.3594  -20.9727  -56.8619 O.2       20 UNK        -0.5000 
    114 N          0.7978  -21.0097  -54.6621 N.am      21 UNK        -0.5000 
    115 CA         1.4832  -19.7856  -54.2539 C.3       21 UNK         0.1400 
    116 CB         1.5492  -19.7216  -52.7201 C.3       21 UNK        -0.1800 
    117 C          0.8219  -18.5195  -54.8277 C.2       21 UNK         0.5000 
    118 O          1.5284  -17.6483  -55.3373 O.2       21 UNK        -0.5000 
    119 N         -0.5120  -18.4403  -54.7355 N.am      22 UNK        -0.5000 
    120 CA        -1.3094  -17.3209  -55.2569 C.3       22 UNK         0.1400 
    121 C         -1.4358  -17.3062  -56.8064 C.2       22 UNK         0.5000 
    122 N         -1.5556  -18.4518  -57.4665 N.am      22 UNK        -0.7600 
    123 O         -1.4102  -16.2435  -57.4212 O.2       22 UNK        -0.5000 
    124 C124       -2.6957  -17.2508  -54.5670 C.3       23 UNK        -0.0398 
    125 S125       -3.3283  -15.5488  -54.3680 S.3       23 UNK        -0.2404 
    126 C126       -2.3460  -14.9168  -52.9609 C.3       23 UNK        -0.0205 
    127 H127       -4.9517  -10.6153  -50.0559 H         1 UNK         0.0600 
    128 H128       -3.2526  -10.3425  -50.4543 H         1 UNK         0.0600 
    129 H129       -3.9485   -9.6103  -49.0049 H         1 UNK         0.0600 
    130 H130       -5.2994  -12.6358  -49.2114 H         1 UNK         0.3000 
    131 H131       -3.3472  -14.4776  -48.5409 H         1 UNK         0.0600 
    132 H132       -5.7617  -14.9130  -49.2546 H         1 UNK         0.0800 
    133 H133       -6.2654  -14.5767  -47.6258 H         1 UNK         0.0800 
    134 H134       -4.8891  -18.5432  -49.2552 H         1 UNK         0.0800 
    135 H135       -5.7224  -17.2259  -50.0324 H         1 UNK         0.0800 
    136 H136       -4.4808  -15.7719  -51.4981 H         1 UNK         0.1150 
    137 H137       -0.2198  -16.1187  -51.7548 H         1 UNK         0.1150 
    138 H138       -2.3842  -18.2402  -48.7191 H         1 UNK         0.1150 
    139 H139        0.9133  -17.8174  -50.4937 H         1 UNK         0.0800 
    140 H140        0.6350  -17.0269  -48.9708 H         1 UNK         0.0800 
    141 H141       -0.6876  -17.9427  -47.1401 H         1 UNK         0.0800 
    142 H142        0.5520  -18.9852  -46.4934 H         1 UNK         0.0800 
    143 H143       -2.1784  -20.0141  -47.4197 H         1 UNK         0.0600 
    144 H144        0.1192  -21.3917  -46.3383 H         1 UNK         0.3000 
    145 H145       -1.6424  -24.4826  -45.9042 H         1 UNK         0.0600 
    146 H146        0.3057  -25.1920  -47.2527 H         1 UNK         0.0600 
    147 H147       -0.8102  -24.2920  -48.2660 H         1 UNK         0.0600 
    148 H148        0.6607  -23.5211  -47.6904 H         1 UNK         0.0600 
    149 H149        1.0120  -23.8937  -45.2143 H         1 UNK         0.3000 
    150 H150        0.5496  -22.3920  -42.0469 H         1 UNK         0.0600 
    151 H151        0.0959  -24.7436  -41.4764 H         1 UNK         0.0600 
    152 H152        1.7902  -24.3692  -41.1988 H         1 UNK         0.0600 
    153 H153        1.3097  -25.3007  -42.6170 H         1 UNK         0.0600 
    154 H154        2.4098  -21.7566  -42.9520 H         1 UNK         0.3000 
    155 H155        5.1534  -23.3741  -44.2976 H         1 UNK         0.0600 
    156 H156        3.6536  -21.1578  -45.8052 H         1 UNK         0.0600 
    157 H157        4.1940  -22.6794  -46.5044 H         1 UNK         0.0600 
    158 H158        5.3766  -21.5125  -45.9369 H         1 UNK         0.0600 
    159 H159        4.6506  -20.6279  -43.6325 H         1 UNK         0.3000 
    160 H160        4.2276  -20.7747  -40.2763 H         1 UNK         0.0600 
    161 H161        7.0797  -20.1936  -41.2393 H         1 UNK         0.0600 
    162 H162        6.6483  -21.3301  -39.9675 H         1 UNK         0.0600 
    163 H163        6.3536  -19.6158  -39.7386 H         1 UNK         0.0600 
    164 H164        5.2504  -18.5834  -41.6798 H         1 UNK         0.3000 
    165 H165        3.4004  -16.8769  -42.0118 H         1 UNK         0.0600 
    166 H166        4.2082  -16.3253  -44.3474 H         1 UNK         0.0600 
    167 H167        5.3073  -17.4355  -43.5597 H         1 UNK         0.0600 
    168 H168        4.1720  -18.0341  -44.7648 H         1 UNK         0.0600 
    169 H169        1.4072  -18.2350  -43.5857 H         1 UNK         0.3000 
    170 H170       -0.1307  -17.1659  -44.8467 H         1 UNK         0.0600 
    171 H171       -1.1449  -14.9997  -42.9318 H         1 UNK         0.0600 
    172 H172       -2.1287  -16.1264  -43.8664 H         1 UNK         0.0600 
    173 H173       -1.1135  -16.7186  -42.5586 H         1 UNK         0.0600 
    174 H174       -0.8484  -14.5090  -45.3252 H         1 UNK         0.3000 
    175 H175        1.5794  -13.3797  -47.5398 H         1 UNK         0.0600 
    176 H176       -0.9999  -14.6937  -48.5251 H         1 UNK         0.0600 
    177 H177       -0.2897  -13.2597  -49.2656 H         1 UNK         0.0600 
    178 H178        0.5982  -14.7673  -49.2640 H         1 UNK         0.0600 
    179 H179       -1.1193  -12.5367  -47.1042 H         1 UNK         0.3000 
    180 H180       -0.4651  -10.5531  -44.2219 H         1 UNK         0.0600 
    181 H181       -1.3158   -8.7700  -45.7312 H         1 UNK         0.0600 
    182 H182       -0.9117   -9.7437  -47.1444 H         1 UNK         0.0600 
    183 H183        0.3627   -9.1457  -46.0899 H         1 UNK         0.0600 
    184 H184       -2.6199  -11.2276  -46.1399 H         1 UNK         0.3000 
    185 H185       -4.2474  -13.4084  -43.8879 H         1 UNK         0.0600 
    186 H186       -6.1842  -11.8725  -44.0854 H         1 UNK         0.0600 
    187 H187       -5.0083  -11.2150  -42.9591 H         1 UNK         0.0600 
    188 H188       -5.1243  -10.5535  -44.5853 H         1 UNK         0.0600 
    189 H189       -5.0979  -12.2822  -46.3621 H         1 UNK         0.3000 
    190 H190       -1.1263  -20.6663  -44.1653 H         1 UNK         0.3000 
    191 H191       -2.7053  -18.5209  -42.9457 H         1 UNK         0.0600 
    192 H192       -2.1035  -19.6068  -40.8303 H         1 UNK         0.0600 
    193 H193       -0.6604  -19.4384  -41.8185 H         1 UNK         0.0600 
    194 H194       -1.4537  -21.0061  -41.6669 H         1 UNK         0.0600 
    195 H195       -3.0342  -22.0283  -43.5961 H         1 UNK         0.3000 
    196 H196       -5.7387  -22.2756  -42.6334 H         1 UNK         0.0600 
    197 H197       -4.1139  -23.9862  -44.5968 H         1 UNK         0.0600 
    198 H198       -4.1788  -24.2075  -42.8495 H         1 UNK         0.0600 
    199 H199       -5.6187  -24.4697  -43.8237 H         1 UNK         0.0600 
    200 H200       -4.3081  -21.2313  -45.6253 H         1 UNK         0.3000 
    201 H201       -4.9806  -20.3445  -47.5219 H         1 UNK         0.0600 
    202 H202       -7.8187  -20.1103  -46.3813 H         1 UNK         0.0600 
    203 H203       -7.1749  -19.2692  -47.7838 H         1 UNK         0.0600 
    204 H204       -6.5463  -18.9073  -46.1836 H         1 UNK         0.0600 
    205 H205       -4.5128  -22.9450  -47.5449 H         1 UNK         0.3000 
    206 H206       -6.4268  -24.1116  -49.4548 H         1 UNK         0.0600 
    207 H207       -6.6030  -26.2031  -48.0708 H         1 UNK         0.0600 
    208 H208       -5.6712  -25.4444  -46.7842 H         1 UNK         0.0600 
    209 H209       -7.2721  -24.8363  -47.1968 H         1 UNK         0.0600 
    210 H210       -5.5740  -26.1878  -50.2881 H         1 UNK         0.3000 
    211 H211       -4.0914  -27.3712  -51.4309 H         1 UNK         0.0600 
    212 H212       -2.1709  -28.2886  -50.1104 H         1 UNK         0.0600 
    213 H213       -3.6577  -28.2873  -49.1831 H         1 UNK         0.0600 
    214 H214       -2.4328  -27.0694  -48.8618 H         1 UNK         0.0600 
    215 H215       -1.1248  -26.2717  -50.1918 H         1 UNK         0.3000 
    216 H216       -0.1327  -25.3829  -52.6826 H         1 UNK         0.0600 
    217 H217        1.0146  -25.0135  -49.8664 H         1 UNK         0.0600 
    218 H218        1.9059  -24.8199  -51.3681 H         1 UNK         0.0600 
    219 H219        1.2847  -26.3998  -50.9217 H         1 UNK         0.0600 
    220 H220       -2.0003  -23.5819  -50.3828 H         1 UNK         0.3000 
    221 H221       -1.0795  -20.9463  -50.8697 H         1 UNK         0.0600 
    222 H222       -2.7157  -21.5762  -49.0827 H         1 UNK         0.0600 
    223 H223       -3.9318  -21.9245  -50.3062 H         1 UNK         0.0600 
    224 H224       -3.3394  -20.2821  -50.0935 H         1 UNK         0.0600 
    225 H225       -3.2147  -23.0665  -52.7855 H         1 UNK         0.3000 
    226 H226       -4.0913  -21.0561  -54.6500 H         1 UNK         0.0600 
    227 H227       -3.9673  -24.1103  -54.9034 H         1 UNK         0.0600 
    228 H228       -5.3341  -23.1769  -54.2968 H         1 UNK         0.0600 
    229 H229       -4.8452  -23.0282  -55.9781 H         1 UNK         0.0600 
    230 H230       -1.3744  -23.3626  -54.5807 H         1 UNK         0.3000 
    231 H231       -0.3637  -22.7661  -57.2094 H         1 UNK         0.0600 
    232 H232        1.0089  -24.0605  -54.7912 H         1 UNK         0.0600 
    233 H233        1.6077  -24.0726  -56.4436 H         1 UNK         0.0600 
    234 H234        0.1166  -24.9138  -56.0502 H         1 UNK         0.0600 
    235 H235        0.3443  -21.5440  -53.9266 H         1 UNK         0.3000 
    236 H236        2.5061  -19.8314  -54.6335 H         1 UNK         0.0600 
    237 H237        2.0541  -20.5958  -52.3087 H         1 UNK         0.0600 
    238 H238        2.1031  -18.8415  -52.3922 H         1 UNK         0.0600 
    239 H239        0.5553  -19.6711  -52.2744 H         1 UNK         0.0600 
    240 H240       -1.0234  -19.1777  -54.2588 H         1 UNK         0.3000 
    241 H241       -0.7630  -16.4154  -54.9868 H         1 UNK         0.0600 
    242 H242       -1.6257  -18.4331  -58.4711 H         1 UNK         0.3800 
    243 H243       -1.6491  -19.3393  -56.9813 H         1 UNK         0.3800 
    244 H244       -2.6546  -17.7006  -53.5768 H         1 UNK         0.0800 
    245 H245       -3.4358  -17.8433  -55.1079 H         1 UNK         0.0800 
    246 H246       -1.3260  -14.7307  -53.2998 H         1 UNK         0.0800 
    247 H247       -2.7465  -13.9478  -52.6601 H         1 UNK         0.0800 
@<TRIPOS>BOND
     1    1    2 1    
     2    1  127 1    
     3    1  128 1    
     4    1  129 1    
     5    2    3 2    
     6    2    4 am   BACKBONE|DICT|INTERRES
     7    4    5 1    
     8    4  130 1    
     9    5    6 1    
    10    5   65 1    
    11    5  131 1    
    12    6    7 1    
    13    6  132 1    
    14    6  133 1    
    15    7    8 1    
    16    8    9 1    
    17    8  134 1    
    18    8  135 1    
    19    9   10 ar   
    20    9   14 ar   
    21   10   11 ar   
    22   10  136 1    
    23   11   12 ar   
    24   11  126 1    
    25   12   13 ar   
    26   12  137 1    
    27   13   14 ar   
    28   13   15 1    
    29   14  138 1    
    30   15   16 1    
    31   15  139 1    
    32   15  140 1    
    33   16   17 1    
    34   17   18 1    
    35   17  141 1    
    36   17  142 1    
    37   18   19 1    
    38   18   67 1    
    39   18  143 1    
    40   19   20 am   BACKBONE|DICT|INTERRES
    41   19  144 1    
    42   20   21 2    
    43   20   22 1    
    44   22   23 1    
    45   22   24 1    
    46   22  145 1    
    47   23  146 1    
    48   23  147 1    
    49   23  148 1    
    50   24   25 am   BACKBONE|DICT|INTERRES
    51   24  149 1    
    52   25   26 2    
    53   25   27 1    
    54   27   28 1    
    55   27   29 1    
    56   27  150 1    
    57   28  151 1    
    58   28  152 1    
    59   28  153 1    
    60   29   30 am   BACKBONE|DICT|INTERRES
    61   29  154 1    
    62   30   31 2    
    63   30   32 1    
    64   32   33 1    
    65   32   34 1    
    66   32  155 1    
    67   33  156 1    
    68   33  157 1    
    69   33  158 1    
    70   34   35 am   BACKBONE|DICT|INTERRES
    71   34  159 1    
    72   35   36 2    
    73   35   37 1    
    74   37   38 1    
    75   37   39 1    
    76   37  160 1    
    77   38  161 1    
    78   38  162 1    
    79   38  163 1    
    80   39   40 am   BACKBONE|DICT|INTERRES
    81   39  164 1    
    82   40   41 2    
    83   40   42 1    
    84   42   43 1    
    85   42   44 1    
    86   42  165 1    
    87   43  166 1    
    88   43  167 1    
    89   43  168 1    
    90   44   45 am   BACKBONE|DICT|INTERRES
    91   44  169 1    
    92   45   46 2    
    93   45   47 1    
    94   47   48 1    
    95   47   49 1    
    96   47  170 1    
    97   48  171 1    
    98   48  172 1    
    99   48  173 1    
   100   49   50 am   BACKBONE|DICT|INTERRES
   101   49  174 1    
   102   50   51 2    
   103   50   52 1    
   104   52   53 1    
   105   52   54 1    
   106   52  175 1    
   107   53  176 1    
   108   53  177 1    
   109   53  178 1    
   110   54   55 am   BACKBONE|DICT|INTERRES
   111   54  179 1    
   112   55   56 2    
   113   55   57 1    
   114   57   58 1    
   115   57   59 1    
   116   57  180 1    
   117   58  181 1    
   118   58  182 1    
   119   58  183 1    
   120   59   60 am   BACKBONE|DICT|INTERRES
   121   59  184 1    
   122   60   61 2    
   123   60   62 1    
   124   62   63 1    
   125   62   64 1    
   126   62  185 1    
   127   63  186 1    
   128   63  187 1    
   129   63  188 1    
   130   64   65 am   BACKBONE|DICT|INTERRES
   131   64  189 1    
   132   65   66 2    
   133   67   68 2    
   134   67   69 am   BACKBONE|DICT|INTERRES
   135   69   70 1    
   136   69  190 1    
   137   70   71 1    
   138   70   72 1    
   139   70  191 1    
   140   71  192 1    
   141   71  193 1    
   142   71  194 1    
   143   72   73 2    
   144   72   74 am   BACKBONE|DICT|INTERRES
   145   74   75 1    
   146   74  195 1    
   147   75   76 1    
   148   75   77 1    
   149   75  196 1    
   150   76  197 1    
   151   76  198 1    
   152   76  199 1    
   153   77   78 2    
   154   77   79 am   BACKBONE|DICT|INTERRES
   155   79   80 1    
   156   79  200 1    
   157   80   81 1    
   158   80   82 1    
   159   80  201 1    
   160   81  202 1    
   161   81  203 1    
   162   81  204 1    
   163   82   83 2    
   164   82   84 am   BACKBONE|DICT|INTERRES
   165   84   85 1    
   166   84  205 1    
   167   85   86 1    
   168   85   87 1    
   169   85  206 1    
   170   86  207 1    
   171   86  208 1    
   172   86  209 1    
   173   87   88 2    
   174   87   89 am   BACKBONE|DICT|INTERRES
   175   89   90 1    
   176   89  210 1    
   177   90   91 1    
   178   90   92 1    
   179   90  211 1    
   180   91  212 1    
   181   91  213 1    
   182   91  214 1    
   183   92   93 2    
   184   92   94 am   BACKBONE|DICT|INTERRES
   185   94   95 1    
   186   94  215 1    
   187   95   96 1    
   188   95   97 1    
   189   95  216 1    
   190   96  217 1    
   191   96  218 1    
   192   96  219 1    
   193   97   98 2    
   194   97   99 am   BACKBONE|DICT|INTERRES
   195   99  100 1    
   196   99  220 1    
   197  100  101 1    
   198  100  102 1    
   199  100  221 1    
   200  101  222 1    
   201  101  223 1    
   202  101  224 1    
   203  102  103 2    
   204  102  104 am   BACKBONE|DICT|INTERRES
   205  104  105 1    
   206  104  225 1    
   207  105  106 1    
   208  105  107 1    
   209  105  226 1    
   210  106  227 1    
   211  106  228 1    
   212  106  229 1    
   213  107  108 2    
   214  107  109 am   BACKBONE|DICT|INTERRES
   215  109  110 1    
   216  109  230 1    
   217  110  111 1    
   218  110  112 1    
   219  110  231 1    
   220  111  232 1    
   221  111  233 1    
   222  111  234 1    
   223  112  113 2    
   224  112  114 am   BACKBONE|DICT|INTERRES
   225  114  115 1    
   226  114  235 1    
   227  115  116 1    
   228  115  117 1    
   229  115  236 1    
   230  116  237 1    
   231  116  238 1    
   232  116  239 1    
   233  117  118 2    
   234  117  119 am   BACKBONE|DICT|INTERRES
   235  119  120 1    
   236  119  240 1    
   237  120  121 1    
   238  120  124 1    
   239  120  241 1    
   240  121  122 am   BACKBONE|DICT|INTERRES
   241  121  123 2    
   242  122  242 1    
   243  122  243 1    
   244  124  125 1    
   245  124  244 1    
   246  124  245 1    
   247  125  126 1    
   248  126  246 1    
   249  126  247 1    
@<TRIPOS>SUBSTRUCTURE
     1 UNK         1 GROUP             0       ****    0 ROOT    
