@<TRIPOS>MOLECULE
3R540
247   249    1
SMALL
USER_CHARGES


@<TRIPOS>ATOM
      1 CA          0.1496   -8.5495  -47.7668 C.3       0 UNK        -0.1800 
      2 C           0.1071  -10.0160  -47.3626 C.2       0 UNK         0.5000 
      3 O           1.1566  -10.6467  -47.2274 O.2       0 UNK        -0.5000 
      4 N          -1.0987  -10.5627  -47.1594 N.am      1 UNK        -0.5000 
      5 CA         -1.3448  -11.9484  -46.7464 C.3       1 UNK         0.1400 
      6 C6         -2.7348  -12.4396  -47.2259 C.3       23 UNK        -0.0398 
      7 S7         -2.8286  -14.2601  -47.2950 S.3       23 UNK        -0.2404 
      8 C8         -2.7841  -14.5495  -49.0913 C.3       23 UNK        -0.0205 
      9 C9         -2.7232  -16.0365  -49.3944 C.ar      23 UNK        -0.0193 
     10 C10        -1.5361  -16.6232  -49.8422 C.ar      23 UNK        -0.1150 
     11 C11        -1.4740  -17.9976  -50.0865 C.ar      23 UNK        -0.0193 
     12 C12        -2.6040  -18.7885  -49.8646 C.ar      23 UNK        -0.1150 
     13 C13        -3.7966  -18.2111  -49.4199 C.ar      23 UNK        -0.0193 
     14 C14        -3.8559  -16.8319  -49.2067 C.ar      23 UNK        -0.1150 
     15 C15        -5.0045  -19.0859  -49.1245 C.3       23 UNK        -0.0205 
     16 S16        -5.5361  -19.0121  -47.3786 S.3       23 UNK        -0.2404 
     17 C17        -3.9623  -19.1918  -46.4677 C.3       23 UNK        -0.0398 
     18 CA         -3.3878  -20.6287  -46.5128 C.3       11 UNK         0.1400 
     19 N          -1.9251  -20.6267  -46.4026 N.am      11 UNK        -0.5000 
     20 C          -1.1400  -21.7055  -46.5359 C.2       10 UNK         0.5000 
     21 O          -1.5562  -22.8324  -46.7946 O.2       10 UNK        -0.5000 
     22 CA          0.3619  -21.5088  -46.2687 C.3       10 UNK         0.1400 
     23 CB          1.0671  -20.9155  -47.4969 C.3       10 UNK        -0.1800 
     24 N           0.6110  -20.6704  -45.0964 N.am      10 UNK        -0.5000 
     25 C           0.2450  -20.9886  -43.8459 C.2       9 UNK         0.5000 
     26 O          -0.2773  -22.0598  -43.5392 O.2       9 UNK        -0.5000 
     27 CA          0.4359  -19.9057  -42.7692 C.3       9 UNK         0.1400 
     28 CB          1.8978  -19.8388  -42.3022 C.3       9 UNK        -0.1800 
     29 N           0.0024  -18.5884  -43.2362 N.am      9 UNK        -0.5000 
     30 C          -1.2686  -18.2622  -43.5159 C.2       8 UNK         0.5000 
     31 O          -2.2203  -19.0269  -43.3633 O.2       8 UNK        -0.5000 
     32 CA         -1.5110  -16.8610  -44.1075 C.3       8 UNK         0.1400 
     33 CB         -1.7889  -15.8422  -42.9947 C.3       8 UNK        -0.1800 
     34 N          -0.3933  -16.4053  -44.9373 N.am      8 UNK        -0.5000 
     35 C          -0.0804  -16.9642  -46.1153 C.2       7 UNK         0.5000 
     36 O          -0.6961  -17.9092  -46.6081 O.2       7 UNK        -0.5000 
     37 CA          1.1796  -16.4283  -46.8097 C.3       7 UNK         0.1400 
     38 CB          0.9591  -15.0173  -47.3719 C.3       7 UNK        -0.1800 
     39 N           2.3213  -16.4004  -45.9003 N.am      7 UNK        -0.5000 
     40 C           2.9570  -17.4788  -45.4261 C.2       6 UNK         0.5000 
     41 O           2.6026  -18.6301  -45.6757 O.2       6 UNK        -0.5000 
     42 CA          4.1567  -17.2482  -44.4834 C.3       6 UNK         0.1400 
     43 CB          5.3666  -18.1289  -44.8542 C.3       6 UNK        -0.1800 
     44 N           4.5411  -15.8400  -44.3316 N.am      6 UNK        -0.5000 
     45 C           5.0819  -15.0136  -45.2419 C.2       5 UNK         0.5000 
     46 O           5.4026  -15.3612  -46.3782 O.2       5 UNK        -0.5000 
     47 CA          5.2492  -13.5339  -44.8355 C.3       5 UNK         0.1400 
     48 CB          4.3623  -12.6348  -45.7142 C.3       5 UNK        -0.1800 
     49 N           4.9058  -13.2927  -43.4327 N.am      5 UNK        -0.5000 
     50 C           5.7308  -13.4750  -42.3926 C.2       4 UNK         0.5000 
     51 O           6.9176  -13.7822  -42.5044 O.2       4 UNK        -0.5000 
     52 CA          5.1097  -13.3215  -40.9893 C.3       4 UNK         0.1400 
     53 CB          5.3160  -11.8925  -40.4649 C.3       4 UNK        -0.1800 
     54 N           3.6781  -13.6404  -40.9545 N.am      4 UNK        -0.5000 
     55 C           3.1536  -14.8579  -41.1631 C.2       3 UNK         0.5000 
     56 O           3.8283  -15.8622  -41.3826 O.2       3 UNK        -0.5000 
     57 CA          1.6182  -14.9554  -41.2039 C.3       3 UNK         0.1400 
     58 CB          1.0487  -15.2258  -39.8043 C.3       3 UNK        -0.1800 
     59 N           1.0097  -13.7424  -41.7565 N.am      3 UNK        -0.5000 
     60 C           1.0414  -13.4125  -43.0534 C.2       2 UNK         0.5000 
     61 O           1.4870  -14.1534  -43.9353 O.2       2 UNK        -0.5000 
     62 CA          0.5567  -11.9958  -43.3974 C.3       2 UNK         0.1400 
     63 CB          1.6898  -10.9817  -43.1733 C.3       2 UNK        -0.1800 
     64 N           0.1271  -11.9059  -44.7889 N.am      2 UNK        -0.5000 
     65 C          -1.1201  -12.1115  -45.2235 C.2       1 UNK         0.5000 
     66 O          -2.0640  -12.3641  -44.4731 O.2       1 UNK        -0.5000 
     67 C          -4.0652  -21.5319  -45.4599 C.2       11 UNK         0.5000 
     68 O          -5.0059  -22.2557  -45.7880 O.2       11 UNK        -0.5000 
     69 N          -3.5630  -21.4870  -44.2176 N.am      12 UNK        -0.5000 
     70 CA         -4.0070  -22.3406  -43.1167 C.3       12 UNK         0.1400 
     71 CB         -3.4343  -21.8096  -41.7939 C.3       12 UNK        -0.1800 
     72 C          -3.6299  -23.8192  -43.3245 C.2       12 UNK         0.5000 
     73 O          -4.4148  -24.6975  -42.9640 O.2       12 UNK        -0.5000 
     74 N          -2.4479  -24.0684  -43.9059 N.am      13 UNK        -0.5000 
     75 CA         -1.9549  -25.4030  -44.2425 C.3       13 UNK         0.1400 
     76 CB         -0.4557  -25.3381  -44.5726 C.3       13 UNK        -0.1800 
     77 C          -2.7462  -26.0610  -45.3883 C.2       13 UNK         0.5000 
     78 O          -3.0707  -27.2454  -45.2871 O.2       13 UNK        -0.5000 
     79 N          -3.0580  -25.2949  -46.4418 N.am      14 UNK        -0.5000 
     80 CA         -3.8310  -25.7510  -47.5917 C.3       14 UNK         0.1400 
     81 CB         -2.9191  -26.5105  -48.5700 C.3       14 UNK        -0.1800 
     82 C          -4.5045  -24.5584  -48.2823 C.2       14 UNK         0.5000 
     83 O          -3.8290  -23.5825  -48.6164 O.2       14 UNK        -0.5000 
     84 N          -5.8171  -24.6745  -48.5260 N.am      15 UNK        -0.5000 
     85 CA         -6.6342  -23.6816  -49.2255 C.3       15 UNK         0.1400 
     86 CB         -8.0994  -24.1436  -49.2349 C.3       15 UNK        -0.1800 
     87 C          -6.1197  -23.4460  -50.6568 C.2       15 UNK         0.5000 
     88 O          -6.0763  -24.3882  -51.4513 O.2       15 UNK        -0.5000 
     89 N          -5.6733  -22.2108  -50.9237 N.am      16 UNK        -0.5000 
     90 CA         -5.0040  -21.7542  -52.1501 C.3       16 UNK         0.1400 
     91 CB         -6.0265  -21.6355  -53.2947 C.3       16 UNK        -0.1800 
     92 C          -3.7745  -22.6154  -52.5235 C.2       16 UNK         0.5000 
     93 O          -3.5569  -22.9201  -53.7010 O.2       16 UNK        -0.5000 
     94 N          -3.0456  -23.0650  -51.4878 N.am      17 UNK        -0.5000 
     95 CA         -1.8952  -23.9749  -51.5232 C.3       17 UNK         0.1400 
     96 CB         -0.7065  -23.3028  -52.2406 C.3       17 UNK        -0.1800 
     97 C          -2.2131  -25.3732  -52.1044 C.2       17 UNK         0.5000 
     98 O          -1.2863  -26.1001  -52.4635 O.2       17 UNK        -0.5000 
     99 N          -3.5096  -25.7127  -52.2186 N.am      18 UNK        -0.5000 
    100 CA        -4.0784  -26.8656  -52.9292 C.3       18 UNK         0.1400 
    101 CB        -3.7084  -28.1923  -52.2329 C.3       18 UNK        -0.1800 
    102 C         -3.7592  -26.8760  -54.4430 C.2       18 UNK         0.5000 
    103 O         -3.8288  -27.9323  -55.0739 O.2       18 UNK        -0.5000 
    104 N         -3.4139  -25.7067  -54.9990 N.am      19 UNK        -0.5000 
    105 CA        -2.9402  -25.5320  -56.3727 C.3       19 UNK         0.1400 
    106 CB        -1.4387  -25.1981  -56.3188 C.3       19 UNK        -0.1800 
    107 C         -3.7134  -24.4362  -57.1276 C.2       19 UNK         0.5000 
    108 O         -3.3903  -24.1741  -58.2871 O.2       19 UNK        -0.5000 
    109 N         -4.6912  -23.7996  -56.4618 N.am      20 UNK        -0.5000 
    110 CA        -5.4128  -22.5961  -56.8973 C.3       20 UNK         0.1400 
    111 CB        -6.2819  -22.8821  -58.1405 C.3       20 UNK        -0.1800 
    112 C         -4.4611  -21.3912  -57.0775 C.2       20 UNK         0.5000 
    113 O         -4.6169  -20.6092  -58.0176 O.2       20 UNK        -0.5000 
    114 N         -3.4719  -21.2905  -56.1815 N.am      21 UNK        -0.5000 
    115 CA        -2.3894  -20.3134  -56.2101 C.3       21 UNK         0.1400 
    116 CB        -1.0585  -21.0841  -56.1895 C.3       21 UNK        -0.1800 
    117 C         -2.4743  -19.3742  -54.9976 C.2       21 UNK         0.5000 
    118 O         -3.1596  -19.6886  -54.0223 O.2       21 UNK        -0.5000 
    119 N         -1.7480  -18.2522  -55.0946 N.am      22 UNK        -0.5000 
    120 CA        -1.4602  -17.2031  -54.0905 C.3       22 UNK         0.1400 
    121 C         -2.6362  -16.5532  -53.2969 C.2       22 UNK         0.5000 
    122 N         -3.7993  -17.1726  -53.1811 N.am      22 UNK        -0.7600 
    123 O         -2.4997  -15.4271  -52.8265 O.2       22 UNK        -0.5000 
    124 C124       -0.2289  -17.5292  -53.1928 C.3       23 UNK        -0.0398 
    125 S125       -0.2737  -19.1332  -52.3141 S.3       23 UNK        -0.2404 
    126 C126       -0.1822  -18.6372  -50.5664 C.3       23 UNK        -0.0205 
    127 H127        0.7067   -7.9735  -47.0279 H         1 UNK         0.0600 
    128 H128        0.6464   -8.4408  -48.7308 H         1 UNK         0.0600 
    129 H129       -0.8500   -8.1219  -47.8488 H         1 UNK         0.0600 
    130 H130       -1.9206   -9.9825  -47.2515 H         1 UNK         0.3000 
    131 H131       -0.5990  -12.5662  -47.2488 H         1 UNK         0.0600 
    132 H132       -3.5379  -12.0604  -46.5917 H         1 UNK         0.0800 
    133 H133       -2.9439  -12.0490  -48.2228 H         1 UNK         0.0800 
    134 H134       -1.9243  -14.0357  -49.5240 H         1 UNK         0.0800 
    135 H135       -3.6725  -14.1190  -49.5556 H         1 UNK         0.0800 
    136 H136       -0.6608  -16.0109  -50.0022 H         1 UNK         0.1150 
    137 H137       -2.5464  -19.8545  -50.0338 H         1 UNK         0.1150 
    138 H138       -4.7723  -16.3833  -48.8500 H         1 UNK         0.1150 
    139 H139       -5.8333  -18.7830  -49.7656 H         1 UNK         0.0800 
    140 H140       -4.7836  -20.1234  -49.3691 H         1 UNK         0.0800 
    141 H141       -4.1179  -18.8597  -45.4396 H         1 UNK         0.0800 
    142 H142       -3.2479  -18.4792  -46.8778 H         1 UNK         0.0800 
    143 H143       -3.6051  -21.0607  -47.4911 H         1 UNK         0.0600 
    144 H144       -1.4824  -19.7268  -46.2435 H         1 UNK         0.3000 
    145 H145        0.7953  -22.4918  -46.0735 H         1 UNK         0.0600 
    146 H146        2.1475  -20.8909  -47.3548 H         1 UNK         0.0600 
    147 H147        0.8686  -21.5103  -48.3895 H         1 UNK         0.0600 
    148 H148        0.7360  -19.8967  -47.6969 H         1 UNK         0.0600 
    149 H149        1.0888  -19.7908  -45.2681 H         1 UNK         0.3000 
    150 H150       -0.1816  -20.1756  -41.9098 H         1 UNK         0.0600 
    151 H151        2.2036  -20.7867  -41.8578 H         1 UNK         0.0600 
    152 H152        2.0394  -19.0652  -41.5470 H         1 UNK         0.0600 
    153 H153        2.5794  -19.6345  -43.1272 H         1 UNK         0.0600 
    154 H154        0.7221  -17.9096  -43.4275 H         1 UNK         0.3000 
    155 H155       -2.3986  -16.9157  -44.7416 H         1 UNK         0.0600 
    156 H156       -0.9634  -15.7780  -42.2884 H         1 UNK         0.0600 
    157 H157       -2.6788  -16.1207  -42.4290 H         1 UNK         0.0600 
    158 H158       -1.9636  -14.8476  -43.4037 H         1 UNK         0.0600 
    159 H159        0.1778  -15.6436  -44.5882 H         1 UNK         0.3000 
    160 H160        1.4124  -17.0967  -47.6416 H         1 UNK         0.0600 
    161 H161        1.8087  -14.6975  -47.9753 H         1 UNK         0.0600 
    162 H162        0.8253  -14.2873  -46.5745 H         1 UNK         0.0600 
    163 H163        0.0752  -14.9787  -48.0067 H         1 UNK         0.0600 
    164 H164        2.6217  -15.4907  -45.5797 H         1 UNK         0.3000 
    165 H165        3.8194  -17.5649  -43.4964 H         1 UNK         0.0600 
    166 H166        6.2005  -17.9607  -44.1728 H         1 UNK         0.0600 
    167 H167        5.1100  -19.1874  -44.7960 H         1 UNK         0.0600 
    168 H168        5.7155  -17.9367  -45.8689 H         1 UNK         0.0600 
    169 H169        4.3376  -15.4559  -43.4174 H         1 UNK         0.3000 
    170 H170        6.2924  -13.2598  -45.0060 H         1 UNK         0.0600 
    171 H171        3.3050  -12.8817  -45.6107 H         1 UNK         0.0600 
    172 H172        4.4887  -11.5829  -45.4576 H         1 UNK         0.0600 
    173 H173        4.6189  -12.7407  -46.7690 H         1 UNK         0.0600 
    174 H174        3.9450  -13.0520  -43.2429 H         1 UNK         0.3000 
    175 H175        5.6278  -14.0124  -40.3208 H         1 UNK         0.0600 
    176 H176        4.8016  -11.1571  -41.0849 H         1 UNK         0.0600 
    177 H177        4.9470  -11.7894  -39.4442 H         1 UNK         0.0600 
    178 H178        6.3747  -11.6296  -40.4539 H         1 UNK         0.0600 
    179 H179        3.0507  -12.8724  -40.7693 H         1 UNK         0.3000 
    180 H180        1.3623  -15.8020  -41.8444 H         1 UNK         0.0600 
    181 H181        1.2677  -14.4104  -39.1137 H         1 UNK         0.0600 
    182 H182        1.4718  -16.1378  -39.3810 H         1 UNK         0.0600 
    183 H183       -0.0331  -15.3562  -39.8377 H         1 UNK         0.0600 
    184 H184        0.6130  -13.0935  -41.0916 H         1 UNK         0.3000 
    185 H185       -0.2742  -11.7392  -42.7366 H         1 UNK         0.0600 
    186 H186        2.0352  -10.9930  -42.1389 H         1 UNK         0.0600 
    187 H187        2.5499  -11.1860  -43.8109 H         1 UNK         0.0600 
    188 H188        1.3535   -9.9670  -43.3880 H         1 UNK         0.0600 
    189 H189        0.8370  -11.6758  -45.4757 H         1 UNK         0.3000 
    190 H190       -2.8333  -20.8138  -44.0056 H         1 UNK         0.3000 
    191 H191       -5.0959  -22.2802  -43.0615 H         1 UNK         0.0600 
    192 H192       -2.3443  -21.8255  -41.7900 H         1 UNK         0.0600 
    193 H193       -3.7747  -22.4125  -40.9512 H         1 UNK         0.0600 
    194 H194       -3.7534  -20.7835  -41.6103 H         1 UNK         0.0600 
    195 H195       -1.8356  -23.2885  -44.1192 H         1 UNK         0.3000 
    196 H196       -2.0712  -26.0323  -43.3575 H         1 UNK         0.0600 
    197 H197       -0.0585  -26.3336  -44.7739 H         1 UNK         0.0600 
    198 H198        0.1136  -24.9222  -43.7411 H         1 UNK         0.0600 
    199 H199       -0.2596  -24.7248  -45.4515 H         1 UNK         0.0600 
    200 H200       -2.7293  -24.3313  -46.4875 H         1 UNK         0.3000 
    201 H201       -4.6137  -26.4298  -47.2458 H         1 UNK         0.0600 
    202 H202       -2.5439  -27.4340  -48.1292 H         1 UNK         0.0600 
    203 H203       -2.0598  -25.9082  -48.8653 H         1 UNK         0.0600 
    204 H204       -3.4617  -26.7794  -49.4748 H         1 UNK         0.0600 
    205 H205       -6.2915  -25.5215  -48.2499 H         1 UNK         0.3000 
    206 H206       -6.5744  -22.7472  -48.6629 H         1 UNK         0.0600 
    207 H207       -8.4836  -24.2587  -48.2212 H         1 UNK         0.0600 
    208 H208       -8.7340  -23.4155  -49.7417 H         1 UNK         0.0600 
    209 H209       -8.2186  -25.0977  -49.7503 H         1 UNK         0.0600 
    210 H210       -5.7449  -21.5229  -50.1896 H         1 UNK         0.3000 
    211 H211       -4.6218  -20.7538  -51.9415 H         1 UNK         0.0600 
    212 H212       -6.3748  -22.6131  -53.6292 H         1 UNK         0.0600 
    213 H213       -5.5860  -21.1214  -54.1480 H         1 UNK         0.0600 
    214 H214       -6.8968  -21.0557  -52.9879 H         1 UNK         0.0600 
    215 H215       -3.3637  -22.8376  -50.5515 H         1 UNK         0.3000 
    216 H216       -1.6068  -24.1344  -50.4837 H         1 UNK         0.0600 
    217 H217       -0.8938  -23.1833  -53.3078 H         1 UNK         0.0600 
    218 H218        0.2032  -23.8944  -52.1335 H         1 UNK         0.0600 
    219 H219       -0.5010  -22.3164  -51.8244 H         1 UNK         0.0600 
    220 H220       -4.2030  -25.0480  -51.8900 H         1 UNK         0.3000 
    221 H221       -5.1612  -26.7531  -52.8593 H         1 UNK         0.0600 
    222 H222       -2.6358  -28.3840  -52.2620 H         1 UNK         0.0600 
    223 H223       -4.0244  -28.1937  -51.1910 H         1 UNK         0.0600 
    224 H224       -4.2024  -29.0387  -52.7113 H         1 UNK         0.0600 
    225 H225       -3.3764  -24.8823  -54.4085 H         1 UNK         0.3000 
    226 H226       -3.0694  -26.4518  -56.9461 H         1 UNK         0.0600 
    227 H227       -0.8782  -25.9880  -55.8182 H         1 UNK         0.0600 
    228 H228       -1.0201  -25.0881  -57.3199 H         1 UNK         0.0600 
    229 H229       -1.2560  -24.2673  -55.7802 H         1 UNK         0.0600 
    230 H230       -4.8661  -24.0888  -55.5103 H         1 UNK         0.3000 
    231 H231       -6.0937  -22.3342  -56.0886 H         1 UNK         0.0600 
    232 H232       -6.9276  -23.7453  -57.9797 H         1 UNK         0.0600 
    233 H233       -5.6778  -23.0750  -59.0272 H         1 UNK         0.0600 
    234 H234       -6.9274  -22.0327  -58.3666 H         1 UNK         0.0600 
    235 H235       -3.4683  -21.9159  -55.3801 H         1 UNK         0.3000 
    236 H236       -2.4361  -19.7110  -57.1195 H         1 UNK         0.0600 
    237 H237       -0.2063  -20.4062  -56.2481 H         1 UNK         0.0600 
    238 H238       -0.9498  -21.6689  -55.2751 H         1 UNK         0.0600 
    239 H239       -0.9873  -21.7694  -57.0345 H         1 UNK         0.0600 
    240 H240       -1.2654  -18.1078  -55.9696 H         1 UNK         0.3000 
    241 H241       -1.1304  -16.3760  -54.7211 H         1 UNK         0.0600 
    242 H242       -3.8550  -18.1403  -53.4913 H         1 UNK         0.3800 
    243 H243       -4.5547  -16.7448  -52.6725 H         1 UNK         0.3800 
    244 H244        0.6613  -17.5509  -53.8223 H         1 UNK         0.0800 
    245 H245       -0.0469  -16.7228  -52.4808 H         1 UNK         0.0800 
    246 H246        0.0157  -19.5258  -49.9669 H         1 UNK         0.0800 
    247 H247        0.6682  -17.9708  -50.4147 H         1 UNK         0.0800 
@<TRIPOS>BOND
     1    1    2 1    
     2    1  127 1    
     3    1  128 1    
     4    1  129 1    
     5    2    3 2    
     6    2    4 am   BACKBONE|DICT|INTERRES
     7    4    5 1    
     8    4  130 1    
     9    5    6 1    
    10    5   65 1    
    11    5  131 1    
    12    6    7 1    
    13    6  132 1    
    14    6  133 1    
    15    7    8 1    
    16    8    9 1    
    17    8  134 1    
    18    8  135 1    
    19    9   10 ar   
    20    9   14 ar   
    21   10   11 ar   
    22   10  136 1    
    23   11   12 ar   
    24   11  126 1    
    25   12   13 ar   
    26   12  137 1    
    27   13   14 ar   
    28   13   15 1    
    29   14  138 1    
    30   15   16 1    
    31   15  139 1    
    32   15  140 1    
    33   16   17 1    
    34   17   18 1    
    35   17  141 1    
    36   17  142 1    
    37   18   19 1    
    38   18   67 1    
    39   18  143 1    
    40   19   20 am   BACKBONE|DICT|INTERRES
    41   19  144 1    
    42   20   21 2    
    43   20   22 1    
    44   22   23 1    
    45   22   24 1    
    46   22  145 1    
    47   23  146 1    
    48   23  147 1    
    49   23  148 1    
    50   24   25 am   BACKBONE|DICT|INTERRES
    51   24  149 1    
    52   25   26 2    
    53   25   27 1    
    54   27   28 1    
    55   27   29 1    
    56   27  150 1    
    57   28  151 1    
    58   28  152 1    
    59   28  153 1    
    60   29   30 am   BACKBONE|DICT|INTERRES
    61   29  154 1    
    62   30   31 2    
    63   30   32 1    
    64   32   33 1    
    65   32   34 1    
    66   32  155 1    
    67   33  156 1    
    68   33  157 1    
    69   33  158 1    
    70   34   35 am   BACKBONE|DICT|INTERRES
    71   34  159 1    
    72   35   36 2    
    73   35   37 1    
    74   37   38 1    
    75   37   39 1    
    76   37  160 1    
    77   38  161 1    
    78   38  162 1    
    79   38  163 1    
    80   39   40 am   BACKBONE|DICT|INTERRES
    81   39  164 1    
    82   40   41 2    
    83   40   42 1    
    84   42   43 1    
    85   42   44 1    
    86   42  165 1    
    87   43  166 1    
    88   43  167 1    
    89   43  168 1    
    90   44   45 am   BACKBONE|DICT|INTERRES
    91   44  169 1    
    92   45   46 2    
    93   45   47 1    
    94   47   48 1    
    95   47   49 1    
    96   47  170 1    
    97   48  171 1    
    98   48  172 1    
    99   48  173 1    
   100   49   50 am   BACKBONE|DICT|INTERRES
   101   49  174 1    
   102   50   51 2    
   103   50   52 1    
   104   52   53 1    
   105   52   54 1    
   106   52  175 1    
   107   53  176 1    
   108   53  177 1    
   109   53  178 1    
   110   54   55 am   BACKBONE|DICT|INTERRES
   111   54  179 1    
   112   55   56 2    
   113   55   57 1    
   114   57   58 1    
   115   57   59 1    
   116   57  180 1    
   117   58  181 1    
   118   58  182 1    
   119   58  183 1    
   120   59   60 am   BACKBONE|DICT|INTERRES
   121   59  184 1    
   122   60   61 2    
   123   60   62 1    
   124   62   63 1    
   125   62   64 1    
   126   62  185 1    
   127   63  186 1    
   128   63  187 1    
   129   63  188 1    
   130   64   65 am   BACKBONE|DICT|INTERRES
   131   64  189 1    
   132   65   66 2    
   133   67   68 2    
   134   67   69 am   BACKBONE|DICT|INTERRES
   135   69   70 1    
   136   69  190 1    
   137   70   71 1    
   138   70   72 1    
   139   70  191 1    
   140   71  192 1    
   141   71  193 1    
   142   71  194 1    
   143   72   73 2    
   144   72   74 am   BACKBONE|DICT|INTERRES
   145   74   75 1    
   146   74  195 1    
   147   75   76 1    
   148   75   77 1    
   149   75  196 1    
   150   76  197 1    
   151   76  198 1    
   152   76  199 1    
   153   77   78 2    
   154   77   79 am   BACKBONE|DICT|INTERRES
   155   79   80 1    
   156   79  200 1    
   157   80   81 1    
   158   80   82 1    
   159   80  201 1    
   160   81  202 1    
   161   81  203 1    
   162   81  204 1    
   163   82   83 2    
   164   82   84 am   BACKBONE|DICT|INTERRES
   165   84   85 1    
   166   84  205 1    
   167   85   86 1    
   168   85   87 1    
   169   85  206 1    
   170   86  207 1    
   171   86  208 1    
   172   86  209 1    
   173   87   88 2    
   174   87   89 am   BACKBONE|DICT|INTERRES
   175   89   90 1    
   176   89  210 1    
   177   90   91 1    
   178   90   92 1    
   179   90  211 1    
   180   91  212 1    
   181   91  213 1    
   182   91  214 1    
   183   92   93 2    
   184   92   94 am   BACKBONE|DICT|INTERRES
   185   94   95 1    
   186   94  215 1    
   187   95   96 1    
   188   95   97 1    
   189   95  216 1    
   190   96  217 1    
   191   96  218 1    
   192   96  219 1    
   193   97   98 2    
   194   97   99 am   BACKBONE|DICT|INTERRES
   195   99  100 1    
   196   99  220 1    
   197  100  101 1    
   198  100  102 1    
   199  100  221 1    
   200  101  222 1    
   201  101  223 1    
   202  101  224 1    
   203  102  103 2    
   204  102  104 am   BACKBONE|DICT|INTERRES
   205  104  105 1    
   206  104  225 1    
   207  105  106 1    
   208  105  107 1    
   209  105  226 1    
   210  106  227 1    
   211  106  228 1    
   212  106  229 1    
   213  107  108 2    
   214  107  109 am   BACKBONE|DICT|INTERRES
   215  109  110 1    
   216  109  230 1    
   217  110  111 1    
   218  110  112 1    
   219  110  231 1    
   220  111  232 1    
   221  111  233 1    
   222  111  234 1    
   223  112  113 2    
   224  112  114 am   BACKBONE|DICT|INTERRES
   225  114  115 1    
   226  114  235 1    
   227  115  116 1    
   228  115  117 1    
   229  115  236 1    
   230  116  237 1    
   231  116  238 1    
   232  116  239 1    
   233  117  118 2    
   234  117  119 am   BACKBONE|DICT|INTERRES
   235  119  120 1    
   236  119  240 1    
   237  120  121 1    
   238  120  124 1    
   239  120  241 1    
   240  121  122 am   BACKBONE|DICT|INTERRES
   241  121  123 2    
   242  122  242 1    
   243  122  243 1    
   244  124  125 1    
   245  124  244 1    
   246  124  245 1    
   247  125  126 1    
   248  126  246 1    
   249  126  247 1    
@<TRIPOS>SUBSTRUCTURE
     1 UNK         1 GROUP             0       ****    0 ROOT    
