@<TRIPOS>MOLECULE
3R540
247   249    1
SMALL
USER_CHARGES


@<TRIPOS>ATOM
      1 CA          1.3827  -13.4854  -47.8005 C.3       0 UNK        -0.1800 
      2 C           2.2231  -14.2732  -46.8002 C.2       0 UNK         0.5000 
      3 O           1.6652  -14.9860  -45.9706 O.2       0 UNK        -0.5000 
      4 N           3.5598  -14.2064  -46.8406 N.am      1 UNK        -0.5000 
      5 CA          4.3796  -13.4453  -47.7934 C.3       1 UNK         0.1400 
      6 C6          5.8008  -14.0483  -47.9513 C.3       23 UNK        -0.0398 
      7 S7          5.8344  -15.8583  -48.2015 S.3       23 UNK        -0.2404 
      8 C8          5.4088  -16.0252  -49.9613 C.3       23 UNK        -0.0205 
      9 C9          4.1390  -16.8432  -50.1508 C.ar      23 UNK        -0.0193 
     10 C10         2.9168  -16.2088  -50.3861 C.ar      23 UNK        -0.1150 
     11 C11         1.7590  -16.9587  -50.6139 C.ar      23 UNK        -0.0193 
     12 C12         1.8260  -18.3557  -50.5970 C.ar      23 UNK        -0.1150 
     13 C13         3.0418  -19.0032  -50.3568 C.ar      23 UNK        -0.0193 
     14 C14         4.1924  -18.2404  -50.1288 C.ar      23 UNK        -0.1150 
     15 C15         3.1310  -20.5229  -50.3930 C.3       23 UNK        -0.0205 
     16 S16         2.6636  -21.2824  -48.8055 S.3       23 UNK        -0.2404 
     17 C17         0.8888  -21.6307  -49.0557 C.3       23 UNK        -0.0398 
     18 CA          0.3822  -22.7513  -48.1138 C.3       11 UNK         0.1400 
     19 N           0.3828  -22.3439  -46.7059 N.am      11 UNK        -0.5000 
     20 C           0.1186  -23.1466  -45.6659 C.2       10 UNK         0.5000 
     21 O          -0.0942  -24.3539  -45.7695 O.2       10 UNK        -0.5000 
     22 CA          0.0127  -22.4779  -44.2844 C.3       10 UNK         0.1400 
     23 CB          1.3993  -22.2584  -43.6603 C.3       10 UNK        -0.1800 
     24 N          -0.7158  -21.2101  -44.3488 N.am      10 UNK        -0.5000 
     25 C          -2.0331  -21.1114  -44.5773 C.2       9 UNK         0.5000 
     26 O          -2.7738  -22.0843  -44.7163 O.2       9 UNK        -0.5000 
     27 CA         -2.6174  -19.6925  -44.7074 C.3       9 UNK         0.1400 
     28 CB         -2.9515  -19.1171  -43.3236 C.3       9 UNK        -0.1800 
     29 N          -1.7262  -18.7739  -45.4159 N.am      9 UNK        -0.5000 
     30 C          -1.4006  -18.8915  -46.7112 C.2       8 UNK         0.5000 
     31 O          -1.8526  -19.7614  -47.4551 O.2       8 UNK        -0.5000 
     32 CA         -0.3501  -17.9105  -47.2581 C.3       8 UNK         0.1400 
     33 CB         -0.9989  -16.5730  -47.6307 C.3       8 UNK        -0.1800 
     34 N           0.7622  -17.6699  -46.3397 N.am      8 UNK        -0.5000 
     35 C           1.5742  -18.6144  -45.8447 C.2       7 UNK         0.5000 
     36 O           1.4366  -19.8143  -46.0646 O.2       7 UNK        -0.5000 
     37 CA          2.7082  -18.1489  -44.9238 C.3       7 UNK         0.1400 
     38 CB          3.9181  -17.7043  -45.7557 C.3       7 UNK        -0.1800 
     39 N           2.2567  -17.0531  -44.0673 N.am      7 UNK        -0.5000 
     40 C           1.7615  -17.2263  -42.8359 C.2       6 UNK         0.5000 
     41 O           1.7133  -18.3157  -42.2631 O.2       6 UNK        -0.5000 
     42 CA          1.2126  -15.9777  -42.1219 C.3       6 UNK         0.1400 
     43 CB          2.3430  -15.2213  -41.4077 C.3       6 UNK        -0.1800 
     44 N           0.5001  -15.0464  -42.9963 N.am      6 UNK        -0.5000 
     45 C          -0.6198  -15.3066  -43.6819 C.2       5 UNK         0.5000 
     46 O          -1.1293  -16.4269  -43.7399 O.2       5 UNK        -0.5000 
     47 CA         -1.2922  -14.1142  -44.4050 C.3       5 UNK         0.1400 
     48 CB         -2.7821  -14.3794  -44.6964 C.3       5 UNK        -0.1800 
     49 N          -1.1958  -12.8471  -43.6697 N.am      5 UNK        -0.5000 
     50 C          -0.1202  -12.0558  -43.5893 C.2       4 UNK         0.5000 
     51 O           0.9742  -12.3334  -44.0850 O.2       4 UNK        -0.5000 
     52 CA         -0.2743  -10.7759  -42.7524 C.3       4 UNK         0.1400 
     53 CB          0.2211  -11.0188  -41.3181 C.3       4 UNK        -0.1800 
     54 N           0.5128   -9.7017  -43.3490 N.am      4 UNK        -0.5000 
     55 C           0.0690   -8.8549  -44.2873 C.2       3 UNK         0.5000 
     56 O          -1.1062   -8.7856  -44.6496 O.2       3 UNK        -0.5000 
     57 CA          1.1265   -7.9460  -44.9486 C.3       3 UNK         0.1400 
     58 CB          1.2428   -6.6128  -44.1940 C.3       3 UNK        -0.1800 
     59 N           2.4475   -8.5793  -45.0171 N.am      3 UNK        -0.5000 
     60 C           2.7336   -9.6405  -45.7847 C.2       2 UNK         0.5000 
     61 O           1.9436  -10.1029  -46.6106 O.2       2 UNK        -0.5000 
     62 CA          4.1197  -10.2887  -45.5786 C.3       2 UNK         0.1400 
     63 CB          4.4949  -10.3950  -44.0871 C.3       2 UNK        -0.1800 
     64 N           4.1574  -11.6349  -46.1454 N.am      2 UNK        -0.5000 
     65 C           4.4835  -11.9522  -47.4051 C.2       1 UNK         0.5000 
     66 O           4.8612  -11.1322  -48.2428 O.2       1 UNK        -0.5000 
     67 C          -1.0058  -23.2620  -48.5519 C.2       11 UNK         0.5000 
     68 O          -1.0874  -24.3095  -49.1931 O.2       11 UNK        -0.5000 
     69 N          -2.0726  -22.5503  -48.1586 N.am      12 UNK        -0.5000 
     70 CA         -3.4606  -22.9499  -48.3890 C.3       12 UNK         0.1400 
     71 CB         -4.4069  -21.8138  -47.9813 C.3       12 UNK        -0.1800 
     72 C          -3.8316  -24.2580  -47.6712 C.2       12 UNK         0.5000 
     73 O          -4.4599  -25.1191  -48.2857 O.2       12 UNK        -0.5000 
     74 N          -3.4093  -24.4044  -46.4074 N.am      13 UNK        -0.5000 
     75 CA         -3.5984  -25.6165  -45.6085 C.3       13 UNK         0.1400 
     76 CB         -3.1658  -25.3605  -44.1573 C.3       13 UNK        -0.1800 
     77 C          -2.8640  -26.8348  -46.1967 C.2       13 UNK         0.5000 
     78 O          -3.4603  -27.9071  -46.2982 O.2       13 UNK        -0.5000 
     79 N          -1.6083  -26.6392  -46.6249 N.am      14 UNK        -0.5000 
     80 CA         -0.7866  -27.6481  -47.3005 C.3       14 UNK         0.1400 
     81 CB          0.6405  -27.1090  -47.4791 C.3       14 UNK        -0.1800 
     82 C          -1.3721  -28.0951  -48.6542 C.2       14 UNK         0.5000 
     83 O          -1.2788  -29.2731  -49.0000 O.2       14 UNK        -0.5000 
     84 N          -2.0011  -27.1559  -49.3720 N.am      15 UNK        -0.5000 
     85 CA         -2.7316  -27.3907  -50.6174 C.3       15 UNK         0.1400 
     86 CB         -2.7940  -26.0717  -51.4039 C.3       15 UNK        -0.1800 
     87 C          -4.1516  -27.9568  -50.4057 C.2       15 UNK         0.5000 
     88 O          -4.8534  -28.1713  -51.3933 O.2       15 UNK        -0.5000 
     89 N          -4.5776  -28.1513  -49.1476 N.am      16 UNK        -0.5000 
     90 CA         -5.9050  -28.6167  -48.7260 C.3       16 UNK         0.1400 
     91 CB         -6.1098  -30.0959  -49.1134 C.3       16 UNK        -0.1800 
     92 C          -7.0467  -27.6980  -49.2159 C.2       16 UNK         0.5000 
     93 O          -8.1101  -28.1806  -49.6087 O.2       16 UNK        -0.5000 
     94 N          -6.7808  -26.3839  -49.1998 N.am      17 UNK        -0.5000 
     95 CA         -7.6341  -25.2774  -49.6419 C.3       17 UNK         0.1400 
     96 CB         -8.9396  -25.2170  -48.8218 C.3       17 UNK        -0.1800 
     97 C          -7.8831  -25.2266  -51.1655 C.2       17 UNK         0.5000 
     98 O          -8.7639  -24.4844  -51.6029 O.2       17 UNK        -0.5000 
     99 N          -7.1023  -25.9770  -51.9593 N.am      18 UNK        -0.5000 
    100 CA        -7.1567  -25.9387  -53.4242 C.3       18 UNK         0.1400 
    101 CB        -6.5314  -27.2191  -53.9969 C.3       18 UNK        -0.1800 
    102 C         -6.4596  -24.6948  -54.0092 C.2       18 UNK         0.5000 
    103 O         -6.8199  -24.2575  -55.1031 O.2       18 UNK        -0.5000 
    104 N         -5.4759  -24.1513  -53.2790 N.am      19 UNK        -0.5000 
    105 CA        -4.7666  -22.9213  -53.6258 C.3       19 UNK         0.1400 
    106 CB        -3.4346  -22.8734  -52.8608 C.3       19 UNK        -0.1800 
    107 C         -5.6127  -21.6760  -53.3072 C.2       19 UNK         0.5000 
    108 O         -6.4273  -21.6989  -52.3821 O.2       19 UNK        -0.5000 
    109 N         -5.3645  -20.5951  -54.0559 N.am      20 UNK        -0.5000 
    110 CA        -6.0534  -19.3073  -53.9269 C.3       20 UNK         0.1400 
    111 CB        -5.9137  -18.5477  -55.2569 C.3       20 UNK        -0.1800 
    112 C         -5.5474  -18.4370  -52.7570 C.2       20 UNK         0.5000 
    113 O         -6.1053  -17.3621  -52.5303 O.2       20 UNK        -0.5000 
    114 N         -4.4788  -18.8757  -52.0704 N.am      21 UNK        -0.5000 
    115 CA        -3.8049  -18.1982  -50.9508 C.3       21 UNK         0.1400 
    116 CB        -4.7287  -18.1482  -49.7157 C.3       21 UNK        -0.1800 
    117 C         -3.2593  -16.8037  -51.3333 C.2       21 UNK         0.5000 
    118 O         -3.2327  -15.8989  -50.4986 O.2       21 UNK        -0.5000 
    119 N         -2.8594  -16.6589  -52.6044 N.am      22 UNK        -0.5000 
    120 CA        -2.4551  -15.4028  -53.2608 C.3       22 UNK         0.1400 
    121 C         -3.6112  -14.3700  -53.4536 C.2       22 UNK         0.5000 
    122 N         -4.8767  -14.7311  -53.2699 N.am      22 UNK        -0.7600 
    123 O         -3.3639  -13.2222  -53.8141 O.2       22 UNK        -0.5000 
    124 C124       -1.1821  -14.7584  -52.6413 C.3       23 UNK        -0.0398 
    125 S125        0.2693  -15.8674  -52.6642 S.3       23 UNK        -0.2404 
    126 C126        0.4436  -16.2530  -50.8966 C.3       23 UNK        -0.0205 
    127 H127        1.5149  -13.8790  -48.8066 H         1 UNK         0.0600 
    128 H128        1.6509  -12.4308  -47.8008 H         1 UNK         0.0600 
    129 H129        0.3249  -13.5534  -47.5478 H         1 UNK         0.0600 
    130 H130        4.0882  -14.7608  -46.1837 H         1 UNK         0.3000 
    131 H131        3.9011  -13.4891  -48.7730 H         1 UNK         0.0600 
    132 H132        6.3966  -13.8459  -47.0592 H         1 UNK         0.0800 
    133 H133        6.3305  -13.5693  -48.7768 H         1 UNK         0.0800 
    134 H134        6.2371  -16.5113  -50.4788 H         1 UNK         0.0800 
    135 H135        5.2994  -15.0439  -50.4249 H         1 UNK         0.0800 
    136 H136        2.8697  -15.1298  -50.4165 H         1 UNK         0.1150 
    137 H137        0.9361  -18.9389  -50.7867 H         1 UNK         0.1150 
    138 H138        5.1375  -18.7340  -49.9510 H         1 UNK         0.1150 
    139 H139        2.5170  -20.9157  -51.2042 H         1 UNK         0.0800 
    140 H140        4.1534  -20.8244  -50.6260 H         1 UNK         0.0800 
    141 H141        0.7410  -21.9213  -50.0972 H         1 UNK         0.0800 
    142 H142        0.3226  -20.7105  -48.9072 H         1 UNK         0.0800 
    143 H143        1.0660  -23.5983  -48.2015 H         1 UNK         0.0600 
    144 H144        0.6227  -21.3720  -46.5179 H         1 UNK         0.3000 
    145 H145       -0.5429  -23.1528  -43.6301 H         1 UNK         0.0600 
    146 H146        1.3199  -21.8053  -42.6720 H         1 UNK         0.0600 
    147 H147        2.0282  -21.6138  -44.2737 H         1 UNK         0.0600 
    148 H148        1.9242  -23.2071  -43.5425 H         1 UNK         0.0600 
    149 H149       -0.1638  -20.3653  -44.3113 H         1 UNK         0.3000 
    150 H150       -3.5458  -19.7668  -45.2774 H         1 UNK         0.0600 
    151 H151       -3.6281  -19.7760  -42.7781 H         1 UNK         0.0600 
    152 H152       -3.4404  -18.1464  -43.4092 H         1 UNK         0.0600 
    153 H153       -2.0552  -18.9864  -42.7155 H         1 UNK         0.0600 
    154 H154       -1.3347  -18.0090  -44.8723 H         1 UNK         0.3000 
    155 H155        0.0686  -18.3492  -48.1653 H         1 UNK         0.0600 
    156 H156       -1.8277  -16.7171  -48.3237 H         1 UNK         0.0600 
    157 H157       -0.2816  -15.9092  -48.1090 H         1 UNK         0.0600 
    158 H158       -1.3872  -16.0607  -46.7535 H         1 UNK         0.0600 
    159 H159        0.9661  -16.6995  -46.1181 H         1 UNK         0.3000 
    160 H160        3.0209  -18.9982  -44.3125 H         1 UNK         0.0600 
    161 H161        3.6428  -16.9502  -46.4912 H         1 UNK         0.0600 
    162 H162        4.3381  -18.5469  -46.3066 H         1 UNK         0.0600 
    163 H163        4.7095  -17.2964  -45.1272 H         1 UNK         0.0600 
    164 H164        2.1796  -16.1377  -44.5008 H         1 UNK         0.3000 
    165 H165        0.5031  -16.3211  -41.3664 H         1 UNK         0.0600 
    166 H166        1.9514  -14.3940  -40.8155 H         1 UNK         0.0600 
    167 H167        2.8859  -15.8791  -40.7277 H         1 UNK         0.0600 
    168 H168        3.0640  -14.8136  -42.1175 H         1 UNK         0.0600 
    169 H169        0.8889  -14.1155  -43.0917 H         1 UNK         0.3000 
    170 H170       -0.7806  -13.9962  -45.3612 H         1 UNK         0.0600 
    171 H171       -2.9290  -15.2942  -45.2702 H         1 UNK         0.0600 
    172 H172       -3.3560  -14.4824  -43.7748 H         1 UNK         0.0600 
    173 H173       -3.2202  -13.5661  -45.2753 H         1 UNK         0.0600 
    174 H174       -2.0348  -12.5638  -43.1842 H         1 UNK         0.3000 
    175 H175       -1.3277  -10.4898  -42.7154 H         1 UNK         0.0600 
    176 H176        0.1178  -10.1208  -40.7087 H         1 UNK         0.0600 
    177 H177       -0.3552  -11.8082  -40.8337 H         1 UNK         0.0600 
    178 H178        1.2698  -11.3190  -41.2977 H         1 UNK         0.0600 
    179 H179        1.5035   -9.7232  -43.1610 H         1 UNK         0.3000 
    180 H180        0.7934   -7.7343  -45.9669 H         1 UNK         0.0600 
    181 H181        1.9389   -5.9371  -44.6915 H         1 UNK         0.0600 
    182 H182        1.5879   -6.7575  -43.1694 H         1 UNK         0.0600 
    183 H183        0.2778   -6.1063  -44.1467 H         1 UNK         0.0600 
    184 H184        3.1489   -8.2315  -44.3796 H         1 UNK         0.3000 
    185 H185        4.8592   -9.6601  -46.0788 H         1 UNK         0.0600 
    186 H186        5.4413  -10.9209  -43.9581 H         1 UNK         0.0600 
    187 H187        4.6178   -9.4127  -43.6302 H         1 UNK         0.0600 
    188 H188        3.7358  -10.9354  -43.5192 H         1 UNK         0.0600 
    189 H189        3.7923  -12.3707  -45.5577 H         1 UNK         0.3000 
    190 H190       -1.9288  -21.6650  -47.6802 H         1 UNK         0.3000 
    191 H191       -3.5815  -23.1185  -49.4597 H         1 UNK         0.0600 
    192 H192       -4.1654  -20.8987  -48.5191 H         1 UNK         0.0600 
    193 H193       -4.3464  -21.5985  -46.9146 H         1 UNK         0.0600 
    194 H194       -5.4432  -22.0656  -48.2102 H         1 UNK         0.0600 
    195 H195       -2.9445  -23.6260  -45.9500 H         1 UNK         0.3000 
    196 H196       -4.6661  -25.8455  -45.6052 H         1 UNK         0.0600 
    197 H197       -3.7426  -24.5497  -43.7120 H         1 UNK         0.0600 
    198 H198       -2.1107  -25.0957  -44.0903 H         1 UNK         0.0600 
    199 H199       -3.3218  -26.2469  -43.5413 H         1 UNK         0.0600 
    200 H200       -1.1718  -25.7344  -46.4628 H         1 UNK         0.3000 
    201 H201       -0.7409  -28.5267  -46.6539 H         1 UNK         0.0600 
    202 H202        1.0927  -26.8655  -46.5176 H         1 UNK         0.0600 
    203 H203        0.6558  -26.2079  -48.0929 H         1 UNK         0.0600 
    204 H204        1.2808  -27.8480  -47.9624 H         1 UNK         0.0600 
    205 H205       -1.9758  -26.1971  -49.0414 H         1 UNK         0.3000 
    206 H206       -2.1802  -28.1173  -51.2174 H         1 UNK         0.0600 
    207 H207       -3.3532  -25.3094  -50.8611 H         1 UNK         0.0600 
    208 H208       -1.7950  -25.6797  -51.5951 H         1 UNK         0.0600 
    209 H209       -3.2765  -26.2103  -52.3722 H         1 UNK         0.0600 
    210 H210       -3.9451  -27.9201  -48.3910 H         1 UNK         0.3000 
    211 H211       -5.9162  -28.5571  -47.6369 H         1 UNK         0.0600 
    212 H212       -6.1650  -30.2285  -50.1943 H         1 UNK         0.0600 
    213 H213       -7.0349  -30.4870  -48.6884 H         1 UNK         0.0600 
    214 H214       -5.2950  -30.7164  -48.7404 H         1 UNK         0.0600 
    215 H215       -5.8637  -26.0918  -48.8626 H         1 UNK         0.3000 
    216 H216       -7.0702  -24.3720  -49.4126 H         1 UNK         0.0600 
    217 H217       -9.4866  -24.2954  -49.0238 H         1 UNK         0.0600 
    218 H218       -8.7345  -25.2413  -47.7515 H         1 UNK         0.0600 
    219 H219       -9.6060  -26.0473  -49.0562 H         1 UNK         0.0600 
    220 H220       -6.4254  -26.6056  -51.5435 H         1 UNK         0.3000 
    221 H221       -8.2039  -25.9113  -53.7332 H         1 UNK         0.0600 
    222 H222       -5.4594  -27.2658  -53.8031 H         1 UNK         0.0600 
    223 H223       -6.9903  -28.1110  -53.5697 H         1 UNK         0.0600 
    224 H224       -6.6681  -27.2675  -55.0779 H         1 UNK         0.0600 
    225 H225       -5.2829  -24.5474  -52.3726 H         1 UNK         0.3000 
    226 H226       -4.5493  -22.9331  -54.6962 H         1 UNK         0.0600 
    227 H227       -2.8024  -23.7226  -53.1192 H         1 UNK         0.0600 
    228 H228       -2.8719  -21.9715  -53.1045 H         1 UNK         0.0600 
    229 H229       -3.5883  -22.8820  -51.7822 H         1 UNK         0.0600 
    230 H230       -4.6712  -20.6562  -54.7882 H         1 UNK         0.3000 
    231 H231       -7.1152  -19.4941  -53.7524 H         1 UNK         0.0600 
    232 H232       -6.4562  -17.6016  -55.2296 H         1 UNK         0.0600 
    233 H233       -6.3207  -19.1264  -56.0864 H         1 UNK         0.0600 
    234 H234       -4.8714  -18.3209  -55.4843 H         1 UNK         0.0600 
    235 H235       -4.0854  -19.7625  -52.3482 H         1 UNK         0.3000 
    236 H236       -2.9392  -18.8105  -50.6933 H         1 UNK         0.0600 
    237 H237       -5.5270  -17.4154  -49.8383 H         1 UNK         0.0600 
    238 H238       -5.1967  -19.1137  -49.5293 H         1 UNK         0.0600 
    239 H239       -4.1684  -17.8766  -48.8202 H         1 UNK         0.0600 
    240 H240       -2.9214  -17.4624  -53.2116 H         1 UNK         0.3000 
    241 H241       -2.1938  -15.6931  -54.2789 H         1 UNK         0.0600 
    242 H242       -5.6045  -14.0493  -53.4130 H         1 UNK         0.3800 
    243 H243       -5.1274  -15.6668  -52.9694 H         1 UNK         0.3800 
    244 H244       -1.3789  -14.4113  -51.6264 H         1 UNK         0.0800 
    245 H245       -0.8985  -13.8684  -53.2050 H         1 UNK         0.0800 
    246 H246        0.3904  -15.3301  -50.3193 H         1 UNK         0.0800 
    247 H247       -0.3939  -16.8719  -50.5746 H         1 UNK         0.0800 
@<TRIPOS>BOND
     1    1    2 1    
     2    1  127 1    
     3    1  128 1    
     4    1  129 1    
     5    2    3 2    
     6    2    4 am   BACKBONE|DICT|INTERRES
     7    4    5 1    
     8    4  130 1    
     9    5    6 1    
    10    5   65 1    
    11    5  131 1    
    12    6    7 1    
    13    6  132 1    
    14    6  133 1    
    15    7    8 1    
    16    8    9 1    
    17    8  134 1    
    18    8  135 1    
    19    9   10 ar   
    20    9   14 ar   
    21   10   11 ar   
    22   10  136 1    
    23   11   12 ar   
    24   11  126 1    
    25   12   13 ar   
    26   12  137 1    
    27   13   14 ar   
    28   13   15 1    
    29   14  138 1    
    30   15   16 1    
    31   15  139 1    
    32   15  140 1    
    33   16   17 1    
    34   17   18 1    
    35   17  141 1    
    36   17  142 1    
    37   18   19 1    
    38   18   67 1    
    39   18  143 1    
    40   19   20 am   BACKBONE|DICT|INTERRES
    41   19  144 1    
    42   20   21 2    
    43   20   22 1    
    44   22   23 1    
    45   22   24 1    
    46   22  145 1    
    47   23  146 1    
    48   23  147 1    
    49   23  148 1    
    50   24   25 am   BACKBONE|DICT|INTERRES
    51   24  149 1    
    52   25   26 2    
    53   25   27 1    
    54   27   28 1    
    55   27   29 1    
    56   27  150 1    
    57   28  151 1    
    58   28  152 1    
    59   28  153 1    
    60   29   30 am   BACKBONE|DICT|INTERRES
    61   29  154 1    
    62   30   31 2    
    63   30   32 1    
    64   32   33 1    
    65   32   34 1    
    66   32  155 1    
    67   33  156 1    
    68   33  157 1    
    69   33  158 1    
    70   34   35 am   BACKBONE|DICT|INTERRES
    71   34  159 1    
    72   35   36 2    
    73   35   37 1    
    74   37   38 1    
    75   37   39 1    
    76   37  160 1    
    77   38  161 1    
    78   38  162 1    
    79   38  163 1    
    80   39   40 am   BACKBONE|DICT|INTERRES
    81   39  164 1    
    82   40   41 2    
    83   40   42 1    
    84   42   43 1    
    85   42   44 1    
    86   42  165 1    
    87   43  166 1    
    88   43  167 1    
    89   43  168 1    
    90   44   45 am   BACKBONE|DICT|INTERRES
    91   44  169 1    
    92   45   46 2    
    93   45   47 1    
    94   47   48 1    
    95   47   49 1    
    96   47  170 1    
    97   48  171 1    
    98   48  172 1    
    99   48  173 1    
   100   49   50 am   BACKBONE|DICT|INTERRES
   101   49  174 1    
   102   50   51 2    
   103   50   52 1    
   104   52   53 1    
   105   52   54 1    
   106   52  175 1    
   107   53  176 1    
   108   53  177 1    
   109   53  178 1    
   110   54   55 am   BACKBONE|DICT|INTERRES
   111   54  179 1    
   112   55   56 2    
   113   55   57 1    
   114   57   58 1    
   115   57   59 1    
   116   57  180 1    
   117   58  181 1    
   118   58  182 1    
   119   58  183 1    
   120   59   60 am   BACKBONE|DICT|INTERRES
   121   59  184 1    
   122   60   61 2    
   123   60   62 1    
   124   62   63 1    
   125   62   64 1    
   126   62  185 1    
   127   63  186 1    
   128   63  187 1    
   129   63  188 1    
   130   64   65 am   BACKBONE|DICT|INTERRES
   131   64  189 1    
   132   65   66 2    
   133   67   68 2    
   134   67   69 am   BACKBONE|DICT|INTERRES
   135   69   70 1    
   136   69  190 1    
   137   70   71 1    
   138   70   72 1    
   139   70  191 1    
   140   71  192 1    
   141   71  193 1    
   142   71  194 1    
   143   72   73 2    
   144   72   74 am   BACKBONE|DICT|INTERRES
   145   74   75 1    
   146   74  195 1    
   147   75   76 1    
   148   75   77 1    
   149   75  196 1    
   150   76  197 1    
   151   76  198 1    
   152   76  199 1    
   153   77   78 2    
   154   77   79 am   BACKBONE|DICT|INTERRES
   155   79   80 1    
   156   79  200 1    
   157   80   81 1    
   158   80   82 1    
   159   80  201 1    
   160   81  202 1    
   161   81  203 1    
   162   81  204 1    
   163   82   83 2    
   164   82   84 am   BACKBONE|DICT|INTERRES
   165   84   85 1    
   166   84  205 1    
   167   85   86 1    
   168   85   87 1    
   169   85  206 1    
   170   86  207 1    
   171   86  208 1    
   172   86  209 1    
   173   87   88 2    
   174   87   89 am   BACKBONE|DICT|INTERRES
   175   89   90 1    
   176   89  210 1    
   177   90   91 1    
   178   90   92 1    
   179   90  211 1    
   180   91  212 1    
   181   91  213 1    
   182   91  214 1    
   183   92   93 2    
   184   92   94 am   BACKBONE|DICT|INTERRES
   185   94   95 1    
   186   94  215 1    
   187   95   96 1    
   188   95   97 1    
   189   95  216 1    
   190   96  217 1    
   191   96  218 1    
   192   96  219 1    
   193   97   98 2    
   194   97   99 am   BACKBONE|DICT|INTERRES
   195   99  100 1    
   196   99  220 1    
   197  100  101 1    
   198  100  102 1    
   199  100  221 1    
   200  101  222 1    
   201  101  223 1    
   202  101  224 1    
   203  102  103 2    
   204  102  104 am   BACKBONE|DICT|INTERRES
   205  104  105 1    
   206  104  225 1    
   207  105  106 1    
   208  105  107 1    
   209  105  226 1    
   210  106  227 1    
   211  106  228 1    
   212  106  229 1    
   213  107  108 2    
   214  107  109 am   BACKBONE|DICT|INTERRES
   215  109  110 1    
   216  109  230 1    
   217  110  111 1    
   218  110  112 1    
   219  110  231 1    
   220  111  232 1    
   221  111  233 1    
   222  111  234 1    
   223  112  113 2    
   224  112  114 am   BACKBONE|DICT|INTERRES
   225  114  115 1    
   226  114  235 1    
   227  115  116 1    
   228  115  117 1    
   229  115  236 1    
   230  116  237 1    
   231  116  238 1    
   232  116  239 1    
   233  117  118 2    
   234  117  119 am   BACKBONE|DICT|INTERRES
   235  119  120 1    
   236  119  240 1    
   237  120  121 1    
   238  120  124 1    
   239  120  241 1    
   240  121  122 am   BACKBONE|DICT|INTERRES
   241  121  123 2    
   242  122  242 1    
   243  122  243 1    
   244  124  125 1    
   245  124  244 1    
   246  124  245 1    
   247  125  126 1    
   248  126  246 1    
   249  126  247 1    
@<TRIPOS>SUBSTRUCTURE
     1 UNK         1 GROUP             0       ****    0 ROOT    
