@<TRIPOS>MOLECULE
3R540
247   249    1
SMALL
USER_CHARGES


@<TRIPOS>ATOM
      1 CA          0.6904  -11.0651  -49.2044 C.3       0 UNK        -0.1800 
      2 C           0.3574  -11.7140  -47.8699 C.2       0 UNK         0.5000 
      3 O           1.1056  -12.5705  -47.3987 O.2       0 UNK        -0.5000 
      4 N          -0.7567  -11.3125  -47.2472 N.am      1 UNK        -0.5000 
      5 CA         -1.2661  -11.8399  -45.9728 C.3       1 UNK         0.1400 
      6 C6         -2.8053  -11.6824  -45.8590 C.3       23 UNK        -0.0398 
      7 S7         -3.6915  -12.5960  -47.1675 S.3       23 UNK        -0.2404 
      8 C8         -3.9778  -14.1763  -46.3033 C.3       23 UNK        -0.0205 
      9 C9         -4.4482  -15.3255  -47.1917 C.ar      23 UNK        -0.0193 
     10 C10        -4.0439  -15.4511  -48.5258 C.ar      23 UNK        -0.1150 
     11 C11        -4.3900  -16.5790  -49.2757 C.ar      23 UNK        -0.0193 
     12 C12        -5.1469  -17.5922  -48.6841 C.ar      23 UNK        -0.1150 
     13 C13        -5.5606  -17.4831  -47.3538 C.ar      23 UNK        -0.0193 
     14 C14        -5.2312  -16.3342  -46.6257 C.ar      23 UNK        -0.1150 
     15 C15        -6.3235  -18.6326  -46.7043 C.3       23 UNK        -0.0205 
     16 S16        -5.7297  -19.0760  -45.0319 S.3       23 UNK        -0.2404 
     17 C17        -3.9153  -19.1815  -45.2399 C.3       23 UNK        -0.0398 
     18 CA         -3.4310  -20.5026  -45.8785 C.3       11 UNK         0.1400 
     19 N          -2.0934  -20.3536  -46.4665 N.am      11 UNK        -0.5000 
     20 C          -1.4225  -21.2905  -47.1512 C.2       10 UNK         0.5000 
     21 O          -1.8725  -22.4114  -47.3859 O.2       10 UNK        -0.5000 
     22 CA          0.0110  -20.9433  -47.5917 C.3       10 UNK         0.1400 
     23 CB          0.0154  -20.1003  -48.8762 C.3       10 UNK        -0.1800 
     24 N           0.7442  -20.2551  -46.5273 N.am      10 UNK        -0.5000 
     25 C           1.1413  -20.8536  -45.3943 C.2       9 UNK         0.5000 
     26 O           1.0300  -22.0621  -45.1914 O.2       9 UNK        -0.5000 
     27 CA          1.7209  -19.9568  -44.2844 C.3       9 UNK         0.1400 
     28 CB          3.2472  -19.8531  -44.4099 C.3       9 UNK        -0.1800 
     29 N           1.1232  -18.6191  -44.2643 N.am      9 UNK        -0.5000 
     30 C          -0.1504  -18.3698  -43.9250 C.2       8 UNK         0.5000 
     31 O          -0.9247  -19.2347  -43.5140 O.2       8 UNK        -0.5000 
     32 CA         -0.6663  -16.9348  -44.1544 C.3       8 UNK         0.1400 
     33 CB         -0.3918  -16.0343  -42.9413 C.3       8 UNK        -0.1800 
     34 N          -0.1021  -16.3353  -45.3671 N.am      8 UNK        -0.5000 
     35 C          -0.4068  -16.7554  -46.6047 C.2       7 UNK         0.5000 
     36 O          -1.2367  -17.6361  -46.8216 O.2       7 UNK        -0.5000 
     37 CA          0.3607  -16.1464  -47.7943 C.3       7 UNK         0.1400 
     38 CB         -0.5020  -15.1201  -48.5363 C.3       7 UNK        -0.1800 
     39 N           1.6358  -15.5387  -47.4094 N.am      7 UNK        -0.5000 
     40 C           2.7214  -16.2536  -47.0797 C.2       6 UNK         0.5000 
     41 O           2.7365  -17.4870  -47.0882 O.2       6 UNK        -0.5000 
     42 CA          4.0016  -15.4895  -46.6670 C.3       6 UNK         0.1400 
     43 CB          3.7997  -13.9732  -46.4710 C.3       6 UNK        -0.1800 
     44 N           4.6453  -16.0460  -45.4728 N.am      6 UNK        -0.5000 
     45 C           4.0730  -16.2837  -44.2842 C.2       5 UNK         0.5000 
     46 O           2.8666  -16.1784  -44.0672 O.2       5 UNK        -0.5000 
     47 CA          4.9979  -16.7065  -43.1271 C.3       5 UNK         0.1400 
     48 CB          6.2860  -17.4308  -43.5781 C.3       5 UNK        -0.1800 
     49 N           5.2970  -15.5714  -42.2517 N.am      5 UNK        -0.5000 
     50 C           5.9440  -14.4397  -42.5621 C.2       4 UNK         0.5000 
     51 O           6.4618  -14.2173  -43.6580 O.2       4 UNK        -0.5000 
     52 CA          5.9915  -13.3692  -41.4521 C.3       4 UNK         0.1400 
     53 CB          6.9386  -12.2039  -41.7918 C.3       4 UNK        -0.1800 
     54 N           4.6617  -12.8229  -41.1834 N.am      4 UNK        -0.5000 
     55 C           3.6905  -13.4211  -40.4799 C.2       3 UNK         0.5000 
     56 O           3.8231  -14.5194  -39.9374 O.2       3 UNK        -0.5000 
     57 CA          2.3478  -12.6713  -40.3653 C.3       3 UNK         0.1400 
     58 CB          2.2574  -11.9363  -39.0191 C.3       3 UNK        -0.1800 
     59 N           2.1330  -11.7082  -41.4502 N.am      3 UNK        -0.5000 
     60 C           1.8185  -12.0519  -42.7052 C.2       2 UNK         0.5000 
     61 O           1.6485  -13.2155  -43.0730 O.2       2 UNK        -0.5000 
     62 CA          1.7196  -10.9033  -43.7239 C.3       2 UNK         0.1400 
     63 CB          3.1056  -10.5853  -44.3074 C.3       2 UNK        -0.1800 
     64 N           0.8223  -11.2620  -44.8178 N.am      2 UNK        -0.5000 
     65 C          -0.5138  -11.2452  -44.7578 C.2       1 UNK         0.5000 
     66 O          -1.1396  -10.7828  -43.8017 O.2       1 UNK        -0.5000 
     67 C          -3.5290  -21.6756  -44.8791 C.2       11 UNK         0.5000 
     68 O          -4.5551  -22.3545  -44.8440 O.2       11 UNK        -0.5000 
     69 N          -2.4432  -21.9495  -44.1414 N.am      12 UNK        -0.5000 
     70 CA         -2.3157  -23.1021  -43.2426 C.3       12 UNK         0.1400 
     71 CB         -1.0171  -22.9709  -42.4333 C.3       12 UNK        -0.1800 
     72 C          -2.3805  -24.4695  -43.9617 C.2       12 UNK         0.5000 
     73 O          -2.7220  -25.4668  -43.3255 O.2       12 UNK        -0.5000 
     74 N          -2.0889  -24.4874  -45.2695 N.am      13 UNK        -0.5000 
     75 CA         -2.2363  -25.6335  -46.1683 C.3       13 UNK         0.1400 
     76 CB         -0.9292  -25.7953  -46.9649 C.3       13 UNK        -0.1800 
     77 C          -3.4442  -25.4608  -47.1153 C.2       13 UNK         0.5000 
     78 O          -3.5378  -26.1792  -48.1124 O.2       13 UNK        -0.5000 
     79 N          -4.3255  -24.4889  -46.8271 N.am      14 UNK        -0.5000 
     80 CA         -5.4902  -24.0763  -47.6192 C.3       14 UNK         0.1400 
     81 CB         -6.5745  -25.1736  -47.5989 C.3       14 UNK        -0.1800 
     82 C          -5.1168  -23.6208  -49.0460 C.2       14 UNK         0.5000 
     83 O          -5.8450  -23.9096  -49.9947 O.2       14 UNK        -0.5000 
     84 N          -3.9600  -22.9538  -49.1761 N.am      15 UNK        -0.5000 
     85 CA         -3.3135  -22.5341  -50.4238 C.3       15 UNK         0.1400 
     86 CB         -4.1366  -21.4422  -51.1295 C.3       15 UNK        -0.1800 
     87 C          -2.9668  -23.7385  -51.3241 C.2       15 UNK         0.5000 
     88 O          -3.2108  -23.7108  -52.5345 O.2       15 UNK        -0.5000 
     89 N          -2.4318  -24.7845  -50.6742 N.am      16 UNK        -0.5000 
     90 CA         -2.1372  -26.1232  -51.1921 C.3       16 UNK         0.1400 
     91 CB         -1.0137  -26.0732  -52.2466 C.3       16 UNK        -0.1800 
     92 C          -3.4143  -26.8190  -51.6984 C.2       16 UNK         0.5000 
     93 O          -3.4565  -27.2761  -52.8396 O.2       16 UNK        -0.5000 
     94 N          -4.4587  -26.8227  -50.8559 N.am      17 UNK        -0.5000 
     95 CA         -5.8260  -27.2724  -51.1592 C.3       17 UNK         0.1400 
     96 CB         -5.8756  -28.8103  -51.2632 C.3       17 UNK        -0.1800 
     97 C          -6.4188  -26.5618  -52.3989 C.2       17 UNK         0.5000 
     98 O          -7.0247  -27.2009  -53.2606 O.2       17 UNK        -0.5000 
     99 N          -6.1743  -25.2465  -52.4709 N.am      18 UNK        -0.5000 
    100 CA        -6.4868  -24.3057  -53.5485 C.3       18 UNK         0.1400 
    101 CB        -8.0122  -24.1768  -53.7346 C.3       18 UNK        -0.1800 
    102 C         -5.7551  -24.5652  -54.8850 C.2       18 UNK         0.5000 
    103 O         -6.0763  -23.8988  -55.8702 O.2       18 UNK        -0.5000 
    104 N         -4.7855  -25.4928  -54.9236 N.am      19 UNK        -0.5000 
    105 CA        -4.0263  -25.8182  -56.1333 C.3       19 UNK         0.1400 
    106 CB        -3.3995  -27.2146  -56.0069 C.3       19 UNK        -0.1800 
    107 C         -2.9455  -24.7712  -56.4502 C.2       19 UNK         0.5000 
    108 O         -2.6903  -24.5130  -57.6274 O.2       19 UNK        -0.5000 
    109 N         -2.3349  -24.1848  -55.4100 N.am      20 UNK        -0.5000 
    110 CA        -1.3574  -23.1051  -55.5536 C.3       20 UNK         0.1400 
    111 CB        -0.3415  -23.1499  -54.4013 C.3       20 UNK        -0.1800 
    112 C         -2.0519  -21.7372  -55.6094 C.2       20 UNK         0.5000 
    113 O         -1.5946  -20.8581  -56.3409 O.2       20 UNK        -0.5000 
    114 N         -3.1315  -21.5783  -54.8247 N.am      21 UNK        -0.5000 
    115 CA        -3.9928  -20.3880  -54.7382 C.3       21 UNK         0.1400 
    116 CB        -4.8033  -20.2257  -56.0403 C.3       21 UNK        -0.1800 
    117 C         -3.2359  -19.0954  -54.3462 C.2       21 UNK         0.5000 
    118 O         -3.6605  -17.9987  -54.7131 O.2       21 UNK        -0.5000 
    119 N         -2.1149  -19.2604  -53.6287 N.am      22 UNK        -0.5000 
    120 CA        -1.1252  -18.2243  -53.2838 C.3       22 UNK         0.1400 
    121 C         -0.3221  -17.6681  -54.5026 C.2       22 UNK         0.5000 
    122 N         -0.3270  -18.3157  -55.6624 N.am      22 UNK        -0.7600 
    123 O          0.3496  -16.6459  -54.3919 O.2       22 UNK        -0.5000 
    124 C124       -1.6919  -17.0922  -52.3822 C.3       23 UNK        -0.0398 
    125 S125       -2.4004  -17.7079  -50.8170 S.3       23 UNK        -0.2404 
    126 C126       -3.9202  -16.7128  -50.7149 C.3       23 UNK        -0.0205 
    127 H127       -0.0569  -10.3259  -49.4933 H         1 UNK         0.0600 
    128 H128        0.7398  -11.8238  -49.9854 H         1 UNK         0.0600 
    129 H129        1.6588  -10.5684  -49.1474 H         1 UNK         0.0600 
    130 H130       -1.3247  -10.5945  -47.6735 H         1 UNK         0.3000 
    131 H131       -1.0546  -12.9108  -45.9415 H         1 UNK         0.0600 
    132 H132       -3.1647  -12.0323  -44.8894 H         1 UNK         0.0800 
    133 H133       -3.0860  -10.6299  -45.9220 H         1 UNK         0.0800 
    134 H134       -3.0509  -14.4923  -45.8224 H         1 UNK         0.0800 
    135 H135       -4.7008  -14.0018  -45.5048 H         1 UNK         0.0800 
    136 H136       -3.4332  -14.6846  -48.9794 H         1 UNK         0.1150 
    137 H137       -5.3919  -18.4755  -49.2569 H         1 UNK         0.1150 
    138 H138       -5.5372  -16.2537  -45.5921 H         1 UNK         0.1150 
    139 H139       -7.3781  -18.3619  -46.6422 H         1 UNK         0.0800 
    140 H140       -6.2720  -19.5248  -47.3303 H         1 UNK         0.0800 
    141 H141       -3.4560  -19.0337  -44.2616 H         1 UNK         0.0800 
    142 H142       -3.5784  -18.3355  -45.8359 H         1 UNK         0.0800 
    143 H143       -4.0942  -20.7380  -46.7134 H         1 UNK         0.0600 
    144 H144       -1.6741  -19.4304  -46.3898 H         1 UNK         0.3000 
    145 H145        0.5286  -21.8803  -47.8084 H         1 UNK         0.0600 
    146 H146        1.0293  -19.8214  -49.1634 H         1 UNK         0.0600 
    147 H147       -0.4151  -20.6579  -49.7081 H         1 UNK         0.0600 
    148 H148       -0.5656  -19.1856  -48.7692 H         1 UNK         0.0600 
    149 H149        0.8886  -19.2604  -46.6287 H         1 UNK         0.3000 
    150 H150        1.4968  -20.4396  -43.3306 H         1 UNK         0.0600 
    151 H151        3.7020  -20.8420  -44.4811 H         1 UNK         0.0600 
    152 H152        3.6767  -19.3683  -43.5353 H         1 UNK         0.0600 
    153 H153        3.5461  -19.2913  -45.2947 H         1 UNK         0.0600 
    154 H154        1.7055  -17.8422  -44.5584 H         1 UNK         0.3000 
    155 H155       -1.7495  -16.9916  -44.2820 H         1 UNK         0.0600 
    156 H156       -0.8671  -16.4353  -42.0454 H         1 UNK         0.0600 
    157 H157       -0.7861  -15.0300  -43.0979 H         1 UNK         0.0600 
    158 H158        0.6734  -15.9433  -42.7310 H         1 UNK         0.0600 
    159 H159        0.6356  -15.6550  -45.2413 H         1 UNK         0.3000 
    160 H160        0.5740  -16.9566  -48.4948 H         1 UNK         0.0600 
    161 H161       -0.9375  -14.3870  -47.8582 H         1 UNK         0.0600 
    162 H162       -1.3222  -15.6216  -49.0451 H         1 UNK         0.0600 
    163 H163        0.0688  -14.5886  -49.2977 H         1 UNK         0.0600 
    164 H164        1.6633  -14.5236  -47.3726 H         1 UNK         0.3000 
    165 H165        4.7101  -15.6256  -47.4849 H         1 UNK         0.0600 
    166 H166        4.7188  -13.4972  -46.1286 H         1 UNK         0.0600 
    167 H167        3.5265  -13.4893  -47.4086 H         1 UNK         0.0600 
    168 H168        3.0254  -13.7583  -45.7329 H         1 UNK         0.0600 
    169 H169        5.6445  -16.1747  -45.5395 H         1 UNK         0.3000 
    170 H170        4.4263  -17.4073  -42.5177 H         1 UNK         0.0600 
    171 H171        6.0503  -18.2858  -44.2131 H         1 UNK         0.0600 
    172 H172        6.9614  -16.7826  -44.1362 H         1 UNK         0.0600 
    173 H173        6.8358  -17.8125  -42.7178 H         1 UNK         0.0600 
    174 H174        4.8414  -15.5927  -41.3448 H         1 UNK         0.3000 
    175 H175        6.3677  -13.8498  -40.5464 H         1 UNK         0.0600 
    176 H176        6.6082  -11.6588  -42.6771 H         1 UNK         0.0600 
    177 H177        7.0024  -11.4948  -40.9663 H         1 UNK         0.0600 
    178 H178        7.9491  -12.5658  -41.9859 H         1 UNK         0.0600 
    179 H179        4.4506  -11.9354  -41.6135 H         1 UNK         0.3000 
    180 H180        1.5511  -13.4178  -40.3999 H         1 UNK         0.0600 
    181 H181        3.0255  -11.1673  -38.9270 H         1 UNK         0.0600 
    182 H182        2.3854  -12.6293  -38.1864 H         1 UNK         0.0600 
    183 H183        1.2856  -11.4581  -38.8951 H         1 UNK         0.0600 
    184 H184        2.2522  -10.7322  -41.2184 H         1 UNK         0.3000 
    185 H185        1.3342  -10.0126  -43.2230 H         1 UNK         0.0600 
    186 H186        3.7970  -10.2653  -43.5271 H         1 UNK         0.0600 
    187 H187        3.5455  -11.4538  -44.7989 H         1 UNK         0.0600 
    188 H188        3.0493   -9.7799  -45.0399 H         1 UNK         0.0600 
    189 H189        1.2434  -11.7052  -45.6277 H         1 UNK         0.3000 
    190 H190       -1.6490  -21.3245  -44.2001 H         1 UNK         0.3000 
    191 H191       -3.1536  -23.0647  -42.5434 H         1 UNK         0.0600 
    192 H192       -0.9701  -22.0155  -41.9100 H         1 UNK         0.0600 
    193 H193       -0.9467  -23.7578  -41.6814 H         1 UNK         0.0600 
    194 H194       -0.1361  -23.0499  -43.0693 H         1 UNK         0.0600 
    195 H195       -1.8327  -23.6168  -45.7223 H         1 UNK         0.3000 
    196 H196       -2.4049  -26.5487  -45.5982 H         1 UNK         0.0600 
    197 H197       -0.0761  -25.9179  -46.2975 H         1 UNK         0.0600 
    198 H198       -0.7337  -24.9302  -47.5996 H         1 UNK         0.0600 
    199 H199       -0.9638  -26.6755  -47.6080 H         1 UNK         0.0600 
    200 H200       -4.1742  -23.9402  -45.9873 H         1 UNK         0.3000 
    201 H201       -5.9043  -23.1967  -47.1249 H         1 UNK         0.0600 
    202 H202       -7.4797  -24.8427  -48.1093 H         1 UNK         0.0600 
    203 H203       -6.8552  -25.4265  -46.5766 H         1 UNK         0.0600 
    204 H204       -6.2377  -26.0876  -48.0871 H         1 UNK         0.0600 
    205 H205       -3.3955  -22.8065  -48.3427 H         1 UNK         0.3000 
    206 H206       -2.3610  -22.0871  -50.1390 H         1 UNK         0.0600 
    207 H207       -4.3879  -20.6329  -50.4437 H         1 UNK         0.0600 
    208 H208       -5.0648  -21.8310  -51.5478 H         1 UNK         0.0600 
    209 H209       -3.5594  -21.0041  -51.9399 H         1 UNK         0.0600 
    210 H210       -2.3333  -24.6941  -49.6730 H         1 UNK         0.3000 
    211 H211       -1.7745  -26.7116  -50.3479 H         1 UNK         0.0600 
    212 H212       -0.1403  -25.5398  -51.8715 H         1 UNK         0.0600 
    213 H213       -0.6914  -27.0792  -52.5169 H         1 UNK         0.0600 
    214 H214       -1.3406  -25.5833  -53.1620 H         1 UNK         0.0600 
    215 H215       -4.3095  -26.4457  -49.9241 H         1 UNK         0.3000 
    216 H216       -6.4470  -26.9764  -50.3134 H         1 UNK         0.0600 
    217 H217       -6.9015  -29.1615  -51.3789 H         1 UNK         0.0600 
    218 H218       -5.3054  -29.1770  -52.1174 H         1 UNK         0.0600 
    219 H219       -5.4723  -29.2781  -50.3651 H         1 UNK         0.0600 
    220 H220       -5.7297  -24.8201  -51.6617 H         1 UNK         0.3000 
    221 H221       -6.1198  -23.3395  -53.2010 H         1 UNK         0.0600 
    222 H222       -8.4487  -25.0874  -54.1454 H         1 UNK         0.0600 
    223 H223       -8.5075  -23.9636  -52.7872 H         1 UNK         0.0600 
    224 H224       -8.2576  -23.3618  -54.4164 H         1 UNK         0.0600 
    225 H225       -4.5490  -26.0091  -54.0831 H         1 UNK         0.3000 
    226 H226       -4.7213  -25.8467  -56.9754 H         1 UNK         0.0600 
    227 H227       -4.1399  -27.9584  -55.7117 H         1 UNK         0.0600 
    228 H228       -2.9762  -27.5349  -56.9596 H         1 UNK         0.0600 
    229 H229       -2.5922  -27.2313  -55.2744 H         1 UNK         0.0600 
    230 H230       -2.6328  -24.4136  -54.4686 H         1 UNK         0.3000 
    231 H231       -0.8017  -23.2348  -56.4849 H         1 UNK         0.0600 
    232 H232        0.4024  -22.3595  -54.5096 H         1 UNK         0.0600 
    233 H233        0.1964  -24.0977  -54.3891 H         1 UNK         0.0600 
    234 H234       -0.8151  -23.0187  -53.4290 H         1 UNK         0.0600 
    235 H235       -3.3858  -22.3518  -54.2215 H         1 UNK         0.3000 
    236 H236       -4.7078  -20.5789  -53.9378 H         1 UNK         0.0600 
    237 H237       -5.3339  -21.1446  -56.2903 H         1 UNK         0.0600 
    238 H238       -5.5512  -19.4381  -55.9429 H         1 UNK         0.0600 
    239 H239       -4.1637  -19.9678  -56.8850 H         1 UNK         0.0600 
    240 H240       -1.8513  -20.2037  -53.3892 H         1 UNK         0.3000 
    241 H241       -0.3721  -18.7449  -52.6914 H         1 UNK         0.0600 
    242 H242        0.2071  -17.9448  -56.4319 H         1 UNK         0.3800 
    243 H243       -0.8574  -19.1723  -55.7944 H         1 UNK         0.3800 
    244 H244       -0.9036  -16.3880  -52.1114 H         1 UNK         0.0800 
    245 H245       -2.4349  -16.5116  -52.9297 H         1 UNK         0.0800 
    246 H246       -4.6964  -17.1735  -51.3276 H         1 UNK         0.0800 
    247 H247       -3.7436  -15.7205  -51.1327 H         1 UNK         0.0800 
@<TRIPOS>BOND
     1    1    2 1    
     2    1  127 1    
     3    1  128 1    
     4    1  129 1    
     5    2    3 2    
     6    2    4 am   BACKBONE|DICT|INTERRES
     7    4    5 1    
     8    4  130 1    
     9    5    6 1    
    10    5   65 1    
    11    5  131 1    
    12    6    7 1    
    13    6  132 1    
    14    6  133 1    
    15    7    8 1    
    16    8    9 1    
    17    8  134 1    
    18    8  135 1    
    19    9   10 ar   
    20    9   14 ar   
    21   10   11 ar   
    22   10  136 1    
    23   11   12 ar   
    24   11  126 1    
    25   12   13 ar   
    26   12  137 1    
    27   13   14 ar   
    28   13   15 1    
    29   14  138 1    
    30   15   16 1    
    31   15  139 1    
    32   15  140 1    
    33   16   17 1    
    34   17   18 1    
    35   17  141 1    
    36   17  142 1    
    37   18   19 1    
    38   18   67 1    
    39   18  143 1    
    40   19   20 am   BACKBONE|DICT|INTERRES
    41   19  144 1    
    42   20   21 2    
    43   20   22 1    
    44   22   23 1    
    45   22   24 1    
    46   22  145 1    
    47   23  146 1    
    48   23  147 1    
    49   23  148 1    
    50   24   25 am   BACKBONE|DICT|INTERRES
    51   24  149 1    
    52   25   26 2    
    53   25   27 1    
    54   27   28 1    
    55   27   29 1    
    56   27  150 1    
    57   28  151 1    
    58   28  152 1    
    59   28  153 1    
    60   29   30 am   BACKBONE|DICT|INTERRES
    61   29  154 1    
    62   30   31 2    
    63   30   32 1    
    64   32   33 1    
    65   32   34 1    
    66   32  155 1    
    67   33  156 1    
    68   33  157 1    
    69   33  158 1    
    70   34   35 am   BACKBONE|DICT|INTERRES
    71   34  159 1    
    72   35   36 2    
    73   35   37 1    
    74   37   38 1    
    75   37   39 1    
    76   37  160 1    
    77   38  161 1    
    78   38  162 1    
    79   38  163 1    
    80   39   40 am   BACKBONE|DICT|INTERRES
    81   39  164 1    
    82   40   41 2    
    83   40   42 1    
    84   42   43 1    
    85   42   44 1    
    86   42  165 1    
    87   43  166 1    
    88   43  167 1    
    89   43  168 1    
    90   44   45 am   BACKBONE|DICT|INTERRES
    91   44  169 1    
    92   45   46 2    
    93   45   47 1    
    94   47   48 1    
    95   47   49 1    
    96   47  170 1    
    97   48  171 1    
    98   48  172 1    
    99   48  173 1    
   100   49   50 am   BACKBONE|DICT|INTERRES
   101   49  174 1    
   102   50   51 2    
   103   50   52 1    
   104   52   53 1    
   105   52   54 1    
   106   52  175 1    
   107   53  176 1    
   108   53  177 1    
   109   53  178 1    
   110   54   55 am   BACKBONE|DICT|INTERRES
   111   54  179 1    
   112   55   56 2    
   113   55   57 1    
   114   57   58 1    
   115   57   59 1    
   116   57  180 1    
   117   58  181 1    
   118   58  182 1    
   119   58  183 1    
   120   59   60 am   BACKBONE|DICT|INTERRES
   121   59  184 1    
   122   60   61 2    
   123   60   62 1    
   124   62   63 1    
   125   62   64 1    
   126   62  185 1    
   127   63  186 1    
   128   63  187 1    
   129   63  188 1    
   130   64   65 am   BACKBONE|DICT|INTERRES
   131   64  189 1    
   132   65   66 2    
   133   67   68 2    
   134   67   69 am   BACKBONE|DICT|INTERRES
   135   69   70 1    
   136   69  190 1    
   137   70   71 1    
   138   70   72 1    
   139   70  191 1    
   140   71  192 1    
   141   71  193 1    
   142   71  194 1    
   143   72   73 2    
   144   72   74 am   BACKBONE|DICT|INTERRES
   145   74   75 1    
   146   74  195 1    
   147   75   76 1    
   148   75   77 1    
   149   75  196 1    
   150   76  197 1    
   151   76  198 1    
   152   76  199 1    
   153   77   78 2    
   154   77   79 am   BACKBONE|DICT|INTERRES
   155   79   80 1    
   156   79  200 1    
   157   80   81 1    
   158   80   82 1    
   159   80  201 1    
   160   81  202 1    
   161   81  203 1    
   162   81  204 1    
   163   82   83 2    
   164   82   84 am   BACKBONE|DICT|INTERRES
   165   84   85 1    
   166   84  205 1    
   167   85   86 1    
   168   85   87 1    
   169   85  206 1    
   170   86  207 1    
   171   86  208 1    
   172   86  209 1    
   173   87   88 2    
   174   87   89 am   BACKBONE|DICT|INTERRES
   175   89   90 1    
   176   89  210 1    
   177   90   91 1    
   178   90   92 1    
   179   90  211 1    
   180   91  212 1    
   181   91  213 1    
   182   91  214 1    
   183   92   93 2    
   184   92   94 am   BACKBONE|DICT|INTERRES
   185   94   95 1    
   186   94  215 1    
   187   95   96 1    
   188   95   97 1    
   189   95  216 1    
   190   96  217 1    
   191   96  218 1    
   192   96  219 1    
   193   97   98 2    
   194   97   99 am   BACKBONE|DICT|INTERRES
   195   99  100 1    
   196   99  220 1    
   197  100  101 1    
   198  100  102 1    
   199  100  221 1    
   200  101  222 1    
   201  101  223 1    
   202  101  224 1    
   203  102  103 2    
   204  102  104 am   BACKBONE|DICT|INTERRES
   205  104  105 1    
   206  104  225 1    
   207  105  106 1    
   208  105  107 1    
   209  105  226 1    
   210  106  227 1    
   211  106  228 1    
   212  106  229 1    
   213  107  108 2    
   214  107  109 am   BACKBONE|DICT|INTERRES
   215  109  110 1    
   216  109  230 1    
   217  110  111 1    
   218  110  112 1    
   219  110  231 1    
   220  111  232 1    
   221  111  233 1    
   222  111  234 1    
   223  112  113 2    
   224  112  114 am   BACKBONE|DICT|INTERRES
   225  114  115 1    
   226  114  235 1    
   227  115  116 1    
   228  115  117 1    
   229  115  236 1    
   230  116  237 1    
   231  116  238 1    
   232  116  239 1    
   233  117  118 2    
   234  117  119 am   BACKBONE|DICT|INTERRES
   235  119  120 1    
   236  119  240 1    
   237  120  121 1    
   238  120  124 1    
   239  120  241 1    
   240  121  122 am   BACKBONE|DICT|INTERRES
   241  121  123 2    
   242  122  242 1    
   243  122  243 1    
   244  124  125 1    
   245  124  244 1    
   246  124  245 1    
   247  125  126 1    
   248  126  246 1    
   249  126  247 1    
@<TRIPOS>SUBSTRUCTURE
     1 UNK         1 GROUP             0       ****    0 ROOT    
