@<TRIPOS>MOLECULE
3R540
247   249    1
SMALL
USER_CHARGES


@<TRIPOS>ATOM
      1 CA         -2.8851  -14.0869  -48.5676 C.3       0 UNK        -0.1800 
      2 C          -1.4762  -14.1904  -48.0041 C.2       0 UNK         0.5000 
      3 O          -0.8260  -13.1686  -47.7879 O.2       0 UNK        -0.5000 
      4 N          -1.0089  -15.4211  -47.7612 N.am      1 UNK        -0.5000 
      5 CA          0.3049  -15.7117  -47.1715 C.3       1 UNK         0.1400 
      6 C6          0.8327  -17.1086  -47.5796 C.3       23 UNK        -0.0398 
      7 S7          1.1627  -17.2257  -49.3756 S.3       23 UNK        -0.2404 
      8 C8          0.0205  -18.5294  -49.9375 C.3       23 UNK        -0.0205 
      9 C9         -1.4319  -18.1023  -49.8190 C.ar      23 UNK        -0.0193 
     10 C10        -2.0391  -17.3631  -50.8358 C.ar      23 UNK        -0.1150 
     11 C11        -3.3753  -16.9702  -50.7238 C.ar      23 UNK        -0.0193 
     12 C12        -4.0850  -17.2695  -49.5572 C.ar      23 UNK        -0.1150 
     13 C13        -3.4787  -17.9807  -48.5183 C.ar      23 UNK        -0.0193 
     14 C14        -2.1665  -18.4362  -48.6816 C.ar      23 UNK        -0.1150 
     15 C15        -4.2510  -18.2497  -47.2329 C.3       23 UNK        -0.0205 
     16 S16        -3.1886  -18.1803  -45.7457 S.3       23 UNK        -0.2404 
     17 C17        -3.7531  -19.6543  -44.8417 C.3       23 UNK        -0.0398 
     18 CA         -3.2781  -20.9782  -45.4891 C.3       11 UNK         0.1400 
     19 N          -1.8191  -21.1159  -45.5803 N.am      11 UNK        -0.5000 
     20 C          -1.1973  -22.0005  -46.3756 C.2       10 UNK         0.5000 
     21 O          -1.7909  -22.7367  -47.1621 O.2       10 UNK        -0.5000 
     22 CA          0.3307  -22.1294  -46.2474 C.3       10 UNK         0.1400 
     23 CB          1.0425  -21.1667  -47.2041 C.3       10 UNK        -0.1800 
     24 N           0.7899  -21.9055  -44.8782 N.am      10 UNK        -0.5000 
     25 C           0.5902  -22.7806  -43.8800 C.2       9 UNK         0.5000 
     26 O           0.0671  -23.8821  -44.0435 O.2       9 UNK        -0.5000 
     27 CA          0.9885  -22.3424  -42.4557 C.3       9 UNK         0.1400 
     28 CB          2.4119  -22.8156  -42.1276 C.3       9 UNK        -0.1800 
     29 N           0.9054  -20.8962  -42.2490 N.am      9 UNK        -0.5000 
     30 C          -0.2021  -20.1555  -42.3952 C.2       8 UNK         0.5000 
     31 O          -1.3138  -20.6363  -42.6174 O.2       8 UNK        -0.5000 
     32 CA         -0.0320  -18.6234  -42.3550 C.3       8 UNK         0.1400 
     33 CB         -0.5046  -18.0687  -41.0031 C.3       8 UNK        -0.1800 
     34 N           1.3366  -18.1572  -42.6160 N.am      8 UNK        -0.5000 
     35 C           2.0321  -18.3629  -43.7456 C.2       7 UNK         0.5000 
     36 O           1.5891  -18.9932  -44.7074 O.2       7 UNK        -0.5000 
     37 CA          3.4546  -17.7780  -43.7763 C.3       7 UNK         0.1400 
     38 CB          4.1256  -17.8439  -45.1599 C.3       7 UNK        -0.1800 
     39 N           3.4302  -16.3915  -43.3155 N.am      7 UNK        -0.5000 
     40 C           4.2618  -15.8619  -42.4123 C.2       6 UNK         0.5000 
     41 O           5.1477  -16.5107  -41.8521 O.2       6 UNK        -0.5000 
     42 CA          4.0556  -14.3755  -42.0442 C.3       6 UNK         0.1400 
     43 CB          5.3311  -13.7244  -41.4696 C.3       6 UNK        -0.1800 
     44 N           3.5003  -13.5288  -43.1063 N.am      6 UNK        -0.5000 
     45 C           4.0228  -13.2790  -44.3182 C.2       5 UNK         0.5000 
     46 O           5.0022  -13.8673  -44.7780 O.2       5 UNK        -0.5000 
     47 CA          3.3846  -12.1358  -45.1400 C.3       5 UNK         0.1400 
     48 CB          2.5588  -12.6572  -46.3243 C.3       5 UNK        -0.1800 
     49 N           2.5540  -11.2356  -44.3360 N.am      5 UNK        -0.5000 
     50 C           3.0408  -10.2932  -43.5164 C.2       4 UNK         0.5000 
     51 O           4.2405  -10.0338  -43.4145 O.2       4 UNK        -0.5000 
     52 CA          2.0290   -9.5172  -42.6488 C.3       4 UNK         0.1400 
     53 CB          1.6836   -8.1710  -43.3039 C.3       4 UNK        -0.1800 
     54 N           0.7842  -10.2371  -42.3609 N.am      4 UNK        -0.5000 
     55 C           0.6870  -11.3979  -41.6985 C.2       3 UNK         0.5000 
     56 O           1.6611  -12.0401  -41.3037 O.2       3 UNK        -0.5000 
     57 CA         -0.7253  -11.9552  -41.4296 C.3       3 UNK         0.1400 
     58 CB         -1.8793  -11.0273  -41.8754 C.3       3 UNK        -0.1800 
     59 N          -0.8875  -13.2984  -41.9940 N.am      3 UNK        -0.5000 
     60 C          -0.8085  -13.6434  -43.2873 C.2       2 UNK         0.5000 
     61 O          -0.5750  -12.8416  -44.1951 O.2       2 UNK        -0.5000 
     62 CA         -1.0532  -15.1368  -43.5955 C.3       2 UNK         0.1400 
     63 CB         -2.4668  -15.5713  -43.1692 C.3       2 UNK        -0.1800 
     64 N          -0.8741  -15.4613  -45.0106 N.am      2 UNK        -0.5000 
     65 C           0.3085  -15.5347  -45.6351 C.2       1 UNK         0.5000 
     66 O           1.3836  -15.4469  -45.0420 O.2       1 UNK        -0.5000 
     67 C          -3.9078  -22.1843  -44.7720 C.2       11 UNK         0.5000 
     68 O          -4.9472  -22.6709  -45.2175 O.2       11 UNK        -0.5000 
     69 N          -3.2382  -22.6907  -43.7254 N.am      12 UNK        -0.5000 
     70 CA         -3.5992  -23.9343  -43.0352 C.3       12 UNK         0.1400 
     71 CB         -2.7140  -24.1074  -41.7924 C.3       12 UNK        -0.1800 
     72 C          -3.5146  -25.1743  -43.9517 C.2       12 UNK         0.5000 
     73 O          -4.2893  -26.1147  -43.7787 O.2       12 UNK        -0.5000 
     74 N          -2.6184  -25.1208  -44.9461 N.am      13 UNK        -0.5000 
     75 CA         -2.4750  -26.0886  -46.0331 C.3       13 UNK         0.1400 
     76 CB         -0.9981  -26.1311  -46.4645 C.3       13 UNK        -0.1800 
     77 C          -3.4060  -25.7983  -47.2332 C.2       13 UNK         0.5000 
     78 O          -3.1512  -26.3162  -48.3196 O.2       13 UNK        -0.5000 
     79 N          -4.4556  -24.9842  -47.0401 N.am      14 UNK        -0.5000 
     80 CA         -5.4876  -24.6157  -48.0170 C.3       14 UNK         0.1400 
     81 CB         -6.3139  -25.8499  -48.4380 C.3       14 UNK        -0.1800 
     82 C          -4.9203  -23.8305  -49.2162 C.2       14 UNK         0.5000 
     83 O          -5.1610  -24.1927  -50.3686 O.2       14 UNK        -0.5000 
     84 N          -4.1503  -22.7780  -48.9081 N.am      15 UNK        -0.5000 
     85 CA         -3.4338  -21.8995  -49.8415 C.3       15 UNK         0.1400 
     86 CB         -4.4183  -21.0686  -50.6876 C.3       15 UNK        -0.1800 
     87 C          -2.4056  -22.6891  -50.6763 C.2       15 UNK         0.5000 
     88 O          -2.3872  -22.6008  -51.9068 O.2       15 UNK        -0.5000 
     89 N          -1.6008  -23.4860  -49.9564 N.am      16 UNK        -0.5000 
     90 CA         -0.5929  -24.4262  -50.4519 C.3       16 UNK         0.1400 
     91 CB          0.5974  -23.6578  -51.0636 C.3       16 UNK        -0.1800 
     92 C          -1.1974  -25.4712  -51.4127 C.2       16 UNK         0.5000 
     93 O          -0.7217  -25.6245  -52.5366 O.2       16 UNK        -0.5000 
     94 N          -2.2705  -26.1393  -50.9650 N.am      17 UNK        -0.5000 
     95 CA         -3.0924  -27.0988  -51.7126 C.3       17 UNK         0.1400 
     96 CB         -2.3071  -28.4014  -51.9700 C.3       17 UNK        -0.1800 
     97 C          -3.6968  -26.4887  -52.9963 C.2       17 UNK         0.5000 
     98 O          -3.7212  -27.1367  -54.0444 O.2       17 UNK        -0.5000 
     99 N          -4.1484  -25.2321  -52.8802 N.am      18 UNK        -0.5000 
    100 CA        -4.6961  -24.3668  -53.9269 C.3       18 UNK         0.1400 
    101 CB        -6.0468  -24.9150  -54.4318 C.3       18 UNK        -0.1800 
    102 C         -3.7113  -24.0484  -55.0753 C.2       18 UNK         0.5000 
    103 O         -4.1541  -23.6935  -56.1691 O.2       18 UNK        -0.5000 
    104 N         -2.3981  -24.1570  -54.8216 N.am      19 UNK        -0.5000 
    105 CA        -1.3457  -23.8111  -55.7821 C.3       19 UNK         0.1400 
    106 CB        -0.0457  -24.5378  -55.4081 C.3       19 UNK        -0.1800 
    107 C         -1.0985  -22.2936  -55.8802 C.2       19 UNK         0.5000 
    108 O         -0.4785  -21.8488  -56.8480 O.2       19 UNK        -0.5000 
    109 N         -1.5652  -21.5298  -54.8821 N.am      20 UNK        -0.5000 
    110 CA        -1.4905  -20.0711  -54.8284 C.3       20 UNK         0.1400 
    111 CB        -2.0592  -19.6040  -53.4846 C.3       20 UNK        -0.1800 
    112 C         -2.2493  -19.3785  -55.9774 C.2       20 UNK         0.5000 
    113 O         -3.2534  -19.9025  -56.4670 O.2       20 UNK        -0.5000 
    114 N         -1.7847  -18.1752  -56.3415 N.am      21 UNK        -0.5000 
    115 CA        -2.3333  -17.3374  -57.4149 C.3       21 UNK         0.1400 
    116 CB        -1.4261  -16.1111  -57.6001 C.3       21 UNK        -0.1800 
    117 C         -3.7967  -16.8969  -57.2025 C.2       21 UNK         0.5000 
    118 O         -4.4822  -16.5912  -58.1792 O.2       21 UNK        -0.5000 
    119 N         -4.2517  -16.8900  -55.9436 N.am      22 UNK        -0.5000 
    120 CA        -5.6562  -16.6926  -55.5573 C.3       22 UNK         0.1400 
    121 C         -6.5950  -17.9014  -55.8609 C.2       22 UNK         0.5000 
    122 N         -6.0909  -19.0720  -56.2372 N.am      22 UNK        -0.7600 
    123 O         -7.8123  -17.7669  -55.7692 O.2       22 UNK        -0.5000 
    124 C124       -5.7832  -16.2124  -54.0880 C.3       23 UNK        -0.0398 
    125 S125       -5.0478  -17.3602  -52.8698 S.3       23 UNK        -0.2404 
    126 C126       -4.0546  -16.2217  -51.8578 C.3       23 UNK        -0.0205 
    127 H127       -3.3323  -13.1278  -48.3061 H         1 UNK         0.0600 
    128 H128       -3.5257  -14.8728  -48.1685 H         1 UNK         0.0600 
    129 H129       -2.8639  -14.1701  -49.6540 H         1 UNK         0.0600 
    130 H130       -1.5712  -16.2253  -48.0064 H         1 UNK         0.3000 
    131 H131        1.0165  -14.9785  -47.5567 H         1 UNK         0.0600 
    132 H132        0.1467  -17.8885  -47.2547 H         1 UNK         0.0800 
    133 H133        1.7739  -17.3233  -47.0754 H         1 UNK         0.0800 
    134 H134        0.1987  -19.4432  -49.3731 H         1 UNK         0.0800 
    135 H135        0.2459  -18.7694  -50.9776 H         1 UNK         0.0800 
    136 H136       -1.4710  -17.1010  -51.7165 H         1 UNK         0.1150 
    137 H137       -5.1111  -16.9435  -49.4602 H         1 UNK         0.1150 
    138 H138       -1.7014  -19.0267  -47.9059 H         1 UNK         0.1150 
    139 H139       -5.0460  -17.5126  -47.1100 H         1 UNK         0.0800 
    140 H140       -4.7460  -19.2156  -47.3261 H         1 UNK         0.0800 
    141 H141       -4.8430  -19.6188  -44.7880 H         1 UNK         0.0800 
    142 H142       -3.3989  -19.5762  -43.8132 H         1 UNK         0.0800 
    143 H143       -3.6612  -21.0014  -46.5098 H         1 UNK         0.0600 
    144 H144       -1.2746  -20.5738  -44.9249 H         1 UNK         0.3000 
    145 H145        0.6049  -23.1457  -46.5376 H         1 UNK         0.0600 
    146 H146        0.7674  -20.1309  -47.0105 H         1 UNK         0.0600 
    147 H147        2.1258  -21.2472  -47.1140 H         1 UNK         0.0600 
    148 H148        0.7849  -21.3948  -48.2386 H         1 UNK         0.0600 
    149 H149        1.2011  -20.9991  -44.6798 H         1 UNK         0.3000 
    150 H150        0.2976  -22.8178  -41.7572 H         1 UNK         0.0600 
    151 H151        2.5014  -23.8961  -42.2485 H         1 UNK         0.0600 
    152 H152        2.6780  -22.5826  -41.0964 H         1 UNK         0.0600 
    153 H153        3.1515  -22.3497  -42.7801 H         1 UNK         0.0600 
    154 H154        1.7731  -20.4168  -42.0618 H         1 UNK         0.3000 
    155 H155       -0.6717  -18.2149  -43.1398 H         1 UNK         0.0600 
    156 H156       -1.5401  -18.3505  -40.8069 H         1 UNK         0.0600 
    157 H157       -0.4567  -16.9805  -40.9768 H         1 UNK         0.0600 
    158 H158        0.1008  -18.4499  -40.1798 H         1 UNK         0.0600 
    159 H159        1.7817  -17.6342  -41.8759 H         1 UNK         0.3000 
    160 H160        4.0390  -18.3984  -43.0942 H         1 UNK         0.0600 
    161 H161        5.1786  -17.5709  -45.0913 H         1 UNK         0.0600 
    162 H162        3.6575  -17.1580  -45.8643 H         1 UNK         0.0600 
    163 H163        4.0784  -18.8481  -45.5830 H         1 UNK         0.0600 
    164 H164        2.7267  -15.8050  -43.7609 H         1 UNK         0.3000 
    165 H165        3.3082  -14.3751  -41.2499 H         1 UNK         0.0600 
    166 H166        6.1478  -13.7330  -42.1921 H         1 UNK         0.0600 
    167 H167        5.1481  -12.6886  -41.1829 H         1 UNK         0.0600 
    168 H168        5.6757  -14.2485  -40.5774 H         1 UNK         0.0600 
    169 H169        2.7058  -12.9702  -42.8158 H         1 UNK         0.3000 
    170 H170        4.2151  -11.5614  -45.5561 H         1 UNK         0.0600 
    171 H171        1.5773  -13.0021  -46.0047 H         1 UNK         0.0600 
    172 H172        2.3996  -11.8714  -47.0626 H         1 UNK         0.0600 
    173 H173        3.0583  -13.4839  -46.8311 H         1 UNK         0.0600 
    174 H174        1.5555  -11.3976  -44.3547 H         1 UNK         0.3000 
    175 H175        2.5164   -9.3149  -41.6929 H         1 UNK         0.0600 
    176 H176        1.1615   -8.3081  -44.2517 H         1 UNK         0.0600 
    177 H177        1.0503   -7.5660  -42.6546 H         1 UNK         0.0600 
    178 H178        2.5851   -7.5912  -43.5066 H         1 UNK         0.0600 
    179 H179       -0.0688   -9.7955  -42.6720 H         1 UNK         0.3000 
    180 H180       -0.7995  -12.0672  -40.3470 H         1 UNK         0.0600 
    181 H181       -1.8793  -10.8490  -42.9511 H         1 UNK         0.0600 
    182 H182       -1.8219  -10.0592  -41.3761 H         1 UNK         0.0600 
    183 H183       -2.8454  -11.4604  -41.6162 H         1 UNK         0.0600 
    184 H184       -1.0532  -14.0265  -41.3141 H         1 UNK         0.3000 
    185 H185       -0.3236  -15.7070  -43.0192 H         1 UNK         0.0600 
    186 H186       -2.6079  -16.6422  -43.3091 H         1 UNK         0.0600 
    187 H187       -2.6528  -15.3685  -42.1143 H         1 UNK         0.0600 
    188 H188       -3.2360  -15.0537  -43.7437 H         1 UNK         0.0600 
    189 H189       -1.7103  -15.5096  -45.5728 H         1 UNK         0.3000 
    190 H190       -2.4178  -22.1969  -43.3900 H         1 UNK         0.3000 
    191 H191       -4.6352  -23.8393  -42.7035 H         1 UNK         0.0600 
    192 H192       -1.6693  -24.2627  -42.0590 H         1 UNK         0.0600 
    193 H193       -2.7692  -23.2348  -41.1411 H         1 UNK         0.0600 
    194 H194       -3.0318  -24.9714  -41.2077 H         1 UNK         0.0600 
    195 H195       -1.9914  -24.3278  -44.9760 H         1 UNK         0.3000 
    196 H196       -2.7403  -27.0798  -45.6605 H         1 UNK         0.0600 
    197 H197       -0.3440  -26.3245  -45.6141 H         1 UNK         0.0600 
    198 H198       -0.6847  -25.1926  -46.9203 H         1 UNK         0.0600 
    199 H199       -0.8222  -26.9236  -47.1929 H         1 UNK         0.0600 
    200 H200       -4.5582  -24.5501  -46.1309 H         1 UNK         0.3000 
    201 H201       -6.1647  -23.9332  -47.5014 H         1 UNK         0.0600 
    202 H202       -7.1555  -25.5578  -49.0671 H         1 UNK         0.0600 
    203 H203       -6.7225  -26.3654  -47.5690 H         1 UNK         0.0600 
    204 H204       -5.7193  -26.5669  -49.0047 H         1 UNK         0.0600 
    205 H205       -3.9209  -22.6446  -47.9329 H         1 UNK         0.3000 
    206 H206       -2.8623  -21.2010  -49.2296 H         1 UNK         0.0600 
    207 H207       -5.1565  -20.5717  -50.0584 H         1 UNK         0.0600 
    208 H208       -4.9520  -21.6800  -51.4157 H         1 UNK         0.0600 
    209 H209       -3.8903  -20.2871  -51.2328 H         1 UNK         0.0600 
    210 H210       -1.7184  -23.4580  -48.9472 H         1 UNK         0.3000 
    211 H211       -0.2252  -24.9768  -49.5849 H         1 UNK         0.0600 
    212 H212        1.0215  -22.9543  -50.3474 H         1 UNK         0.0600 
    213 H213        1.3938  -24.3422  -51.3575 H         1 UNK         0.0600 
    214 H214        0.3051  -23.0960  -51.9515 H         1 UNK         0.0600 
    215 H215       -2.5813  -25.9776  -50.0083 H         1 UNK         0.3000 
    216 H216       -3.9361  -27.3434  -51.0656 H         1 UNK         0.0600 
    217 H217       -2.9491  -29.1635  -52.4131 H         1 UNK         0.0600 
    218 H218       -1.4701  -28.2425  -52.6506 H         1 UNK         0.0600 
    219 H219       -1.9114  -28.8117  -51.0410 H         1 UNK         0.0600 
    220 H220       -4.1309  -24.8105  -51.9558 H         1 UNK         0.3000 
    221 H221       -4.8943  -23.4116  -53.4386 H         1 UNK         0.0600 
    222 H222       -5.9234  -25.8426  -54.9914 H         1 UNK         0.0600 
    223 H223       -6.7267  -25.1101  -53.6024 H         1 UNK         0.0600 
    224 H224       -6.5399  -24.1991  -55.0903 H         1 UNK         0.0600 
    225 H225       -2.0958  -24.4633  -53.9040 H         1 UNK         0.3000 
    226 H226       -1.6492  -24.1597  -56.7714 H         1 UNK         0.0600 
    227 H227       -0.2035  -25.6129  -55.3191 H         1 UNK         0.0600 
    228 H228        0.7198  -24.3833  -56.1693 H         1 UNK         0.0600 
    229 H229        0.3585  -24.1751  -54.4624 H         1 UNK         0.0600 
    230 H230       -2.0415  -21.9848  -54.1132 H         1 UNK         0.3000 
    231 H231       -0.4375  -19.7884  -54.8844 H         1 UNK         0.0600 
    232 H232       -2.0348  -18.5178  -53.4122 H         1 UNK         0.0600 
    233 H233       -1.4897  -20.0043  -52.6456 H         1 UNK         0.0600 
    234 H234       -3.0982  -19.9135  -53.3681 H         1 UNK         0.0600 
    235 H235       -0.9686  -17.8094  -55.8725 H         1 UNK         0.3000 
    236 H236       -2.3057  -17.9247  -58.3349 H         1 UNK         0.0600 
    237 H237       -0.4067  -16.4070  -57.8485 H         1 UNK         0.0600 
    238 H238       -1.7850  -15.4775  -58.4123 H         1 UNK         0.0600 
    239 H239       -1.3894  -15.4988  -56.6982 H         1 UNK         0.0600 
    240 H240       -3.6274  -17.1701  -55.2024 H         1 UNK         0.3000 
    241 H241       -6.0404  -15.8801  -56.1771 H         1 UNK         0.0600 
    242 H242       -5.0894  -19.2198  -56.3156 H         1 UNK         0.3800 
    243 H243       -6.7180  -19.8348  -56.4351 H         1 UNK         0.3800 
    244 H244       -5.3065  -15.2359  -53.9934 H         1 UNK         0.0800 
    245 H245       -6.8294  -16.0502  -53.8234 H         1 UNK         0.0800 
    246 H246       -4.6962  -15.4387  -51.4505 H         1 UNK         0.0800 
    247 H247       -3.3134  -15.7248  -52.4857 H         1 UNK         0.0800 
@<TRIPOS>BOND
     1    1    2 1    
     2    1  127 1    
     3    1  128 1    
     4    1  129 1    
     5    2    3 2    
     6    2    4 am   BACKBONE|DICT|INTERRES
     7    4    5 1    
     8    4  130 1    
     9    5    6 1    
    10    5   65 1    
    11    5  131 1    
    12    6    7 1    
    13    6  132 1    
    14    6  133 1    
    15    7    8 1    
    16    8    9 1    
    17    8  134 1    
    18    8  135 1    
    19    9   10 ar   
    20    9   14 ar   
    21   10   11 ar   
    22   10  136 1    
    23   11   12 ar   
    24   11  126 1    
    25   12   13 ar   
    26   12  137 1    
    27   13   14 ar   
    28   13   15 1    
    29   14  138 1    
    30   15   16 1    
    31   15  139 1    
    32   15  140 1    
    33   16   17 1    
    34   17   18 1    
    35   17  141 1    
    36   17  142 1    
    37   18   19 1    
    38   18   67 1    
    39   18  143 1    
    40   19   20 am   BACKBONE|DICT|INTERRES
    41   19  144 1    
    42   20   21 2    
    43   20   22 1    
    44   22   23 1    
    45   22   24 1    
    46   22  145 1    
    47   23  146 1    
    48   23  147 1    
    49   23  148 1    
    50   24   25 am   BACKBONE|DICT|INTERRES
    51   24  149 1    
    52   25   26 2    
    53   25   27 1    
    54   27   28 1    
    55   27   29 1    
    56   27  150 1    
    57   28  151 1    
    58   28  152 1    
    59   28  153 1    
    60   29   30 am   BACKBONE|DICT|INTERRES
    61   29  154 1    
    62   30   31 2    
    63   30   32 1    
    64   32   33 1    
    65   32   34 1    
    66   32  155 1    
    67   33  156 1    
    68   33  157 1    
    69   33  158 1    
    70   34   35 am   BACKBONE|DICT|INTERRES
    71   34  159 1    
    72   35   36 2    
    73   35   37 1    
    74   37   38 1    
    75   37   39 1    
    76   37  160 1    
    77   38  161 1    
    78   38  162 1    
    79   38  163 1    
    80   39   40 am   BACKBONE|DICT|INTERRES
    81   39  164 1    
    82   40   41 2    
    83   40   42 1    
    84   42   43 1    
    85   42   44 1    
    86   42  165 1    
    87   43  166 1    
    88   43  167 1    
    89   43  168 1    
    90   44   45 am   BACKBONE|DICT|INTERRES
    91   44  169 1    
    92   45   46 2    
    93   45   47 1    
    94   47   48 1    
    95   47   49 1    
    96   47  170 1    
    97   48  171 1    
    98   48  172 1    
    99   48  173 1    
   100   49   50 am   BACKBONE|DICT|INTERRES
   101   49  174 1    
   102   50   51 2    
   103   50   52 1    
   104   52   53 1    
   105   52   54 1    
   106   52  175 1    
   107   53  176 1    
   108   53  177 1    
   109   53  178 1    
   110   54   55 am   BACKBONE|DICT|INTERRES
   111   54  179 1    
   112   55   56 2    
   113   55   57 1    
   114   57   58 1    
   115   57   59 1    
   116   57  180 1    
   117   58  181 1    
   118   58  182 1    
   119   58  183 1    
   120   59   60 am   BACKBONE|DICT|INTERRES
   121   59  184 1    
   122   60   61 2    
   123   60   62 1    
   124   62   63 1    
   125   62   64 1    
   126   62  185 1    
   127   63  186 1    
   128   63  187 1    
   129   63  188 1    
   130   64   65 am   BACKBONE|DICT|INTERRES
   131   64  189 1    
   132   65   66 2    
   133   67   68 2    
   134   67   69 am   BACKBONE|DICT|INTERRES
   135   69   70 1    
   136   69  190 1    
   137   70   71 1    
   138   70   72 1    
   139   70  191 1    
   140   71  192 1    
   141   71  193 1    
   142   71  194 1    
   143   72   73 2    
   144   72   74 am   BACKBONE|DICT|INTERRES
   145   74   75 1    
   146   74  195 1    
   147   75   76 1    
   148   75   77 1    
   149   75  196 1    
   150   76  197 1    
   151   76  198 1    
   152   76  199 1    
   153   77   78 2    
   154   77   79 am   BACKBONE|DICT|INTERRES
   155   79   80 1    
   156   79  200 1    
   157   80   81 1    
   158   80   82 1    
   159   80  201 1    
   160   81  202 1    
   161   81  203 1    
   162   81  204 1    
   163   82   83 2    
   164   82   84 am   BACKBONE|DICT|INTERRES
   165   84   85 1    
   166   84  205 1    
   167   85   86 1    
   168   85   87 1    
   169   85  206 1    
   170   86  207 1    
   171   86  208 1    
   172   86  209 1    
   173   87   88 2    
   174   87   89 am   BACKBONE|DICT|INTERRES
   175   89   90 1    
   176   89  210 1    
   177   90   91 1    
   178   90   92 1    
   179   90  211 1    
   180   91  212 1    
   181   91  213 1    
   182   91  214 1    
   183   92   93 2    
   184   92   94 am   BACKBONE|DICT|INTERRES
   185   94   95 1    
   186   94  215 1    
   187   95   96 1    
   188   95   97 1    
   189   95  216 1    
   190   96  217 1    
   191   96  218 1    
   192   96  219 1    
   193   97   98 2    
   194   97   99 am   BACKBONE|DICT|INTERRES
   195   99  100 1    
   196   99  220 1    
   197  100  101 1    
   198  100  102 1    
   199  100  221 1    
   200  101  222 1    
   201  101  223 1    
   202  101  224 1    
   203  102  103 2    
   204  102  104 am   BACKBONE|DICT|INTERRES
   205  104  105 1    
   206  104  225 1    
   207  105  106 1    
   208  105  107 1    
   209  105  226 1    
   210  106  227 1    
   211  106  228 1    
   212  106  229 1    
   213  107  108 2    
   214  107  109 am   BACKBONE|DICT|INTERRES
   215  109  110 1    
   216  109  230 1    
   217  110  111 1    
   218  110  112 1    
   219  110  231 1    
   220  111  232 1    
   221  111  233 1    
   222  111  234 1    
   223  112  113 2    
   224  112  114 am   BACKBONE|DICT|INTERRES
   225  114  115 1    
   226  114  235 1    
   227  115  116 1    
   228  115  117 1    
   229  115  236 1    
   230  116  237 1    
   231  116  238 1    
   232  116  239 1    
   233  117  118 2    
   234  117  119 am   BACKBONE|DICT|INTERRES
   235  119  120 1    
   236  119  240 1    
   237  120  121 1    
   238  120  124 1    
   239  120  241 1    
   240  121  122 am   BACKBONE|DICT|INTERRES
   241  121  123 2    
   242  122  242 1    
   243  122  243 1    
   244  124  125 1    
   245  124  244 1    
   246  124  245 1    
   247  125  126 1    
   248  126  246 1    
   249  126  247 1    
@<TRIPOS>SUBSTRUCTURE
     1 UNK         1 GROUP             0       ****    0 ROOT    
