@<TRIPOS>MOLECULE
3R540
247   249    1
SMALL
USER_CHARGES


@<TRIPOS>ATOM
      1 CA          3.6954  -16.7679  -52.2943 C.3       0 UNK        -0.1800 
      2 C           4.6601  -15.9700  -51.4321 C.2       0 UNK         0.5000 
      3 O           5.4700  -15.2130  -51.9678 O.2       0 UNK        -0.5000 
      4 N           4.5847  -16.1354  -50.1046 N.am      1 UNK        -0.5000 
      5 CA          5.4233  -15.4186  -49.1353 C.3       1 UNK         0.1400 
      6 C6          5.4582  -16.1273  -47.7562 C.3       23 UNK        -0.0398 
      7 S7          3.8649  -16.1552  -46.8523 S.3       23 UNK        -0.2404 
      8 C8          3.4765  -17.9303  -46.7963 C.3       23 UNK        -0.0205 
      9 C9          2.9366  -18.4459  -48.1211 C.ar      23 UNK        -0.0193 
     10 C10         1.6780  -18.0385  -48.5695 C.ar      23 UNK        -0.1150 
     11 C11         1.1554  -18.5292  -49.7686 C.ar      23 UNK        -0.0193 
     12 C12         1.8971  -19.4476  -50.5176 C.ar      23 UNK        -0.1150 
     13 C13         3.1678  -19.8465  -50.0906 C.ar      23 UNK        -0.0193 
     14 C14         3.6822  -19.3403  -48.8922 C.ar      23 UNK        -0.1150 
     15 C15         4.0039  -20.7909  -50.9436 C.3       23 UNK        -0.0205 
     16 S16         3.4513  -22.5239  -50.8374 S.3       23 UNK        -0.2404 
     17 C17         3.7696  -22.9221  -49.0820 C.3       23 UNK        -0.0398 
     18 CA          2.6315  -23.7076  -48.3855 C.3       11 UNK         0.1400 
     19 N           3.0060  -24.0479  -47.0098 N.am      11 UNK        -0.5000 
     20 C           2.3627  -24.9311  -46.2338 C.2       10 UNK         0.5000 
     21 O           1.4066  -25.6045  -46.6140 O.2       10 UNK        -0.5000 
     22 CA          2.8340  -25.0335  -44.7691 C.3       10 UNK         0.1400 
     23 CB          3.9819  -26.0455  -44.6405 C.3       10 UNK        -0.1800 
     24 N           3.2538  -23.7440  -44.2076 N.am      10 UNK        -0.5000 
     25 C           2.4489  -22.6817  -44.0783 C.2       9 UNK         0.5000 
     26 O           1.2562  -22.6904  -44.3973 O.2       9 UNK        -0.5000 
     27 CA          3.0900  -21.3814  -43.5734 C.3       9 UNK         0.1400 
     28 CB          4.0913  -20.8278  -44.6045 C.3       9 UNK        -0.1800 
     29 N           2.0238  -20.4121  -43.3572 N.am      9 UNK        -0.5000 
     30 C           2.0625  -19.3362  -42.5668 C.2       8 UNK         0.5000 
     31 O           3.0552  -19.0011  -41.9197 O.2       8 UNK        -0.5000 
     32 CA          0.7790  -18.4821  -42.4857 C.3       8 UNK         0.1400 
     33 CB          0.9396  -17.1938  -43.3096 C.3       8 UNK        -0.1800 
     34 N          -0.4345  -19.1657  -42.9420 N.am      8 UNK        -0.5000 
     35 C          -1.0496  -20.1849  -42.3302 C.2       7 UNK         0.5000 
     36 O          -0.6492  -20.6902  -41.2809 O.2       7 UNK        -0.5000 
     37 CA         -2.3437  -20.6940  -43.0059 C.3       7 UNK         0.1400 
     38 CB         -2.8872  -21.9789  -42.3569 C.3       7 UNK        -0.1800 
     39 N          -3.4020  -19.6809  -42.9971 N.am      7 UNK        -0.5000 
     40 C          -3.4374  -18.5846  -43.7643 C.2       6 UNK         0.5000 
     41 O          -2.5817  -18.3202  -44.6148 O.2       6 UNK        -0.5000 
     42 CA         -4.6005  -17.6123  -43.5208 C.3       6 UNK         0.1400 
     43 CB         -4.4637  -16.9096  -42.1573 C.3       6 UNK        -0.1800 
     44 N          -4.5877  -16.6232  -44.5891 N.am      6 UNK        -0.5000 
     45 C          -5.6189  -15.8793  -45.0037 C.2       5 UNK         0.5000 
     46 O          -6.7314  -15.9032  -44.4746 O.2       5 UNK        -0.5000 
     47 CA         -5.3441  -14.9341  -46.1906 C.3       5 UNK         0.1400 
     48 CB         -6.2323  -13.6756  -46.1748 C.3       5 UNK        -0.1800 
     49 N          -3.9338  -14.5394  -46.2150 N.am      5 UNK        -0.5000 
     50 C          -3.1975  -14.3730  -47.3177 C.2       4 UNK         0.5000 
     51 O          -3.6321  -14.4970  -48.4640 O.2       4 UNK        -0.5000 
     52 CA         -1.7076  -14.0609  -47.0833 C.3       4 UNK         0.1400 
     53 CB         -0.9129  -15.3624  -46.8805 C.3       4 UNK        -0.1800 
     54 N          -1.1086  -13.3226  -48.1916 N.am      4 UNK        -0.5000 
     55 C          -1.4048  -12.0705  -48.5588 C.2       3 UNK         0.5000 
     56 O          -2.2026  -11.3527  -47.9520 O.2       3 UNK        -0.5000 
     57 CA         -0.6274  -11.5231  -49.7788 C.3       3 UNK         0.1400 
     58 CB         -1.0887  -10.1151  -50.1961 C.3       3 UNK        -0.1800 
     59 N           0.8175  -11.4906  -49.5272 N.am      3 UNK        -0.5000 
     60 C           1.6188  -12.5626  -49.5212 C.2       2 UNK         0.5000 
     61 O           1.2274  -13.6968  -49.8122 O.2       2 UNK        -0.5000 
     62 CA          3.0741  -12.3499  -49.0725 C.3       2 UNK         0.1400 
     63 CB          3.1278  -11.8566  -47.6105 C.3       2 UNK        -0.1800 
     64 N           3.7482  -13.6353  -49.2013 N.am      2 UNK        -0.5000 
     65 C           5.0384  -13.9261  -49.0093 C.2       1 UNK         0.5000 
     66 O           5.9040  -13.0892  -48.7482 O.2       1 UNK        -0.5000 
     67 C           1.2660  -22.9822  -48.4370 C.2       11 UNK         0.5000 
     68 O           0.4457  -23.2950  -49.2999 O.2       11 UNK        -0.5000 
     69 N           1.0169  -22.0766  -47.4786 N.am      12 UNK        -0.5000 
     70 CA         -0.2636  -21.3847  -47.3268 C.3       12 UNK         0.1400 
     71 CB         -0.1243  -20.2374  -46.3182 C.3       12 UNK        -0.1800 
     72 C          -1.3814  -22.3483  -46.8943 C.2       12 UNK         0.5000 
     73 O          -2.4812  -22.2848  -47.4409 O.2       12 UNK        -0.5000 
     74 N          -1.0713  -23.2484  -45.9499 N.am      13 UNK        -0.5000 
     75 CA         -1.9565  -24.3168  -45.4836 C.3       13 UNK         0.1400 
     76 CB         -1.2913  -25.0733  -44.3242 C.3       13 UNK        -0.1800 
     77 C          -2.3555  -25.2830  -46.6144 C.2       13 UNK         0.5000 
     78 O          -3.5402  -25.5860  -46.7589 O.2       13 UNK        -0.5000 
     79 N          -1.3725  -25.6909  -47.4317 N.am      14 UNK        -0.5000 
     80 CA         -1.5587  -26.5051  -48.6365 C.3       14 UNK         0.1400 
     81 CB         -0.1883  -26.9106  -49.1990 C.3       14 UNK        -0.1800 
     82 C          -2.4055  -25.8080  -49.7196 C.2       14 UNK         0.5000 
     83 O          -3.1315  -26.4844  -50.4477 O.2       14 UNK        -0.5000 
     84 N          -2.3520  -24.4701  -49.7654 N.am      15 UNK        -0.5000 
     85 CA         -3.1942  -23.6051  -50.5931 C.3       15 UNK         0.1400 
     86 CB         -2.4258  -22.3122  -50.9187 C.3       15 UNK        -0.1800 
     87 C          -4.5706  -23.3124  -49.9518 C.2       15 UNK         0.5000 
     88 O          -5.1588  -22.2646  -50.2299 O.2       15 UNK        -0.5000 
     89 N          -5.0633  -24.2314  -49.1084 N.am      16 UNK        -0.5000 
     90 CA         -6.3517  -24.2094  -48.4100 C.3       16 UNK         0.1400 
     91 CB         -7.5148  -24.3322  -49.4169 C.3       16 UNK        -0.1800 
     92 C          -6.4887  -23.0108  -47.4497 C.2       16 UNK         0.5000 
     93 O          -7.5334  -22.3599  -47.4161 O.2       16 UNK        -0.5000 
     94 N          -5.4097  -22.7459  -46.6978 N.am      17 UNK        -0.5000 
     95 CA         -5.2151  -21.6021  -45.7994 C.3       17 UNK         0.1400 
     96 CB         -6.2030  -21.6400  -44.6146 C.3       17 UNK        -0.1800 
     97 C          -5.2251  -20.2689  -46.5735 C.2       17 UNK         0.5000 
     98 O          -5.9304  -19.3331  -46.1950 O.2       17 UNK        -0.5000 
     99 N          -4.4306  -20.2373  -47.6531 N.am      18 UNK        -0.5000 
    100 CA        -4.2494  -19.1410  -48.6060 C.3       18 UNK         0.1400 
    101 CB        -3.4726  -17.9858  -47.9506 C.3       18 UNK        -0.1800 
    102 C         -5.5753  -18.6972  -49.2580 C.2       18 UNK         0.5000 
    103 O         -5.9304  -17.5173  -49.2208 O.2       18 UNK        -0.5000 
    104 N         -6.2884  -19.6739  -49.8301 N.am      19 UNK        -0.5000 
    105 CA        -7.5204  -19.4747  -50.5914 C.3       19 UNK         0.1400 
    106 CB        -8.6548  -20.2828  -49.9451 C.3       19 UNK        -0.1800 
    107 C         -7.3311  -19.8819  -52.0618 C.2       19 UNK         0.5000 
    108 O         -7.8963  -19.2335  -52.9430 O.2       19 UNK        -0.5000 
    109 N         -6.5316  -20.9292  -52.3120 N.am      20 UNK        -0.5000 
    110 CA        -6.1971  -21.4169  -53.6527 C.3       20 UNK         0.1400 
    111 CB        -5.8740  -22.9164  -53.5688 C.3       20 UNK        -0.1800 
    112 C         -5.0219  -20.6481  -54.2893 C.2       20 UNK         0.5000 
    113 O         -4.8197  -20.7481  -55.5002 O.2       20 UNK        -0.5000 
    114 N         -4.2718  -19.9003  -53.4736 N.am      21 UNK        -0.5000 
    115 CA        -3.1628  -19.0400  -53.8655 C.3       21 UNK         0.1400 
    116 CB        -1.8473  -19.8388  -53.8522 C.3       21 UNK        -0.1800 
    117 C         -3.1041  -17.8621  -52.8845 C.2       21 UNK         0.5000 
    118 O         -3.6512  -17.9615  -51.7844 O.2       21 UNK        -0.5000 
    119 N         -2.4351  -16.7824  -53.3033 N.am      22 UNK        -0.5000 
    120 CA        -2.2383  -15.5215  -52.5595 C.3       22 UNK         0.1400 
    121 C         -3.4877  -14.5926  -52.4781 C.2       22 UNK         0.5000 
    122 N         -4.6142  -14.9294  -53.0940 N.am      22 UNK        -0.7600 
    123 O         -3.4174  -13.5139  -51.8957 O.2       22 UNK        -0.5000 
    124 C124       -1.5648  -15.7056  -51.1711 C.3       23 UNK        -0.0398 
    125 S125        0.0577  -16.5300  -51.2782 S.3       23 UNK        -0.2404 
    126 C126       -0.1866  -18.0232  -50.2691 C.3       23 UNK        -0.0205 
    127 H127        2.9125  -17.2234  -51.6936 H         1 UNK         0.0600 
    128 H128        4.2259  -17.5585  -52.8244 H         1 UNK         0.0600 
    129 H129        3.2177  -16.1189  -53.0282 H         1 UNK         0.0600 
    130 H130        3.8995  -16.7684  -49.7133 H         1 UNK         0.3000 
    131 H131        6.4453  -15.4387  -49.5204 H         1 UNK         0.0600 
    132 H132        6.1933  -15.6408  -47.1128 H         1 UNK         0.0800 
    133 H133        5.8219  -17.1474  -47.8844 H         1 UNK         0.0800 
    134 H134        2.7292  -18.1005  -46.0207 H         1 UNK         0.0800 
    135 H135        4.3635  -18.4852  -46.4885 H         1 UNK         0.0800 
    136 H136        1.1091  -17.3290  -47.9857 H         1 UNK         0.1150 
    137 H137        1.5016  -19.8246  -51.4503 H         1 UNK         0.1150 
    138 H138        4.6643  -19.6445  -48.5585 H         1 UNK         0.1150 
    139 H139        3.9516  -20.4702  -51.9850 H         1 UNK         0.0800 
    140 H140        5.0569  -20.7330  -50.6635 H         1 UNK         0.0800 
    141 H141        3.9864  -22.0130  -48.5235 H         1 UNK         0.0800 
    142 H142        4.6875  -23.5106  -49.0490 H         1 UNK         0.0800 
    143 H143        2.5082  -24.6484  -48.9266 H         1 UNK         0.0600 
    144 H144        3.7871  -23.5475  -46.6132 H         1 UNK         0.3000 
    145 H145        1.9921  -25.3966  -44.1764 H         1 UNK         0.0600 
    146 H146        4.2651  -26.1900  -43.5978 H         1 UNK         0.0600 
    147 H147        3.6886  -27.0198  -45.0340 H         1 UNK         0.0600 
    148 H148        4.8682  -25.7232  -45.1884 H         1 UNK         0.0600 
    149 H149        4.2204  -23.6680  -43.9250 H         1 UNK         0.3000 
    150 H150        3.5951  -21.5864  -42.6276 H         1 UNK         0.0600 
    151 H151        4.9293  -21.5099  -44.7503 H         1 UNK         0.0600 
    152 H152        4.5091  -19.8748  -44.2796 H         1 UNK         0.0600 
    153 H153        3.6199  -20.6728  -45.5756 H         1 UNK         0.0600 
    154 H154        1.1478  -20.6689  -43.7915 H         1 UNK         0.3000 
    155 H155        0.6385  -18.2063  -41.4387 H         1 UNK         0.0600 
    156 H156        1.0325  -17.4072  -44.3751 H         1 UNK         0.0600 
    157 H157        1.8287  -16.6393  -43.0064 H         1 UNK         0.0600 
    158 H158        0.0837  -16.5318  -43.1765 H         1 UNK         0.0600 
    159 H159       -0.8951  -18.7728  -43.7579 H         1 UNK         0.3000 
    160 H160       -2.0967  -20.9311  -44.0424 H         1 UNK         0.0600 
    161 H161       -3.2152  -21.8049  -41.3314 H         1 UNK         0.0600 
    162 H162       -2.1233  -22.7555  -42.3269 H         1 UNK         0.0600 
    163 H163       -3.7326  -22.3789  -42.9161 H         1 UNK         0.0600 
    164 H164       -4.1158  -19.7997  -42.2928 H         1 UNK         0.3000 
    165 H165       -5.5346  -18.1763  -43.5607 H         1 UNK         0.0600 
    166 H166       -5.2823  -16.2098  -41.9880 H         1 UNK         0.0600 
    167 H167       -4.4820  -17.6279  -41.3371 H         1 UNK         0.0600 
    168 H168       -3.5286  -16.3525  -42.0863 H         1 UNK         0.0600 
    169 H169       -3.7242  -16.6214  -45.1177 H         1 UNK         0.3000 
    170 H170       -5.5782  -15.5078  -47.0901 H         1 UNK         0.0600 
    171 H171       -7.2900  -13.9392  -46.2094 H         1 UNK         0.0600 
    172 H172       -6.0678  -13.0815  -45.2753 H         1 UNK         0.0600 
    173 H173       -6.0306  -13.0409  -47.0379 H         1 UNK         0.0600 
    174 H174       -3.5029  -14.4143  -45.3091 H         1 UNK         0.3000 
    175 H175       -1.6155  -13.4484  -46.1840 H         1 UNK         0.0600 
    176 H176       -0.9619  -15.9981  -47.7649 H         1 UNK         0.0600 
    177 H177        0.1381  -15.1577  -46.6741 H         1 UNK         0.0600 
    178 H178       -1.3018  -15.9399  -46.0406 H         1 UNK         0.0600 
    179 H179       -0.4096  -13.8124  -48.7409 H         1 UNK         0.3000 
    180 H180       -0.8261  -12.1954  -50.6166 H         1 UNK         0.0600 
    181 H181       -0.9101   -9.3812  -49.4093 H         1 UNK         0.0600 
    182 H182       -2.1562  -10.1055  -50.4204 H         1 UNK         0.0600 
    183 H183       -0.5676   -9.7796  -51.0928 H         1 UNK         0.0600 
    184 H184        1.1981  -10.5975  -49.2498 H         1 UNK         0.3000 
    185 H185        3.5486  -11.6262  -49.7373 H         1 UNK         0.0600 
    186 H186        2.6070  -10.9064  -47.4901 H         1 UNK         0.0600 
    187 H187        2.6648  -12.5738  -46.9311 H         1 UNK         0.0600 
    188 H188        4.1524  -11.6963  -47.2759 H         1 UNK         0.0600 
    189 H189        3.1110  -14.3842  -49.4499 H         1 UNK         0.3000 
    190 H190        1.7120  -21.9099  -46.7685 H         1 UNK         0.3000 
    191 H191       -0.5335  -20.9562  -48.2945 H         1 UNK         0.0600 
    192 H192        0.7201  -19.5935  -46.5524 H         1 UNK         0.0600 
    193 H193       -1.0188  -19.6164  -46.3167 H         1 UNK         0.0600 
    194 H194        0.0146  -20.6074  -45.3061 H         1 UNK         0.0600 
    195 H195       -0.1527  -23.1978  -45.5167 H         1 UNK         0.3000 
    196 H196       -2.8659  -23.8477  -45.1037 H         1 UNK         0.0600 
    197 H197       -1.9877  -25.7811  -43.8735 H         1 UNK         0.0600 
    198 H198       -0.9617  -24.3931  -43.5396 H         1 UNK         0.0600 
    199 H199       -0.4214  -25.6392  -44.6556 H         1 UNK         0.0600 
    200 H200       -0.4146  -25.4358  -47.2068 H         1 UNK         0.3000 
    201 H201       -2.0875  -27.4137  -48.3419 H         1 UNK         0.0600 
    202 H202        0.3865  -27.4775  -48.4665 H         1 UNK         0.0600 
    203 H203        0.4016  -26.0401  -49.4866 H         1 UNK         0.0600 
    204 H204       -0.2986  -27.5397  -50.0830 H         1 UNK         0.0600 
    205 H205       -1.7048  -23.9960  -49.1475 H         1 UNK         0.3000 
    206 H206       -3.3898  -24.1164  -51.5370 H         1 UNK         0.0600 
    207 H207       -1.4674  -22.5303  -51.3903 H         1 UNK         0.0600 
    208 H208       -2.9906  -21.6867  -51.6092 H         1 UNK         0.0600 
    209 H209       -2.2302  -21.7198  -50.0256 H         1 UNK         0.0600 
    210 H210       -4.4818  -25.0332  -48.9056 H         1 UNK         0.3000 
    211 H211       -6.3716  -25.0993  -47.7792 H         1 UNK         0.0600 
    212 H212       -7.5503  -23.4886  -50.1051 H         1 UNK         0.0600 
    213 H213       -8.4764  -24.3799  -48.9047 H         1 UNK         0.0600 
    214 H214       -7.4212  -25.2403  -50.0123 H         1 UNK         0.0600 
    215 H215       -4.5907  -23.3191  -46.8550 H         1 UNK         0.3000 
    216 H216       -4.2120  -21.7028  -45.3844 H         1 UNK         0.0600 
    217 H217       -5.9727  -20.8578  -43.8912 H         1 UNK         0.0600 
    218 H218       -6.1514  -22.5934  -44.0892 H         1 UNK         0.0600 
    219 H219       -7.2336  -21.4888  -44.9359 H         1 UNK         0.0600 
    220 H220       -3.8729  -21.0681  -47.8326 H         1 UNK         0.3000 
    221 H221       -3.6288  -19.5340  -49.4127 H         1 UNK         0.0600 
    222 H222       -2.5127  -18.3203  -47.5609 H         1 UNK         0.0600 
    223 H223       -3.2747  -17.1966  -48.6740 H         1 UNK         0.0600 
    224 H224       -4.0326  -17.5437  -47.1297 H         1 UNK         0.0600 
    225 H225       -5.9206  -20.6213  -49.7985 H         1 UNK         0.3000 
    226 H226       -7.8114  -18.4224  -50.5832 H         1 UNK         0.0600 
    227 H227       -8.8156  -19.9752  -48.9116 H         1 UNK         0.0600 
    228 H228       -9.5938  -20.1375  -50.4804 H         1 UNK         0.0600 
    229 H229       -8.4387  -21.3505  -49.9425 H         1 UNK         0.0600 
    230 H230       -6.0950  -21.4212  -51.5361 H         1 UNK         0.3000 
    231 H231       -7.0650  -21.2954  -54.3043 H         1 UNK         0.0600 
    232 H232       -4.9620  -23.0974  -53.0021 H         1 UNK         0.0600 
    233 H233       -5.7283  -23.3393  -54.5636 H         1 UNK         0.0600 
    234 H234       -6.6829  -23.4718  -53.0936 H         1 UNK         0.0600 
    235 H235       -4.5426  -19.8065  -52.5030 H         1 UNK         0.3000 
    236 H236       -3.3439  -18.6459  -54.8677 H         1 UNK         0.0600 
    237 H237       -1.9052  -20.7103  -54.5043 H         1 UNK         0.0600 
    238 H238       -1.0151  -19.2266  -54.2012 H         1 UNK         0.0600 
    239 H239       -1.5958  -20.1854  -52.8498 H         1 UNK         0.0600 
    240 H240       -2.0204  -16.8000  -54.2239 H         1 UNK         0.3000 
    241 H241       -1.5353  -14.9544  -53.1708 H         1 UNK         0.0600 
    242 H242       -4.6889  -15.8043  -53.5859 H         1 UNK         0.3800 
    243 H243       -5.4066  -14.3086  -53.0482 H         1 UNK         0.3800 
    244 H244       -1.3901  -14.7358  -50.7043 H         1 UNK         0.0800 
    245 H245       -2.2235  -16.2418  -50.4899 H         1 UNK         0.0800 
    246 H246       -0.8330  -17.8029  -49.4196 H         1 UNK         0.0800 
    247 H247       -0.6950  -18.7874  -50.8585 H         1 UNK         0.0800 
@<TRIPOS>BOND
     1    1    2 1    
     2    1  127 1    
     3    1  128 1    
     4    1  129 1    
     5    2    3 2    
     6    2    4 am   BACKBONE|DICT|INTERRES
     7    4    5 1    
     8    4  130 1    
     9    5    6 1    
    10    5   65 1    
    11    5  131 1    
    12    6    7 1    
    13    6  132 1    
    14    6  133 1    
    15    7    8 1    
    16    8    9 1    
    17    8  134 1    
    18    8  135 1    
    19    9   10 ar   
    20    9   14 ar   
    21   10   11 ar   
    22   10  136 1    
    23   11   12 ar   
    24   11  126 1    
    25   12   13 ar   
    26   12  137 1    
    27   13   14 ar   
    28   13   15 1    
    29   14  138 1    
    30   15   16 1    
    31   15  139 1    
    32   15  140 1    
    33   16   17 1    
    34   17   18 1    
    35   17  141 1    
    36   17  142 1    
    37   18   19 1    
    38   18   67 1    
    39   18  143 1    
    40   19   20 am   BACKBONE|DICT|INTERRES
    41   19  144 1    
    42   20   21 2    
    43   20   22 1    
    44   22   23 1    
    45   22   24 1    
    46   22  145 1    
    47   23  146 1    
    48   23  147 1    
    49   23  148 1    
    50   24   25 am   BACKBONE|DICT|INTERRES
    51   24  149 1    
    52   25   26 2    
    53   25   27 1    
    54   27   28 1    
    55   27   29 1    
    56   27  150 1    
    57   28  151 1    
    58   28  152 1    
    59   28  153 1    
    60   29   30 am   BACKBONE|DICT|INTERRES
    61   29  154 1    
    62   30   31 2    
    63   30   32 1    
    64   32   33 1    
    65   32   34 1    
    66   32  155 1    
    67   33  156 1    
    68   33  157 1    
    69   33  158 1    
    70   34   35 am   BACKBONE|DICT|INTERRES
    71   34  159 1    
    72   35   36 2    
    73   35   37 1    
    74   37   38 1    
    75   37   39 1    
    76   37  160 1    
    77   38  161 1    
    78   38  162 1    
    79   38  163 1    
    80   39   40 am   BACKBONE|DICT|INTERRES
    81   39  164 1    
    82   40   41 2    
    83   40   42 1    
    84   42   43 1    
    85   42   44 1    
    86   42  165 1    
    87   43  166 1    
    88   43  167 1    
    89   43  168 1    
    90   44   45 am   BACKBONE|DICT|INTERRES
    91   44  169 1    
    92   45   46 2    
    93   45   47 1    
    94   47   48 1    
    95   47   49 1    
    96   47  170 1    
    97   48  171 1    
    98   48  172 1    
    99   48  173 1    
   100   49   50 am   BACKBONE|DICT|INTERRES
   101   49  174 1    
   102   50   51 2    
   103   50   52 1    
   104   52   53 1    
   105   52   54 1    
   106   52  175 1    
   107   53  176 1    
   108   53  177 1    
   109   53  178 1    
   110   54   55 am   BACKBONE|DICT|INTERRES
   111   54  179 1    
   112   55   56 2    
   113   55   57 1    
   114   57   58 1    
   115   57   59 1    
   116   57  180 1    
   117   58  181 1    
   118   58  182 1    
   119   58  183 1    
   120   59   60 am   BACKBONE|DICT|INTERRES
   121   59  184 1    
   122   60   61 2    
   123   60   62 1    
   124   62   63 1    
   125   62   64 1    
   126   62  185 1    
   127   63  186 1    
   128   63  187 1    
   129   63  188 1    
   130   64   65 am   BACKBONE|DICT|INTERRES
   131   64  189 1    
   132   65   66 2    
   133   67   68 2    
   134   67   69 am   BACKBONE|DICT|INTERRES
   135   69   70 1    
   136   69  190 1    
   137   70   71 1    
   138   70   72 1    
   139   70  191 1    
   140   71  192 1    
   141   71  193 1    
   142   71  194 1    
   143   72   73 2    
   144   72   74 am   BACKBONE|DICT|INTERRES
   145   74   75 1    
   146   74  195 1    
   147   75   76 1    
   148   75   77 1    
   149   75  196 1    
   150   76  197 1    
   151   76  198 1    
   152   76  199 1    
   153   77   78 2    
   154   77   79 am   BACKBONE|DICT|INTERRES
   155   79   80 1    
   156   79  200 1    
   157   80   81 1    
   158   80   82 1    
   159   80  201 1    
   160   81  202 1    
   161   81  203 1    
   162   81  204 1    
   163   82   83 2    
   164   82   84 am   BACKBONE|DICT|INTERRES
   165   84   85 1    
   166   84  205 1    
   167   85   86 1    
   168   85   87 1    
   169   85  206 1    
   170   86  207 1    
   171   86  208 1    
   172   86  209 1    
   173   87   88 2    
   174   87   89 am   BACKBONE|DICT|INTERRES
   175   89   90 1    
   176   89  210 1    
   177   90   91 1    
   178   90   92 1    
   179   90  211 1    
   180   91  212 1    
   181   91  213 1    
   182   91  214 1    
   183   92   93 2    
   184   92   94 am   BACKBONE|DICT|INTERRES
   185   94   95 1    
   186   94  215 1    
   187   95   96 1    
   188   95   97 1    
   189   95  216 1    
   190   96  217 1    
   191   96  218 1    
   192   96  219 1    
   193   97   98 2    
   194   97   99 am   BACKBONE|DICT|INTERRES
   195   99  100 1    
   196   99  220 1    
   197  100  101 1    
   198  100  102 1    
   199  100  221 1    
   200  101  222 1    
   201  101  223 1    
   202  101  224 1    
   203  102  103 2    
   204  102  104 am   BACKBONE|DICT|INTERRES
   205  104  105 1    
   206  104  225 1    
   207  105  106 1    
   208  105  107 1    
   209  105  226 1    
   210  106  227 1    
   211  106  228 1    
   212  106  229 1    
   213  107  108 2    
   214  107  109 am   BACKBONE|DICT|INTERRES
   215  109  110 1    
   216  109  230 1    
   217  110  111 1    
   218  110  112 1    
   219  110  231 1    
   220  111  232 1    
   221  111  233 1    
   222  111  234 1    
   223  112  113 2    
   224  112  114 am   BACKBONE|DICT|INTERRES
   225  114  115 1    
   226  114  235 1    
   227  115  116 1    
   228  115  117 1    
   229  115  236 1    
   230  116  237 1    
   231  116  238 1    
   232  116  239 1    
   233  117  118 2    
   234  117  119 am   BACKBONE|DICT|INTERRES
   235  119  120 1    
   236  119  240 1    
   237  120  121 1    
   238  120  124 1    
   239  120  241 1    
   240  121  122 am   BACKBONE|DICT|INTERRES
   241  121  123 2    
   242  122  242 1    
   243  122  243 1    
   244  124  125 1    
   245  124  244 1    
   246  124  245 1    
   247  125  126 1    
   248  126  246 1    
   249  126  247 1    
@<TRIPOS>SUBSTRUCTURE
     1 UNK         1 GROUP             0       ****    0 ROOT    
