@<TRIPOS>MOLECULE
3R540
247   249    1
SMALL
USER_CHARGES


@<TRIPOS>ATOM
      1 CA         -0.1303  -11.8771  -45.6143 C.3       0 UNK        -0.1800 
      2 C           1.0449  -12.1059  -46.5537 C.2       0 UNK         0.5000 
      3 O           1.5438  -11.1573  -47.1588 O.2       0 UNK        -0.5000 
      4 N           1.4857  -13.3639  -46.6781 N.am      1 UNK        -0.5000 
      5 CA          2.6105  -13.7822  -47.5277 C.3       1 UNK         0.1400 
      6 C6          2.5621  -15.2972  -47.8391 C.3       23 UNK        -0.0398 
      7 S7          1.0424  -15.7945  -48.7165 S.3       23 UNK        -0.2404 
      8 C8          1.6765  -16.1775  -50.3789 C.3       23 UNK        -0.0205 
      9 C9          0.7796  -17.1868  -51.0750 C.ar      23 UNK        -0.0193 
     10 C10        -0.0847  -16.7969  -52.1016 C.ar      23 UNK        -0.1150 
     11 C11        -0.9054  -17.7394  -52.7289 C.ar      23 UNK        -0.0193 
     12 C12        -0.8580  -19.0714  -52.3130 C.ar      23 UNK        -0.1150 
     13 C13         0.0119  -19.4850  -51.3006 C.ar      23 UNK        -0.0193 
     14 C14         0.8307  -18.5281  -50.6882 C.ar      23 UNK        -0.1150 
     15 C15         0.0357  -20.9702  -50.9319 C.3       23 UNK        -0.0205 
     16 S16         1.2232  -21.4692  -49.6392 S.3       23 UNK        -0.2404 
     17 C17         0.4096  -20.8359  -48.1349 C.3       23 UNK        -0.0398 
     18 CA         -0.2100  -21.9709  -47.2853 C.3       11 UNK         0.1400 
     19 N          -0.1639  -21.6618  -45.8503 N.am      11 UNK        -0.5000 
     20 C          -0.4288  -22.5420  -44.8738 C.2       10 UNK         0.5000 
     21 O          -0.7711  -23.7051  -45.0804 O.2       10 UNK        -0.5000 
     22 CA         -0.3492  -22.0280  -43.4271 C.3       10 UNK         0.1400 
     23 CB          1.1108  -21.8415  -42.9885 C.3       10 UNK        -0.1800 
     24 N          -1.0886  -20.7802  -43.2506 N.am      10 UNK        -0.5000 
     25 C          -2.4186  -20.6658  -43.3761 C.2       9 UNK         0.5000 
     26 O          -3.1709  -21.6225  -43.5616 O.2       9 UNK        -0.5000 
     27 CA         -3.0028  -19.2410  -43.3301 C.3       9 UNK         0.1400 
     28 CB         -3.2464  -18.7983  -41.8804 C.3       9 UNK        -0.1800 
     29 N          -2.1601  -18.2534  -44.0075 N.am      9 UNK        -0.5000 
     30 C          -1.8499  -18.2765  -45.3118 C.2       8 UNK         0.5000 
     31 O          -2.2544  -19.1302  -46.0988 O.2       8 UNK        -0.5000 
     32 CA         -0.8783  -17.1959  -45.8094 C.3       8 UNK         0.1400 
     33 CB         -1.6067  -15.8635  -46.0460 C.3       8 UNK        -0.1800 
     34 N           0.2338  -17.0045  -44.8789 N.am      8 UNK        -0.5000 
     35 C           1.2141  -17.8998  -44.6914 C.2       7 UNK         0.5000 
     36 O           1.3042  -18.9567  -45.3173 O.2       7 UNK        -0.5000 
     37 CA          2.2381  -17.5773  -43.5872 C.3       7 UNK         0.1400 
     38 CB          3.3198  -16.6198  -44.1078 C.3       7 UNK        -0.1800 
     39 N           1.6161  -16.9987  -42.3953 N.am      7 UNK        -0.5000 
     40 C           0.7802  -17.6622  -41.5829 C.2       6 UNK         0.5000 
     41 O           0.4773  -18.8444  -41.7350 O.2       6 UNK        -0.5000 
     42 CA          0.1333  -16.8590  -40.4378 C.3       6 UNK         0.1400 
     43 CB          1.0249  -16.8935  -39.1879 C.3       6 UNK        -0.1800 
     44 N          -0.1502  -15.4650  -40.7847 N.am      6 UNK        -0.5000 
     45 C          -0.9038  -15.0510  -41.8136 C.2       5 UNK         0.5000 
     46 O          -1.4797  -15.8194  -42.5835 O.2       5 UNK        -0.5000 
     47 CA         -1.0119  -13.5315  -42.0484 C.3       5 UNK         0.1400 
     48 CB         -2.4257  -13.0345  -41.7128 C.3       5 UNK        -0.1800 
     49 N          -0.0353  -12.7403  -41.2933 N.am      5 UNK        -0.5000 
     50 C           1.2839  -12.7157  -41.5218 C.2       4 UNK         0.5000 
     51 O           1.8431  -13.3621  -42.4142 O.2       4 UNK        -0.5000 
     52 CA          2.1097  -11.8656  -40.5466 C.3       4 UNK         0.1400 
     53 CB          2.3357  -12.6167  -39.2233 C.3       4 UNK        -0.1800 
     54 N           3.3997  -11.5635  -41.1506 N.am      4 UNK        -0.5000 
     55 C           4.0443  -10.3936  -41.0769 C.2       3 UNK         0.5000 
     56 O           3.6447   -9.4367  -40.4117 O.2       3 UNK        -0.5000 
     57 CA          5.3598  -10.2593  -41.8750 C.3       3 UNK         0.1400 
     58 CB          6.5664  -10.2408  -40.9230 C.3       3 UNK        -0.1800 
     59 N           5.5674  -11.3144  -42.8726 N.am      3 UNK        -0.5000 
     60 C           4.8460  -11.4747  -43.9896 C.2       2 UNK         0.5000 
     61 O           3.9273  -10.7196  -44.3158 O.2       2 UNK        -0.5000 
     62 CA          5.2009  -12.6813  -44.8772 C.3       2 UNK         0.1400 
     63 CB          5.7290  -13.8929  -44.0822 C.3       2 UNK        -0.1800 
     64 N           4.0156  -13.0839  -45.6262 N.am      2 UNK        -0.5000 
     65 C           3.9845  -13.4143  -46.9221 C.2       1 UNK         0.5000 
     66 O           4.9860  -13.4521  -47.6387 O.2       1 UNK        -0.5000 
     67 C          -1.6274  -22.3485  -47.7743 C.2       11 UNK         0.5000 
     68 O          -1.7700  -23.2191  -48.6377 O.2       11 UNK        -0.5000 
     69 N          -2.6561  -21.7291  -47.1777 N.am      12 UNK        -0.5000 
     70 CA         -4.0701  -22.0364  -47.3954 C.3       12 UNK         0.1400 
     71 CB         -4.9472  -21.0290  -46.6390 C.3       12 UNK        -0.1800 
     72 C          -4.4531  -23.4827  -47.0288 C.2       12 UNK         0.5000 
     73 O          -5.3636  -24.0340  -47.6459 O.2       12 UNK        -0.5000 
     74 N          -3.7404  -24.0765  -46.0635 N.am      13 UNK        -0.5000 
     75 CA         -3.8805  -25.4771  -45.6801 C.3       13 UNK         0.1400 
     76 CB         -3.6654  -25.6120  -44.1637 C.3       13 UNK        -0.1800 
     77 C          -2.8953  -26.3656  -46.4584 C.2       13 UNK         0.5000 
     78 O          -3.3154  -27.3508  -47.0649 O.2       13 UNK        -0.5000 
     79 N          -1.6037  -26.0099  -46.4182 N.am      14 UNK        -0.5000 
     80 CA         -0.4898  -26.8336  -46.8928 C.3       14 UNK         0.1400 
     81 CB          0.8324  -26.2316  -46.3923 C.3       14 UNK        -0.1800 
     82 C          -0.4433  -27.0277  -48.4174 C.2       14 UNK         0.5000 
     83 O          -0.1212  -28.1258  -48.8728 O.2       14 UNK        -0.5000 
     84 N          -0.7580  -25.9689  -49.1727 N.am      15 UNK        -0.5000 
     85 CA         -0.7459  -25.9606  -50.6382 C.3       15 UNK         0.1400 
     86 CB          0.1613  -24.8129  -51.1111 C.3       15 UNK        -0.1800 
     87 C          -2.1624  -25.8058  -51.2177 C.2       15 UNK         0.5000 
     88 O          -2.3001  -25.5913  -52.4239 O.2       15 UNK        -0.5000 
     89 N          -3.1877  -25.8543  -50.3527 N.am      16 UNK        -0.5000 
     90 CA         -4.6015  -25.6030  -50.6528 C.3       16 UNK         0.1400 
     91 CB         -5.1805  -26.7389  -51.5224 C.3       16 UNK        -0.1800 
     92 C          -4.8287  -24.2044  -51.2673 C.2       16 UNK         0.5000 
     93 O          -5.6269  -24.0636  -52.1932 O.2       16 UNK        -0.5000 
     94 N          -4.0711  -23.2075  -50.7813 N.am      17 UNK        -0.5000 
     95 CA         -4.0122  -21.8280  -51.2818 C.3       17 UNK         0.1400 
     96 CB         -5.3683  -21.1124  -51.1115 C.3       17 UNK        -0.1800 
     97 C          -3.4681  -21.7521  -52.7240 C.2       17 UNK         0.5000 
     98 O          -3.9514  -20.9495  -53.5243 O.2       17 UNK        -0.5000 
     99 N          -2.4722  -22.6050  -53.0139 N.am      18 UNK        -0.5000 
    100 CA        -1.8611  -22.8644  -54.3221 C.3       18 UNK         0.1400 
    101 CB        -1.0703  -21.6448  -54.8377 C.3       18 UNK        -0.1800 
    102 C         -2.9021  -23.3913  -55.3259 C.2       18 UNK         0.5000 
    103 O         -3.0887  -22.8086  -56.3942 O.2       18 UNK        -0.5000 
    104 N         -3.5909  -24.4702  -54.9252 N.am      19 UNK        -0.5000 
    105 CA        -4.7023  -25.1148  -55.6349 C.3       19 UNK         0.1400 
    106 CB        -4.1965  -25.8244  -56.9080 C.3       19 UNK        -0.1800 
    107 C         -5.8683  -24.1378  -55.9036 C.2       19 UNK         0.5000 
    108 O         -6.3357  -24.0123  -57.0369 O.2       19 UNK        -0.5000 
    109 N         -6.2919  -23.4504  -54.8351 N.am      20 UNK        -0.5000 
    110 CA        -7.3756  -22.4692  -54.7527 C.3       20 UNK         0.1400 
    111 CB        -8.7285  -23.1034  -55.1375 C.3       20 UNK        -0.1800 
    112 C         -7.1200  -21.1382  -55.4909 C.2       20 UNK         0.5000 
    113 O         -8.0472  -20.3327  -55.5899 O.2       20 UNK        -0.5000 
    114 N         -5.8851  -20.8811  -55.9488 N.am      21 UNK        -0.5000 
    115 CA        -5.4894  -19.6352  -56.6181 C.3       21 UNK         0.1400 
    116 CB        -4.0544  -19.7622  -57.1464 C.3       21 UNK        -0.1800 
    117 C         -5.6268  -18.3886  -55.7214 C.2       21 UNK         0.5000 
    118 O         -6.0418  -17.3356  -56.2074 O.2       21 UNK        -0.5000 
    119 N         -5.3213  -18.5507  -54.4295 N.am      22 UNK        -0.5000 
    120 CA        -5.5736  -17.5693  -53.3619 C.3       22 UNK         0.1400 
    121 C         -6.8223  -17.9308  -52.5007 C.2       22 UNK         0.5000 
    122 N         -7.7189  -18.8006  -52.9524 N.am      22 UNK        -0.7600 
    123 O         -7.0025  -17.4004  -51.4082 O.2       22 UNK        -0.5000 
    124 C124       -4.2962  -17.3212  -52.5124 C.3       23 UNK        -0.0398 
    125 S125       -3.1361  -16.2033  -53.3693 S.3       23 UNK        -0.2404 
    126 C126       -1.8095  -17.3339  -53.8851 C.3       23 UNK        -0.0205 
    127 H127       -0.6819  -12.7990  -45.4320 H         1 UNK         0.0600 
    128 H128       -0.8225  -11.1523  -46.0429 H         1 UNK         0.0600 
    129 H129        0.2238  -11.4899  -44.6586 H         1 UNK         0.0600 
    130 H130        1.0211  -14.1054  -46.1767 H         1 UNK         0.3000 
    131 H131        2.5353  -13.2463  -48.4765 H         1 UNK         0.0600 
    132 H132        3.4315  -15.5959  -48.4269 H         1 UNK         0.0800 
    133 H133        2.6154  -15.8774  -46.9173 H         1 UNK         0.0800 
    134 H134        1.7551  -15.2560  -50.9578 H         1 UNK         0.0800 
    135 H135        2.6827  -16.5940  -50.3181 H         1 UNK         0.0800 
    136 H136       -0.1191  -15.7632  -52.4161 H         1 UNK         0.1150 
    137 H137       -1.4910  -19.7954  -52.7991 H         1 UNK         0.1150 
    138 H138        1.5160  -18.8068  -49.9021 H         1 UNK         0.1150 
    139 H139       -0.9619  -21.2818  -50.6267 H         1 UNK         0.0800 
    140 H140        0.2743  -21.5407  -51.8298 H         1 UNK         0.0800 
    141 H141       -0.3209  -20.0605  -48.3750 H         1 UNK         0.0800 
    142 H142        1.1930  -20.3305  -47.5695 H         1 UNK         0.0800 
    143 H143        0.4071  -22.8632  -47.4109 H         1 UNK         0.0600 
    144 H144        0.1157  -20.7205  -45.5974 H         1 UNK         0.3000 
    145 H145       -0.8019  -22.7829  -42.7807 H         1 UNK         0.0600 
    146 H146        1.1719  -21.5706  -41.9344 H         1 UNK         0.0600 
    147 H147        1.6794  -22.7628  -43.1205 H         1 UNK         0.0600 
    148 H148        1.6107  -21.0607  -43.5621 H         1 UNK         0.0600 
    149 H149       -0.5442  -19.9567  -43.0136 H         1 UNK         0.3000 
    150 H150       -3.9646  -19.2602  -43.8466 H         1 UNK         0.0600 
    151 H151       -3.6773  -17.7978  -41.8383 H         1 UNK         0.0600 
    152 H152       -3.9395  -19.4745  -41.3785 H         1 UNK         0.0600 
    153 H153       -2.3221  -18.7907  -41.3037 H         1 UNK         0.0600 
    154 H154       -1.8115  -17.4839  -43.4419 H         1 UNK         0.3000 
    155 H155       -0.4721  -17.5335  -46.7652 H         1 UNK         0.0600 
    156 H156       -2.0367  -15.4608  -45.1292 H         1 UNK         0.0600 
    157 H157       -2.4218  -15.9913  -46.7593 H         1 UNK         0.0600 
    158 H158       -0.9346  -15.1134  -46.4598 H         1 UNK         0.0600 
    159 H159        0.1743  -16.2134  -44.2551 H         1 UNK         0.3000 
    160 H160        2.7207  -18.5139  -43.2997 H         1 UNK         0.0600 
    161 H161        2.9093  -15.6403  -44.3559 H         1 UNK         0.0600 
    162 H162        3.7983  -17.0169  -45.0039 H         1 UNK         0.0600 
    163 H163        4.1019  -16.4757  -43.3627 H         1 UNK         0.0600 
    164 H164        1.8020  -16.0230  -42.2080 H         1 UNK         0.3000 
    165 H165       -0.8167  -17.3363  -40.1930 H         1 UNK         0.0600 
    166 H166        0.5385  -16.4073  -38.3421 H         1 UNK         0.0600 
    167 H167        1.2404  -17.9207  -38.8902 H         1 UNK         0.0600 
    168 H168        1.9793  -16.3939  -39.3596 H         1 UNK         0.0600 
    169 H169        0.2767  -14.7612  -40.2023 H         1 UNK         0.3000 
    170 H170       -0.8354  -13.3625  -43.1113 H         1 UNK         0.0600 
    171 H171       -3.1785  -13.5791  -42.2846 H         1 UNK         0.0600 
    172 H172       -2.6582  -13.1660  -40.6553 H         1 UNK         0.0600 
    173 H173       -2.5401  -11.9776  -41.9544 H         1 UNK         0.0600 
    174 H174       -0.4075  -12.1875  -40.5340 H         1 UNK         0.3000 
    175 H175        1.5594  -10.9422  -40.3536 H         1 UNK         0.0600 
    176 H176        2.8617  -13.5595  -39.3805 H         1 UNK         0.0600 
    177 H177        2.9255  -12.0183  -38.5286 H         1 UNK         0.0600 
    178 H178        1.3900  -12.8441  -38.7301 H         1 UNK         0.0600 
    179 H179        3.7517  -12.2782  -41.7725 H         1 UNK         0.3000 
    180 H180        5.3230   -9.3015  -42.3983 H         1 UNK         0.0600 
    181 H181        6.6624  -11.1806  -40.3778 H         1 UNK         0.0600 
    182 H182        6.4722   -9.4422  -40.1858 H         1 UNK         0.0600 
    183 H183        7.4961  -10.0696  -41.4661 H         1 UNK         0.0600 
    184 H184        6.3020  -11.9778  -42.6726 H         1 UNK         0.3000 
    185 H185        5.9804  -12.3436  -45.5629 H         1 UNK         0.0600 
    186 H186        6.6957  -13.6815  -43.6245 H         1 UNK         0.0600 
    187 H187        5.0387  -14.1837  -43.2894 H         1 UNK         0.0600 
    188 H188        5.8706  -14.7568  -44.7321 H         1 UNK         0.0600 
    189 H189        3.1389  -12.9938  -45.1309 H         1 UNK         0.3000 
    190 H190       -2.4567  -20.9621  -46.5403 H         1 UNK         0.3000 
    191 H191       -4.2684  -21.9055  -48.4558 H         1 UNK         0.0600 
    192 H192       -4.7372  -20.0070  -46.9547 H         1 UNK         0.0600 
    193 H193       -6.0052  -21.2147  -46.8281 H         1 UNK         0.0600 
    194 H194       -4.7927  -21.0871  -45.5625 H         1 UNK         0.0600 
    195 H195       -2.9978  -23.5547  -45.6159 H         1 UNK         0.3000 
    196 H196       -4.8923  -25.8243  -45.9007 H         1 UNK         0.0600 
    197 H197       -3.7603  -26.6513  -43.8468 H         1 UNK         0.0600 
    198 H198       -4.4065  -25.0342  -43.6110 H         1 UNK         0.0600 
    199 H199       -2.6787  -25.2633  -43.8571 H         1 UNK         0.0600 
    200 H200       -1.3440  -25.1685  -45.9053 H         1 UNK         0.3000 
    201 H201       -0.5986  -27.8223  -46.4421 H         1 UNK         0.0600 
    202 H202        0.8499  -26.1682  -45.3041 H         1 UNK         0.0600 
    203 H203        0.9927  -25.2281  -46.7879 H         1 UNK         0.0600 
    204 H204        1.6822  -26.8444  -46.6959 H         1 UNK         0.0600 
    205 H205       -1.0286  -25.0979  -48.7266 H         1 UNK         0.3000 
    206 H206       -0.3433  -26.8953  -51.0326 H         1 UNK         0.0600 
    207 H207        1.1612  -24.8975  -50.6853 H         1 UNK         0.0600 
    208 H208        0.2706  -24.8145  -52.1962 H         1 UNK         0.0600 
    209 H209       -0.2433  -23.8441  -50.8221 H         1 UNK         0.0600 
    210 H210       -2.9707  -26.0492  -49.3852 H         1 UNK         0.3000 
    211 H211       -5.1323  -25.6170  -49.7013 H         1 UNK         0.0600 
    212 H212       -4.7336  -26.7598  -52.5166 H         1 UNK         0.0600 
    213 H213       -6.2572  -26.6227  -51.6508 H         1 UNK         0.0600 
    214 H214       -5.0135  -27.7116  -51.0600 H         1 UNK         0.0600 
    215 H215       -3.4143  -23.4329  -50.0424 H         1 UNK         0.3000 
    216 H216       -3.2913  -21.3051  -50.6534 H         1 UNK         0.0600 
    217 H217       -5.2540  -20.0394  -51.2565 H         1 UNK         0.0600 
    218 H218       -5.7815  -21.2588  -50.1143 H         1 UNK         0.0600 
    219 H219       -6.1088  -21.4614  -51.8306 H         1 UNK         0.0600 
    220 H220       -2.2148  -23.2682  -52.2971 H         1 UNK         0.3000 
    221 H221       -1.1447  -23.6741  -54.1761 H         1 UNK         0.0600 
    222 H222       -1.7024  -20.7671  -54.9610 H         1 UNK         0.0600 
    223 H223       -0.2597  -21.3846  -54.1588 H         1 UNK         0.0600 
    224 H224       -0.6166  -21.8564  -55.8065 H         1 UNK         0.0600 
    225 H225       -3.3456  -24.8739  -54.0261 H         1 UNK         0.3000 
    226 H226       -5.0930  -25.8812  -54.9640 H         1 UNK         0.0600 
    227 H227       -3.3968  -26.5273  -56.6750 H         1 UNK         0.0600 
    228 H228       -4.9984  -26.3910  -57.3826 H         1 UNK         0.0600 
    229 H229       -3.8165  -25.1164  -57.6450 H         1 UNK         0.0600 
    230 H230       -5.8540  -23.6548  -53.9375 H         1 UNK         0.3000 
    231 H231       -7.4384  -22.2044  -53.6969 H         1 UNK         0.0600 
    232 H232       -8.7831  -23.3300  -56.2024 H         1 UNK         0.0600 
    233 H233       -9.5564  -22.4323  -54.9060 H         1 UNK         0.0600 
    234 H234       -8.9012  -24.0282  -54.5868 H         1 UNK         0.0600 
    235 H235       -5.1570  -21.5675  -55.7992 H         1 UNK         0.3000 
    236 H236       -6.1527  -19.4982  -57.4744 H         1 UNK         0.0600 
    237 H237       -3.9638  -20.5913  -57.8482 H         1 UNK         0.0600 
    238 H238       -3.7476  -18.8562  -57.6704 H         1 UNK         0.0600 
    239 H239       -3.3462  -19.9287  -56.3357 H         1 UNK         0.0600 
    240 H240       -4.9635  -19.4545  -54.1284 H         1 UNK         0.3000 
    241 H241       -5.8509  -16.6140  -53.8108 H         1 UNK         0.0600 
    242 H242       -7.6483  -19.1931  -53.8823 H         1 UNK         0.3800 
    243 H243       -8.5250  -19.0081  -52.3848 H         1 UNK         0.3800 
    244 H244       -4.5324  -16.8381  -51.5634 H         1 UNK         0.0800 
    245 H245       -3.8066  -18.2613  -52.2558 H         1 UNK         0.0800 
    246 H246       -1.2042  -16.8381  -54.6451 H         1 UNK         0.0800 
    247 H247       -2.2499  -18.2075  -54.3692 H         1 UNK         0.0800 
@<TRIPOS>BOND
     1    1    2 1    
     2    1  127 1    
     3    1  128 1    
     4    1  129 1    
     5    2    3 2    
     6    2    4 am   BACKBONE|DICT|INTERRES
     7    4    5 1    
     8    4  130 1    
     9    5    6 1    
    10    5   65 1    
    11    5  131 1    
    12    6    7 1    
    13    6  132 1    
    14    6  133 1    
    15    7    8 1    
    16    8    9 1    
    17    8  134 1    
    18    8  135 1    
    19    9   10 ar   
    20    9   14 ar   
    21   10   11 ar   
    22   10  136 1    
    23   11   12 ar   
    24   11  126 1    
    25   12   13 ar   
    26   12  137 1    
    27   13   14 ar   
    28   13   15 1    
    29   14  138 1    
    30   15   16 1    
    31   15  139 1    
    32   15  140 1    
    33   16   17 1    
    34   17   18 1    
    35   17  141 1    
    36   17  142 1    
    37   18   19 1    
    38   18   67 1    
    39   18  143 1    
    40   19   20 am   BACKBONE|DICT|INTERRES
    41   19  144 1    
    42   20   21 2    
    43   20   22 1    
    44   22   23 1    
    45   22   24 1    
    46   22  145 1    
    47   23  146 1    
    48   23  147 1    
    49   23  148 1    
    50   24   25 am   BACKBONE|DICT|INTERRES
    51   24  149 1    
    52   25   26 2    
    53   25   27 1    
    54   27   28 1    
    55   27   29 1    
    56   27  150 1    
    57   28  151 1    
    58   28  152 1    
    59   28  153 1    
    60   29   30 am   BACKBONE|DICT|INTERRES
    61   29  154 1    
    62   30   31 2    
    63   30   32 1    
    64   32   33 1    
    65   32   34 1    
    66   32  155 1    
    67   33  156 1    
    68   33  157 1    
    69   33  158 1    
    70   34   35 am   BACKBONE|DICT|INTERRES
    71   34  159 1    
    72   35   36 2    
    73   35   37 1    
    74   37   38 1    
    75   37   39 1    
    76   37  160 1    
    77   38  161 1    
    78   38  162 1    
    79   38  163 1    
    80   39   40 am   BACKBONE|DICT|INTERRES
    81   39  164 1    
    82   40   41 2    
    83   40   42 1    
    84   42   43 1    
    85   42   44 1    
    86   42  165 1    
    87   43  166 1    
    88   43  167 1    
    89   43  168 1    
    90   44   45 am   BACKBONE|DICT|INTERRES
    91   44  169 1    
    92   45   46 2    
    93   45   47 1    
    94   47   48 1    
    95   47   49 1    
    96   47  170 1    
    97   48  171 1    
    98   48  172 1    
    99   48  173 1    
   100   49   50 am   BACKBONE|DICT|INTERRES
   101   49  174 1    
   102   50   51 2    
   103   50   52 1    
   104   52   53 1    
   105   52   54 1    
   106   52  175 1    
   107   53  176 1    
   108   53  177 1    
   109   53  178 1    
   110   54   55 am   BACKBONE|DICT|INTERRES
   111   54  179 1    
   112   55   56 2    
   113   55   57 1    
   114   57   58 1    
   115   57   59 1    
   116   57  180 1    
   117   58  181 1    
   118   58  182 1    
   119   58  183 1    
   120   59   60 am   BACKBONE|DICT|INTERRES
   121   59  184 1    
   122   60   61 2    
   123   60   62 1    
   124   62   63 1    
   125   62   64 1    
   126   62  185 1    
   127   63  186 1    
   128   63  187 1    
   129   63  188 1    
   130   64   65 am   BACKBONE|DICT|INTERRES
   131   64  189 1    
   132   65   66 2    
   133   67   68 2    
   134   67   69 am   BACKBONE|DICT|INTERRES
   135   69   70 1    
   136   69  190 1    
   137   70   71 1    
   138   70   72 1    
   139   70  191 1    
   140   71  192 1    
   141   71  193 1    
   142   71  194 1    
   143   72   73 2    
   144   72   74 am   BACKBONE|DICT|INTERRES
   145   74   75 1    
   146   74  195 1    
   147   75   76 1    
   148   75   77 1    
   149   75  196 1    
   150   76  197 1    
   151   76  198 1    
   152   76  199 1    
   153   77   78 2    
   154   77   79 am   BACKBONE|DICT|INTERRES
   155   79   80 1    
   156   79  200 1    
   157   80   81 1    
   158   80   82 1    
   159   80  201 1    
   160   81  202 1    
   161   81  203 1    
   162   81  204 1    
   163   82   83 2    
   164   82   84 am   BACKBONE|DICT|INTERRES
   165   84   85 1    
   166   84  205 1    
   167   85   86 1    
   168   85   87 1    
   169   85  206 1    
   170   86  207 1    
   171   86  208 1    
   172   86  209 1    
   173   87   88 2    
   174   87   89 am   BACKBONE|DICT|INTERRES
   175   89   90 1    
   176   89  210 1    
   177   90   91 1    
   178   90   92 1    
   179   90  211 1    
   180   91  212 1    
   181   91  213 1    
   182   91  214 1    
   183   92   93 2    
   184   92   94 am   BACKBONE|DICT|INTERRES
   185   94   95 1    
   186   94  215 1    
   187   95   96 1    
   188   95   97 1    
   189   95  216 1    
   190   96  217 1    
   191   96  218 1    
   192   96  219 1    
   193   97   98 2    
   194   97   99 am   BACKBONE|DICT|INTERRES
   195   99  100 1    
   196   99  220 1    
   197  100  101 1    
   198  100  102 1    
   199  100  221 1    
   200  101  222 1    
   201  101  223 1    
   202  101  224 1    
   203  102  103 2    
   204  102  104 am   BACKBONE|DICT|INTERRES
   205  104  105 1    
   206  104  225 1    
   207  105  106 1    
   208  105  107 1    
   209  105  226 1    
   210  106  227 1    
   211  106  228 1    
   212  106  229 1    
   213  107  108 2    
   214  107  109 am   BACKBONE|DICT|INTERRES
   215  109  110 1    
   216  109  230 1    
   217  110  111 1    
   218  110  112 1    
   219  110  231 1    
   220  111  232 1    
   221  111  233 1    
   222  111  234 1    
   223  112  113 2    
   224  112  114 am   BACKBONE|DICT|INTERRES
   225  114  115 1    
   226  114  235 1    
   227  115  116 1    
   228  115  117 1    
   229  115  236 1    
   230  116  237 1    
   231  116  238 1    
   232  116  239 1    
   233  117  118 2    
   234  117  119 am   BACKBONE|DICT|INTERRES
   235  119  120 1    
   236  119  240 1    
   237  120  121 1    
   238  120  124 1    
   239  120  241 1    
   240  121  122 am   BACKBONE|DICT|INTERRES
   241  121  123 2    
   242  122  242 1    
   243  122  243 1    
   244  124  125 1    
   245  124  244 1    
   246  124  245 1    
   247  125  126 1    
   248  126  246 1    
   249  126  247 1    
@<TRIPOS>SUBSTRUCTURE
     1 UNK         1 GROUP             0       ****    0 ROOT    
