@<TRIPOS>MOLECULE
3R540
247   249    1
SMALL
USER_CHARGES


@<TRIPOS>ATOM
      1 CA          0.5317   -8.4652  -49.6844 C.3       0 UNK        -0.1800 
      2 C           1.6250   -9.5052  -49.8842 C.2       0 UNK         0.5000 
      3 O           2.8076   -9.1779  -49.7845 O.2       0 UNK        -0.5000 
      4 N           1.2332  -10.7531  -50.1693 N.am      1 UNK        -0.5000 
      5 CA          2.1224  -11.9074  -50.3524 C.3       1 UNK         0.1400 
      6 C6          1.3924  -13.1208  -50.9916 C.3       23 UNK        -0.0398 
      7 S7         -0.2891  -13.4579  -50.3408 S.3       23 UNK        -0.2404 
      8 C8         -0.0251  -14.7767  -49.1124 C.3       23 UNK        -0.0205 
      9 C9          0.4712  -16.0708  -49.7366 C.ar      23 UNK        -0.0193 
     10 C10        -0.4128  -16.9085  -50.4209 C.ar      23 UNK        -0.1150 
     11 C11         0.0327  -18.1140  -50.9726 C.ar      23 UNK        -0.0193 
     12 C12         1.3770  -18.4760  -50.8402 C.ar      23 UNK        -0.1150 
     13 C13         2.2708  -17.6399  -50.1647 C.ar      23 UNK        -0.0193 
     14 C14         1.8107  -16.4439  -49.6084 C.ar      23 UNK        -0.1150 
     15 C15         3.7372  -18.0121  -50.0369 C.3       23 UNK        -0.0205 
     16 S16         4.0239  -19.0966  -48.6064 S.3       23 UNK        -0.2404 
     17 C17         4.1256  -20.7472  -49.3911 C.3       23 UNK        -0.0398 
     18 CA          3.2943  -21.8482  -48.6842 C.3       11 UNK         0.1400 
     19 N           3.5108  -21.8351  -47.2344 N.am      11 UNK        -0.5000 
     20 C           3.2698  -22.8368  -46.3822 C.2       10 UNK         0.5000 
     21 O           2.6789  -23.8685  -46.6969 O.2       10 UNK        -0.5000 
     22 CA          3.8266  -22.6864  -44.9560 C.3       10 UNK         0.1400 
     23 CB          4.9082  -21.5945  -44.8118 C.3       10 UNK        -0.1800 
     24 N           2.7478  -22.4156  -44.0128 N.am      10 UNK        -0.5000 
     25 C           2.6675  -22.9322  -42.7789 C.2       9 UNK         0.5000 
     26 O           3.4562  -23.7754  -42.3479 O.2       9 UNK        -0.5000 
     27 CA          1.5532  -22.4203  -41.8406 C.3       9 UNK         0.1400 
     28 CB          2.1590  -21.6510  -40.6553 C.3       9 UNK        -0.1800 
     29 N           0.5771  -21.5565  -42.5009 N.am      9 UNK        -0.5000 
     30 C          -0.4224  -21.9864  -43.2797 C.2       8 UNK         0.5000 
     31 O          -0.6730  -23.1753  -43.4743 O.2       8 UNK        -0.5000 
     32 CA         -1.2655  -20.9052  -43.9814 C.3       8 UNK         0.1400 
     33 CB         -2.5107  -20.5684  -43.1483 C.3       8 UNK        -0.1800 
     34 N          -0.5262  -19.6745  -44.2861 N.am      8 UNK        -0.5000 
     35 C           0.5499  -19.6084  -45.0853 C.2       7 UNK         0.5000 
     36 O           1.0591  -20.5919  -45.6203 O.2       7 UNK        -0.5000 
     37 CA          1.1932  -18.2273  -45.2895 C.3       7 UNK         0.1400 
     38 CB          0.3223  -17.3363  -46.1884 C.3       7 UNK        -0.1800 
     39 N           1.4430  -17.5537  -44.0189 N.am      7 UNK        -0.5000 
     40 C           2.2855  -17.9931  -43.0736 C.2       6 UNK         0.5000 
     41 O           2.9999  -18.9877  -43.1941 O.2       6 UNK        -0.5000 
     42 CA          2.2967  -17.2094  -41.7514 C.3       6 UNK         0.1400 
     43 CB          3.1767  -15.9548  -41.8639 C.3       6 UNK        -0.1800 
     44 N           0.9466  -16.8324  -41.3316 N.am      6 UNK        -0.5000 
     45 C           0.0184  -17.7002  -40.9036 C.2       5 UNK         0.5000 
     46 O           0.2117  -18.9104  -40.7910 O.2       5 UNK        -0.5000 
     47 CA         -1.3683  -17.1198  -40.5716 C.3       5 UNK         0.1400 
     48 CB         -1.3941  -16.5629  -39.1404 C.3       5 UNK        -0.1800 
     49 N          -1.7830  -16.0730  -41.5068 N.am      5 UNK        -0.5000 
     50 C          -2.0782  -16.2898  -42.7957 C.2       4 UNK         0.5000 
     51 O          -2.0380  -17.3962  -43.3318 O.2       4 UNK        -0.5000 
     52 CA         -2.4291  -15.0523  -43.6406 C.3       4 UNK         0.1400 
     53 CB         -3.8998  -14.6573  -43.4395 C.3       4 UNK        -0.1800 
     54 N          -1.5705  -13.8916  -43.3818 N.am      4 UNK        -0.5000 
     55 C          -0.2399  -13.8856  -43.5310 C.2       3 UNK         0.5000 
     56 O           0.4254  -14.8919  -43.7861 O.2       3 UNK        -0.5000 
     57 CA          0.4790  -12.5352  -43.3583 C.3       3 UNK         0.1400 
     58 CB          1.0534  -12.4082  -41.9392 C.3       3 UNK        -0.1800 
     59 N           1.5648  -12.4165  -44.3329 N.am      3 UNK        -0.5000 
     60 C           1.3647  -12.3052  -45.6520 C.2       2 UNK         0.5000 
     61 O           0.2596  -12.0770  -46.1566 O.2       2 UNK        -0.5000 
     62 CA          2.5893  -12.5162  -46.5580 C.3       2 UNK         0.1400 
     63 CB          3.1109  -13.9662  -46.4255 C.3       2 UNK        -0.1800 
     64 N           2.1654  -12.2174  -47.9237 N.am      2 UNK        -0.5000 
     65 C           2.8674  -12.3008  -49.0581 C.2       1 UNK         0.5000 
     66 O           4.0487  -12.6433  -49.1186 O.2       1 UNK        -0.5000 
     67 C           1.8196  -21.8613  -49.1460 C.2       11 UNK         0.5000 
     68 O           1.5782  -22.1629  -50.3149 O.2       11 UNK        -0.5000 
     69 N           0.8659  -21.5765  -48.2517 N.am      12 UNK        -0.5000 
     70 CA         -0.5740  -21.6504  -48.5034 C.3       12 UNK         0.1400 
     71 CB         -1.2092  -20.2707  -48.2449 C.3       12 UNK        -0.1800 
     72 C          -1.2027  -22.7529  -47.6313 C.2       12 UNK         0.5000 
     73 O          -2.2707  -22.5387  -47.0581 O.2       12 UNK        -0.5000 
     74 N          -0.5265  -23.9091  -47.5439 N.am      13 UNK        -0.5000 
     75 CA         -0.7904  -25.0486  -46.6505 C.3       13 UNK         0.1400 
     76 CB          0.1170  -26.2189  -47.0642 C.3       13 UNK        -0.1800 
     77 C          -2.2478  -25.5470  -46.5565 C.2       13 UNK         0.5000 
     78 O          -2.6314  -26.0915  -45.5205 O.2       13 UNK        -0.5000 
     79 N          -3.0324  -25.3621  -47.6265 N.am      14 UNK        -0.5000 
     80 CA         -4.4602  -25.6834  -47.6784 C.3       14 UNK         0.1400 
     81 CB         -4.9342  -25.5884  -49.1376 C.3       14 UNK        -0.1800 
     82 C          -5.3351  -24.7783  -46.7851 C.2       14 UNK         0.5000 
     83 O          -6.4466  -25.1797  -46.4392 O.2       14 UNK        -0.5000 
     84 N          -4.8398  -23.5706  -46.4649 N.am      15 UNK        -0.5000 
     85 CA         -5.5117  -22.4893  -45.7302 C.3       15 UNK         0.1400 
     86 CB         -5.7815  -22.8995  -44.2682 C.3       15 UNK        -0.1800 
     87 C          -6.7687  -21.9469  -46.4502 C.2       15 UNK         0.5000 
     88 O          -7.6596  -21.3855  -45.8099 O.2       15 UNK        -0.5000 
     89 N          -6.8074  -22.1267  -47.7750 N.am      16 UNK        -0.5000 
     90 CA         -7.8547  -21.6698  -48.6826 C.3       16 UNK         0.1400 
     91 CB         -8.0486  -22.7577  -49.7574 C.3       16 UNK        -0.1800 
     92 C          -7.4677  -20.3186  -49.3144 C.2       16 UNK         0.5000 
     93 O          -6.4514  -19.7233  -48.9449 O.2       16 UNK        -0.5000 
     94 N          -8.2713  -19.8689  -50.2874 N.am      17 UNK        -0.5000 
     95 CA         -7.9361  -18.7634  -51.1867 C.3       17 UNK         0.1400 
     96 CB         -9.1546  -18.4500  -52.0678 C.3       17 UNK        -0.1800 
     97 C          -6.7221  -19.1197  -52.0651 C.2       17 UNK         0.5000 
     98 O          -6.5395  -20.2935  -52.4007 O.2       17 UNK        -0.5000 
     99 N          -5.9277  -18.1085  -52.4410 N.am      18 UNK        -0.5000 
    100 CA        -4.6526  -18.2608  -53.1523 C.3       18 UNK         0.1400 
    101 CB        -4.0157  -16.8813  -53.3718 C.3       18 UNK        -0.1800 
    102 C         -4.7381  -19.0415  -54.4759 C.2       18 UNK         0.5000 
    103 O         -3.8139  -19.7878  -54.7956 O.2       18 UNK        -0.5000 
    104 N         -5.8706  -18.9191  -55.1809 N.am      19 UNK        -0.5000 
    105 CA        -6.1845  -19.6620  -56.4043 C.3       19 UNK         0.1400 
    106 CB        -7.5232  -19.1551  -56.9620 C.3       19 UNK        -0.1800 
    107 C         -6.2240  -21.1948  -56.2209 C.2       19 UNK         0.5000 
    108 O         -5.9760  -21.9190  -57.1856 O.2       19 UNK        -0.5000 
    109 N         -6.5210  -21.6562  -54.9989 N.am      20 UNK        -0.5000 
    110 CA        -6.5041  -23.0645  -54.6115 C.3       20 UNK         0.1400 
    111 CB        -7.7676  -23.3711  -53.7910 C.3       20 UNK        -0.1800 
    112 C         -5.2441  -23.4065  -53.7983 C.2       20 UNK         0.5000 
    113 O         -4.6765  -24.4825  -53.9889 O.2       20 UNK        -0.5000 
    114 N         -4.8421  -22.5043  -52.8917 N.am      21 UNK        -0.5000 
    115 CA        -3.7739  -22.7330  -51.9190 C.3       21 UNK         0.1400 
    116 CB        -3.9258  -21.7387  -50.7589 C.3       21 UNK        -0.1800 
    117 C         -2.3487  -22.6824  -52.4995 C.2       21 UNK         0.5000 
    118 O         -1.4593  -23.3047  -51.9186 O.2       21 UNK        -0.5000 
    119 N         -2.1437  -21.9625  -53.6089 N.am      22 UNK        -0.5000 
    120 CA        -0.8392  -21.8419  -54.2844 C.3       22 UNK         0.1400 
    121 C         -0.9265  -21.6579  -55.8248 C.2       22 UNK         0.5000 
    122 N         -2.0162  -21.1474  -56.3818 N.am      22 UNK        -0.7600 
    123 O          0.0091  -22.0142  -56.5364 O.2       22 UNK        -0.5000 
    124 C124        0.1019  -20.7991  -53.6193 C.3       23 UNK        -0.0398 
    125 S125       -0.6381  -19.1318  -53.4655 S.3       23 UNK        -0.2404 
    126 C126       -0.9517  -19.0353  -51.6756 C.3       23 UNK        -0.0205 
    127 H127       -0.4632   -8.8940  -49.8074 H         1 UNK         0.0600 
    128 H128        0.6454   -7.6571  -50.4071 H         1 UNK         0.0600 
    129 H129        0.5970   -8.0404  -48.6827 H         1 UNK         0.0600 
    130 H130        0.2466  -10.9616  -50.2400 H         1 UNK         0.3000 
    131 H131        2.8961  -11.5973  -51.0584 H         1 UNK         0.0600 
    132 H132        2.0071  -14.0204  -50.9512 H         1 UNK         0.0800 
    133 H133        1.2684  -12.9202  -52.0564 H         1 UNK         0.0800 
    134 H134        0.6622  -14.4313  -48.3426 H         1 UNK         0.0800 
    135 H135       -0.9689  -14.9687  -48.6000 H         1 UNK         0.0800 
    136 H136       -1.4509  -16.6218  -50.5146 H         1 UNK         0.1150 
    137 H137        1.7247  -19.4082  -51.2621 H         1 UNK         0.1150 
    138 H138        2.4985  -15.8010  -49.0769 H         1 UNK         0.1150 
    139 H139        4.0947  -18.4727  -50.9586 H         1 UNK         0.0800 
    140 H140        4.3366  -17.1095  -49.9079 H         1 UNK         0.0800 
    141 H141        5.1770  -21.0367  -49.3728 H         1 UNK         0.0800 
    142 H142        3.8683  -20.6871  -50.4498 H         1 UNK         0.0800 
    143 H143        3.6942  -22.8020  -49.0354 H         1 UNK         0.0600 
    144 H144        3.9576  -21.0019  -46.8793 H         1 UNK         0.3000 
    145 H145        4.2916  -23.6466  -44.7240 H         1 UNK         0.0600 
    146 H146        4.5015  -20.5945  -44.9689 H         1 UNK         0.0600 
    147 H147        5.3475  -21.6135  -43.8144 H         1 UNK         0.0600 
    148 H148        5.7220  -21.7447  -45.5224 H         1 UNK         0.0600 
    149 H149        2.0443  -21.7552  -44.3286 H         1 UNK         0.3000 
    150 H150        1.0348  -23.2963  -41.4453 H         1 UNK         0.0600 
    151 H151        1.3876  -21.3463  -39.9479 H         1 UNK         0.0600 
    152 H152        2.6828  -20.7533  -40.9862 H         1 UNK         0.0600 
    153 H153        2.8739  -22.2667  -40.1082 H         1 UNK         0.0600 
    154 H154        0.6908  -20.5599  -42.3643 H         1 UNK         0.3000 
    155 H155       -1.6019  -21.3242  -44.9284 H         1 UNK         0.0600 
    156 H156       -3.0793  -21.4685  -42.9110 H         1 UNK         0.0600 
    157 H157       -2.2437  -20.0875  -42.2066 H         1 UNK         0.0600 
    158 H158       -3.1780  -19.8991  -43.6914 H         1 UNK         0.0600 
    159 H159       -0.9055  -18.8156  -43.8947 H         1 UNK         0.3000 
    160 H160        2.1547  -18.3731  -45.7867 H         1 UNK         0.0600 
    161 H161       -0.6689  -17.1744  -45.7645 H         1 UNK         0.0600 
    162 H162        0.7803  -16.3599  -46.3388 H         1 UNK         0.0600 
    163 H163        0.1925  -17.7865  -47.1726 H         1 UNK         0.0600 
    164 H164        0.9328  -16.6894  -43.8521 H         1 UNK         0.3000 
    165 H165        2.7239  -17.8559  -40.9816 H         1 UNK         0.0600 
    166 H166        3.2045  -15.4053  -40.9229 H         1 UNK         0.0600 
    167 H167        4.2037  -16.2240  -42.1136 H         1 UNK         0.0600 
    168 H168        2.8211  -15.2770  -42.6401 H         1 UNK         0.0600 
    169 H169        0.6849  -15.8661  -41.4566 H         1 UNK         0.3000 
    170 H170       -2.0920  -17.9355  -40.6325 H         1 UNK         0.0600 
    171 H171       -0.7079  -15.7236  -39.0207 H         1 UNK         0.0600 
    172 H172       -2.3931  -16.2219  -38.8680 H         1 UNK         0.0600 
    173 H173       -1.1054  -17.3287  -38.4191 H         1 UNK         0.0600 
    174 H174       -1.8315  -15.1297  -41.1512 H         1 UNK         0.3000 
    175 H175       -2.2940  -15.3281  -44.6886 H         1 UNK         0.0600 
    176 H176       -4.1883  -13.8526  -44.1160 H         1 UNK         0.0600 
    177 H177       -4.0927  -14.3242  -42.4190 H         1 UNK         0.0600 
    178 H178       -4.5616  -15.5010  -43.6403 H         1 UNK         0.0600 
    179 H179       -2.0417  -13.0264  -43.1603 H         1 UNK         0.3000 
    180 H180       -0.2327  -11.7237  -43.5243 H         1 UNK         0.0600 
    181 H181        1.7793  -13.1926  -41.7236 H         1 UNK         0.0600 
    182 H182        0.2634  -12.4774  -41.1902 H         1 UNK         0.0600 
    183 H183        1.5483  -11.4469  -41.7997 H         1 UNK         0.0600 
    184 H184        2.4921  -12.6278  -43.9955 H         1 UNK         0.3000 
    185 H185        3.3676  -11.8088  -46.2673 H         1 UNK         0.0600 
    186 H186        2.3701  -14.6925  -46.7557 H         1 UNK         0.0600 
    187 H187        4.0179  -14.1283  -47.0063 H         1 UNK         0.0600 
    188 H188        3.3594  -14.2085  -45.3918 H         1 UNK         0.0600 
    189 H189        1.1983  -11.9159  -47.9700 H         1 UNK         0.3000 
    190 H190        1.1340  -21.3406  -47.2978 H         1 UNK         0.3000 
    191 H191       -0.7680  -21.9191  -49.5430 H         1 UNK         0.0600 
    192 H192       -0.6329  -19.4748  -48.7108 H         1 UNK         0.0600 
    193 H193       -2.2207  -20.2223  -48.6479 H         1 UNK         0.0600 
    194 H194       -1.2792  -20.0447  -47.1825 H         1 UNK         0.0600 
    195 H195        0.3528  -23.9557  -48.0392 H         1 UNK         0.3000 
    196 H196       -0.4980  -24.7320  -45.6484 H         1 UNK         0.0600 
    197 H197       -0.0346  -27.0831  -46.4158 H         1 UNK         0.0600 
    198 H198        1.1709  -25.9536  -46.9969 H         1 UNK         0.0600 
    199 H199       -0.0832  -26.5378  -48.0878 H         1 UNK         0.0600 
    200 H200       -2.6339  -24.9106  -48.4360 H         1 UNK         0.3000 
    201 H201       -4.5911  -26.7129  -47.3387 H         1 UNK         0.0600 
    202 H202       -4.3500  -26.2378  -49.7898 H         1 UNK         0.0600 
    203 H203       -4.8573  -24.5694  -49.5167 H         1 UNK         0.0600 
    204 H204       -5.9782  -25.8913  -49.2294 H         1 UNK         0.0600 
    205 H205       -3.8980  -23.3405  -46.7783 H         1 UNK         0.3000 
    206 H206       -4.8012  -21.6616  -45.7094 H         1 UNK         0.0600 
    207 H207       -4.8756  -23.2750  -43.7922 H         1 UNK         0.0600 
    208 H208       -6.1264  -22.0482  -43.6805 H         1 UNK         0.0600 
    209 H209       -6.5443  -23.6752  -44.1986 H         1 UNK         0.0600 
    210 H210       -6.0003  -22.5485  -48.2070 H         1 UNK         0.3000 
    211 H211       -8.7920  -21.5381  -48.1384 H         1 UNK         0.0600 
    212 H212       -7.1700  -22.8565  -50.3965 H         1 UNK         0.0600 
    213 H213       -8.9002  -22.5383  -50.4017 H         1 UNK         0.0600 
    214 H214       -8.2381  -23.7302  -49.3020 H         1 UNK         0.0600 
    215 H215       -9.0727  -20.4237  -50.5480 H         1 UNK         0.3000 
    216 H216       -7.6952  -17.8858  -50.5833 H         1 UNK         0.0600 
    217 H217       -8.9521  -17.6091  -52.7324 H         1 UNK         0.0600 
    218 H218      -10.0209  -18.1822  -51.4626 H         1 UNK         0.0600 
    219 H219       -9.4306  -19.3017  -52.6913 H         1 UNK         0.0600 
    220 H220       -6.1615  -17.1718  -52.1445 H         1 UNK         0.3000 
    221 H221       -3.9971  -18.8351  -52.4989 H         1 UNK         0.0600 
    222 H222       -4.6516  -16.2364  -53.9794 H         1 UNK         0.0600 
    223 H223       -3.8296  -16.3766  -52.4236 H         1 UNK         0.0600 
    224 H224       -3.0552  -16.9716  -53.8815 H         1 UNK         0.0600 
    225 H225       -6.5854  -18.2987  -54.8307 H         1 UNK         0.3000 
    226 H226       -5.4026  -19.4420  -57.1341 H         1 UNK         0.0600 
    227 H227       -7.4812  -18.0882  -57.1821 H         1 UNK         0.0600 
    228 H228       -7.7791  -19.6670  -57.8907 H         1 UNK         0.0600 
    229 H229       -8.3402  -19.3225  -56.2589 H         1 UNK         0.0600 
    230 H230       -6.6769  -20.9901  -54.2499 H         1 UNK         0.3000 
    231 H231       -6.5146  -23.7057  -55.4954 H         1 UNK         0.0600 
    232 H232       -7.8319  -22.7476  -52.8986 H         1 UNK         0.0600 
    233 H233       -7.7815  -24.4125  -53.4668 H         1 UNK         0.0600 
    234 H234       -8.6684  -23.2017  -54.3808 H         1 UNK         0.0600 
    235 H235       -5.3917  -21.6573  -52.7690 H         1 UNK         0.3000 
    236 H236       -3.9111  -23.7368  -51.5130 H         1 UNK         0.0600 
    237 H237       -4.9263  -21.7795  -50.3309 H         1 UNK         0.0600 
    238 H238       -3.2255  -21.9701  -49.9575 H         1 UNK         0.0600 
    239 H239       -3.7408  -20.7131  -51.0770 H         1 UNK         0.0600 
    240 H240       -2.9117  -21.4487  -54.0237 H         1 UNK         0.3000 
    241 H241       -0.3451  -22.8099  -54.1771 H         1 UNK         0.0600 
    242 H242       -2.0542  -21.0550  -57.3838 H         1 UNK         0.3800 
    243 H243       -2.7409  -20.7135  -55.8124 H         1 UNK         0.3800 
    244 H244        0.4045  -21.1611  -52.6365 H         1 UNK         0.0800 
    245 H245        1.0322  -20.7086  -54.1823 H         1 UNK         0.0800 
    246 H246       -0.9186  -20.0252  -51.2204 H         1 UNK         0.0800 
    247 H247       -1.9679  -18.6755  -51.5222 H         1 UNK         0.0800 
@<TRIPOS>BOND
     1    1    2 1    
     2    1  127 1    
     3    1  128 1    
     4    1  129 1    
     5    2    3 2    
     6    2    4 am   BACKBONE|DICT|INTERRES
     7    4    5 1    
     8    4  130 1    
     9    5    6 1    
    10    5   65 1    
    11    5  131 1    
    12    6    7 1    
    13    6  132 1    
    14    6  133 1    
    15    7    8 1    
    16    8    9 1    
    17    8  134 1    
    18    8  135 1    
    19    9   10 ar   
    20    9   14 ar   
    21   10   11 ar   
    22   10  136 1    
    23   11   12 ar   
    24   11  126 1    
    25   12   13 ar   
    26   12  137 1    
    27   13   14 ar   
    28   13   15 1    
    29   14  138 1    
    30   15   16 1    
    31   15  139 1    
    32   15  140 1    
    33   16   17 1    
    34   17   18 1    
    35   17  141 1    
    36   17  142 1    
    37   18   19 1    
    38   18   67 1    
    39   18  143 1    
    40   19   20 am   BACKBONE|DICT|INTERRES
    41   19  144 1    
    42   20   21 2    
    43   20   22 1    
    44   22   23 1    
    45   22   24 1    
    46   22  145 1    
    47   23  146 1    
    48   23  147 1    
    49   23  148 1    
    50   24   25 am   BACKBONE|DICT|INTERRES
    51   24  149 1    
    52   25   26 2    
    53   25   27 1    
    54   27   28 1    
    55   27   29 1    
    56   27  150 1    
    57   28  151 1    
    58   28  152 1    
    59   28  153 1    
    60   29   30 am   BACKBONE|DICT|INTERRES
    61   29  154 1    
    62   30   31 2    
    63   30   32 1    
    64   32   33 1    
    65   32   34 1    
    66   32  155 1    
    67   33  156 1    
    68   33  157 1    
    69   33  158 1    
    70   34   35 am   BACKBONE|DICT|INTERRES
    71   34  159 1    
    72   35   36 2    
    73   35   37 1    
    74   37   38 1    
    75   37   39 1    
    76   37  160 1    
    77   38  161 1    
    78   38  162 1    
    79   38  163 1    
    80   39   40 am   BACKBONE|DICT|INTERRES
    81   39  164 1    
    82   40   41 2    
    83   40   42 1    
    84   42   43 1    
    85   42   44 1    
    86   42  165 1    
    87   43  166 1    
    88   43  167 1    
    89   43  168 1    
    90   44   45 am   BACKBONE|DICT|INTERRES
    91   44  169 1    
    92   45   46 2    
    93   45   47 1    
    94   47   48 1    
    95   47   49 1    
    96   47  170 1    
    97   48  171 1    
    98   48  172 1    
    99   48  173 1    
   100   49   50 am   BACKBONE|DICT|INTERRES
   101   49  174 1    
   102   50   51 2    
   103   50   52 1    
   104   52   53 1    
   105   52   54 1    
   106   52  175 1    
   107   53  176 1    
   108   53  177 1    
   109   53  178 1    
   110   54   55 am   BACKBONE|DICT|INTERRES
   111   54  179 1    
   112   55   56 2    
   113   55   57 1    
   114   57   58 1    
   115   57   59 1    
   116   57  180 1    
   117   58  181 1    
   118   58  182 1    
   119   58  183 1    
   120   59   60 am   BACKBONE|DICT|INTERRES
   121   59  184 1    
   122   60   61 2    
   123   60   62 1    
   124   62   63 1    
   125   62   64 1    
   126   62  185 1    
   127   63  186 1    
   128   63  187 1    
   129   63  188 1    
   130   64   65 am   BACKBONE|DICT|INTERRES
   131   64  189 1    
   132   65   66 2    
   133   67   68 2    
   134   67   69 am   BACKBONE|DICT|INTERRES
   135   69   70 1    
   136   69  190 1    
   137   70   71 1    
   138   70   72 1    
   139   70  191 1    
   140   71  192 1    
   141   71  193 1    
   142   71  194 1    
   143   72   73 2    
   144   72   74 am   BACKBONE|DICT|INTERRES
   145   74   75 1    
   146   74  195 1    
   147   75   76 1    
   148   75   77 1    
   149   75  196 1    
   150   76  197 1    
   151   76  198 1    
   152   76  199 1    
   153   77   78 2    
   154   77   79 am   BACKBONE|DICT|INTERRES
   155   79   80 1    
   156   79  200 1    
   157   80   81 1    
   158   80   82 1    
   159   80  201 1    
   160   81  202 1    
   161   81  203 1    
   162   81  204 1    
   163   82   83 2    
   164   82   84 am   BACKBONE|DICT|INTERRES
   165   84   85 1    
   166   84  205 1    
   167   85   86 1    
   168   85   87 1    
   169   85  206 1    
   170   86  207 1    
   171   86  208 1    
   172   86  209 1    
   173   87   88 2    
   174   87   89 am   BACKBONE|DICT|INTERRES
   175   89   90 1    
   176   89  210 1    
   177   90   91 1    
   178   90   92 1    
   179   90  211 1    
   180   91  212 1    
   181   91  213 1    
   182   91  214 1    
   183   92   93 2    
   184   92   94 am   BACKBONE|DICT|INTERRES
   185   94   95 1    
   186   94  215 1    
   187   95   96 1    
   188   95   97 1    
   189   95  216 1    
   190   96  217 1    
   191   96  218 1    
   192   96  219 1    
   193   97   98 2    
   194   97   99 am   BACKBONE|DICT|INTERRES
   195   99  100 1    
   196   99  220 1    
   197  100  101 1    
   198  100  102 1    
   199  100  221 1    
   200  101  222 1    
   201  101  223 1    
   202  101  224 1    
   203  102  103 2    
   204  102  104 am   BACKBONE|DICT|INTERRES
   205  104  105 1    
   206  104  225 1    
   207  105  106 1    
   208  105  107 1    
   209  105  226 1    
   210  106  227 1    
   211  106  228 1    
   212  106  229 1    
   213  107  108 2    
   214  107  109 am   BACKBONE|DICT|INTERRES
   215  109  110 1    
   216  109  230 1    
   217  110  111 1    
   218  110  112 1    
   219  110  231 1    
   220  111  232 1    
   221  111  233 1    
   222  111  234 1    
   223  112  113 2    
   224  112  114 am   BACKBONE|DICT|INTERRES
   225  114  115 1    
   226  114  235 1    
   227  115  116 1    
   228  115  117 1    
   229  115  236 1    
   230  116  237 1    
   231  116  238 1    
   232  116  239 1    
   233  117  118 2    
   234  117  119 am   BACKBONE|DICT|INTERRES
   235  119  120 1    
   236  119  240 1    
   237  120  121 1    
   238  120  124 1    
   239  120  241 1    
   240  121  122 am   BACKBONE|DICT|INTERRES
   241  121  123 2    
   242  122  242 1    
   243  122  243 1    
   244  124  125 1    
   245  124  244 1    
   246  124  245 1    
   247  125  126 1    
   248  126  246 1    
   249  126  247 1    
@<TRIPOS>SUBSTRUCTURE
     1 UNK         1 GROUP             0       ****    0 ROOT    
