@<TRIPOS>MOLECULE
3R540
247   249    1
SMALL
USER_CHARGES


@<TRIPOS>ATOM
      1 CA          4.9835  -10.8672  -47.0847 C.3       0 UNK        -0.1800 
      2 C           3.5512  -11.3742  -47.1691 C.2       0 UNK         0.5000 
      3 O           2.6380  -10.5889  -47.4236 O.2       0 UNK        -0.5000 
      4 N           3.3482  -12.6776  -46.9340 N.am      1 UNK        -0.5000 
      5 CA          2.0872  -13.4353  -47.0044 C.3       1 UNK         0.1400 
      6 C6          1.4388  -13.4369  -48.4201 C.3       23 UNK        -0.0398 
      7 S7          2.1403  -14.7287  -49.5029 S.3       23 UNK        -0.2404 
      8 C8          0.6662  -15.7697  -49.7574 C.3       23 UNK        -0.0205 
      9 C9          0.9771  -17.0628  -50.4947 C.ar      23 UNK        -0.0193 
     10 C10         1.2127  -17.0450  -51.8716 C.ar      23 UNK        -0.1150 
     11 C11         1.4492  -18.2337  -52.5683 C.ar      23 UNK        -0.0193 
     12 C12         1.4562  -19.4471  -51.8738 C.ar      23 UNK        -0.1150 
     13 C13         1.1849  -19.4826  -50.5040 C.ar      23 UNK        -0.0193 
     14 C14         0.9611  -18.2863  -49.8169 C.ar      23 UNK        -0.1150 
     15 C15         1.0498  -20.8164  -49.7871 C.3       23 UNK        -0.0205 
     16 S16         2.6459  -21.4933  -49.2430 S.3       23 UNK        -0.2404 
     17 C17         2.0347  -23.0207  -48.4559 C.3       23 UNK        -0.0398 
     18 CA          3.0581  -23.7128  -47.5221 C.3       11 UNK         0.1400 
     19 N           3.4500  -22.8550  -46.3974 N.am      11 UNK        -0.5000 
     20 C           4.4728  -23.0961  -45.5652 C.2       10 UNK         0.5000 
     21 O           5.2595  -24.0338  -45.7000 O.2       10 UNK        -0.5000 
     22 CA          4.6107  -22.1575  -44.3532 C.3       10 UNK         0.1400 
     23 CB          5.3579  -20.8691  -44.7323 C.3       10 UNK        -0.1800 
     24 N           3.3079  -21.8232  -43.7731 N.am      10 UNK        -0.5000 
     25 C           2.5759  -22.6560  -43.0189 C.2       9 UNK         0.5000 
     26 O           2.9423  -23.7865  -42.6989 O.2       9 UNK        -0.5000 
     27 CA          1.1916  -22.1563  -42.5621 C.3       9 UNK         0.1400 
     28 CB          1.2991  -21.4188  -41.2193 C.3       9 UNK        -0.1800 
     29 N           0.5509  -21.2802  -43.5428 N.am      9 UNK        -0.5000 
     30 C           0.0600  -21.6953  -44.7195 C.2       8 UNK         0.5000 
     31 O           0.0715  -22.8681  -45.0898 O.2       8 UNK        -0.5000 
     32 CA         -0.4738  -20.6108  -45.6742 C.3       8 UNK         0.1400 
     33 CB         -1.9436  -20.3042  -45.3672 C.3       8 UNK        -0.1800 
     34 N           0.2980  -19.3672  -45.6272 N.am      8 UNK        -0.5000 
     35 C           1.6181  -19.2816  -45.8455 C.2       7 UNK         0.5000 
     36 O           2.3067  -20.2396  -46.1885 O.2       7 UNK        -0.5000 
     37 CA          2.3054  -17.9338  -45.5705 C.3       7 UNK         0.1400 
     38 CB          2.7090  -17.2414  -46.8744 C.3       7 UNK        -0.1800 
     39 N           1.5086  -17.0245  -44.7412 N.am      7 UNK        -0.5000 
     40 C           1.2878  -17.2205  -43.4343 C.2       6 UNK         0.5000 
     41 O           1.6954  -18.2030  -42.8132 O.2       6 UNK        -0.5000 
     42 CA          0.4537  -16.1565  -42.7114 C.3       6 UNK         0.1400 
     43 CB          1.3196  -14.9381  -42.3583 C.3       6 UNK        -0.1800 
     44 N          -0.7195  -15.7442  -43.4888 N.am      6 UNK        -0.5000 
     45 C          -1.8709  -16.4291  -43.4856 C.2       5 UNK         0.5000 
     46 O          -2.0072  -17.5186  -42.9283 O.2       5 UNK        -0.5000 
     47 CA         -3.0941  -15.7918  -44.1684 C.3       5 UNK         0.1400 
     48 CB         -3.8406  -14.8893  -43.1743 C.3       5 UNK        -0.1800 
     49 N          -2.8090  -15.0171  -45.3748 N.am      5 UNK        -0.5000 
     50 C          -2.5232  -15.5648  -46.5654 C.2       4 UNK         0.5000 
     51 O          -2.2682  -16.7613  -46.7120 O.2       4 UNK        -0.5000 
     52 CA         -2.5885  -14.6574  -47.8112 C.3       4 UNK         0.1400 
     53 CB         -3.8687  -14.9503  -48.6181 C.3       4 UNK        -0.1800 
     54 N          -2.5252  -13.2358  -47.4794 N.am      4 UNK        -0.5000 
     55 C          -2.3679  -12.2210  -48.3351 C.2       3 UNK         0.5000 
     56 O          -2.2293  -12.3598  -49.5501 O.2       3 UNK        -0.5000 
     57 CA         -2.3126  -10.8075  -47.7225 C.3       3 UNK         0.1400 
     58 CB         -3.7131  -10.3077  -47.3183 C.3       3 UNK        -0.1800 
     59 N          -1.3483  -10.7016  -46.6202 N.am      3 UNK        -0.5000 
     60 C          -1.3852  -11.2774  -45.4092 C.2       2 UNK         0.5000 
     61 O          -2.3381  -11.9344  -44.9803 O.2       2 UNK        -0.5000 
     62 CA         -0.0551  -11.2217  -44.6353 C.3       2 UNK         0.1400 
     63 CB         -0.1432  -11.8539  -43.2330 C.3       2 UNK        -0.1800 
     64 N           1.0087  -11.8346  -45.4439 N.am      2 UNK        -0.5000 
     65 C           1.0417  -13.0881  -45.9213 C.2       1 UNK         0.5000 
     66 O           0.2690  -13.9770  -45.5603 O.2       1 UNK        -0.5000 
     67 C           2.4690  -25.0640  -47.0544 C.2       11 UNK         0.5000 
     68 O           2.4871  -26.0232  -47.8265 O.2       11 UNK        -0.5000 
     69 N           1.9247  -25.0951  -45.8270 N.am      12 UNK        -0.5000 
     70 CA          1.1022  -26.1573  -45.2367 C.3       12 UNK         0.1400 
     71 CB          1.9052  -27.4625  -45.0584 C.3       12 UNK        -0.1800 
     72 C          -0.2194  -26.3424  -46.0138 C.2       12 UNK         0.5000 
     73 O          -0.6442  -27.4692  -46.2778 O.2       12 UNK        -0.5000 
     74 N          -0.8264  -25.2109  -46.3906 N.am      13 UNK        -0.5000 
     75 CA         -2.0727  -25.1254  -47.1418 C.3       13 UNK         0.1400 
     76 CB         -2.1100  -23.7715  -47.8678 C.3       13 UNK        -0.1800 
     77 C          -3.2958  -25.2805  -46.2209 C.2       13 UNK         0.5000 
     78 O          -3.2283  -24.9547  -45.0332 O.2       13 UNK        -0.5000 
     79 N          -4.4075  -25.7459  -46.8026 N.am      14 UNK        -0.5000 
     80 CA         -5.6890  -25.9457  -46.1177 C.3       14 UNK         0.1400 
     81 CB         -6.4932  -27.0036  -46.8918 C.3       14 UNK        -0.1800 
     82 C          -6.5160  -24.6517  -45.9605 C.2       14 UNK         0.5000 
     83 O          -7.5193  -24.6614  -45.2458 O.2       14 UNK        -0.5000 
     84 N          -6.1037  -23.5733  -46.6349 N.am      15 UNK        -0.5000 
     85 CA         -6.7483  -22.2652  -46.6452 C.3       15 UNK         0.1400 
     86 CB         -7.8618  -22.2523  -47.7093 C.3       15 UNK        -0.1800 
     87 C          -5.6879  -21.1954  -46.9385 C.2       15 UNK         0.5000 
     88 O          -4.5739  -21.5380  -47.3472 O.2       15 UNK        -0.5000 
     89 N          -6.0630  -19.9215  -46.7554 N.am      16 UNK        -0.5000 
     90 CA         -5.2489  -18.7322  -47.0237 C.3       16 UNK         0.1400 
     91 CB         -6.0855  -17.4785  -46.7256 C.3       16 UNK        -0.1800 
     92 C          -4.7164  -18.7230  -48.4696 C.2       16 UNK         0.5000 
     93 O          -5.5088  -18.6255  -49.4084 O.2       16 UNK        -0.5000 
     94 N          -3.3976  -18.9125  -48.6167 N.am      17 UNK        -0.5000 
     95 CA         -2.6594  -19.1057  -49.8717 C.3       17 UNK         0.1400 
     96 CB         -2.5395  -17.7708  -50.6317 C.3       17 UNK        -0.1800 
     97 C          -3.2134  -20.2503  -50.7507 C.2       17 UNK         0.5000 
     98 O          -3.1697  -20.1587  -51.9782 O.2       17 UNK        -0.5000 
     99 N          -3.7727  -21.2859  -50.1039 N.am      18 UNK        -0.5000 
    100 CA        -4.5161  -22.4018  -50.7000 C.3       18 UNK         0.1400 
    101 CB        -3.5813  -23.2924  -51.5424 C.3       18 UNK        -0.1800 
    102 C         -5.7621  -21.9268  -51.4786 C.2       18 UNK         0.5000 
    103 O         -6.0368  -22.4285  -52.5673 O.2       18 UNK        -0.5000 
    104 N         -6.4660  -20.9317  -50.9176 N.am      19 UNK        -0.5000 
    105 CA        -7.5783  -20.1853  -51.5179 C.3       19 UNK         0.1400 
    106 CB        -8.7916  -21.0979  -51.7929 C.3       19 UNK        -0.1800 
    107 C         -7.1160  -19.3764  -52.7484 C.2       19 UNK         0.5000 
    108 O         -7.7970  -19.3504  -53.7746 O.2       19 UNK        -0.5000 
    109 N         -5.9359  -18.7537  -52.6090 N.am      20 UNK        -0.5000 
    110 CA        -5.1965  -17.9677  -53.6045 C.3       20 UNK         0.1400 
    111 CB        -5.9912  -16.7095  -54.0104 C.3       20 UNK        -0.1800 
    112 C         -4.6931  -18.7716  -54.8253 C.2       20 UNK         0.5000 
    113 O         -4.2900  -18.1654  -55.8195 O.2       20 UNK        -0.5000 
    114 N         -4.6991  -20.1088  -54.7392 N.am      21 UNK        -0.5000 
    115 CA        -4.2063  -21.0062  -55.7860 C.3       21 UNK         0.1400 
    116 CB        -4.9903  -22.3257  -55.7234 C.3       21 UNK        -0.1800 
    117 C         -2.6941  -21.2823  -55.6774 C.2       21 UNK         0.5000 
    118 O         -2.1101  -21.7745  -56.6432 O.2       21 UNK        -0.5000 
    119 N         -2.0975  -20.9993  -54.5110 N.am      22 UNK        -0.5000 
    120 CA        -0.6909  -21.2470  -54.1428 C.3       22 UNK         0.1400 
    121 C         -0.3017  -22.7460  -53.9534 C.2       22 UNK         0.5000 
    122 N         -1.2054  -23.7056  -54.1041 N.am      22 UNK        -0.7600 
    123 O          0.8425  -23.0462  -53.6248 O.2       22 UNK        -0.5000 
    124 C124        0.3363  -20.5028  -55.0452 C.3       23 UNK        -0.0398 
    125 S125        0.1754  -18.6837  -54.9934 S.3       23 UNK        -0.2404 
    126 C126        1.6753  -18.2013  -54.0724 C.3       23 UNK        -0.0205 
    127 H127        5.6838  -11.6667  -46.8418 H         1 UNK         0.0600 
    128 H128        5.0647  -10.0984  -46.3163 H         1 UNK         0.0600 
    129 H129        5.2828  -10.4313  -48.0377 H         1 UNK         0.0600 
    130 H130        4.1537  -13.2417  -46.7018 H         1 UNK         0.3000 
    131 H131        2.3717  -14.4574  -46.7651 H         1 UNK         0.0600 
    132 H132        1.5514  -12.4717  -48.9137 H         1 UNK         0.0800 
    133 H133        0.3611  -13.5951  -48.3650 H         1 UNK         0.0800 
    134 H134        0.2180  -15.9989  -48.7907 H         1 UNK         0.0800 
    135 H135       -0.0794  -15.2046  -50.3193 H         1 UNK         0.0800 
    136 H136        1.1994  -16.1028  -52.4013 H         1 UNK         0.1150 
    137 H137        1.6370  -20.3713  -52.4033 H         1 UNK         0.1150 
    138 H138        0.7369  -18.3152  -48.7607 H         1 UNK         0.1150 
    139 H139        0.3982  -20.7036  -48.9205 H         1 UNK         0.0800 
    140 H140        0.5605  -21.5359  -50.4461 H         1 UNK         0.0800 
    141 H141        1.1271  -22.7863  -47.8964 H         1 UNK         0.0800 
    142 H142        1.7321  -23.6954  -49.2596 H         1 UNK         0.0800 
    143 H143        3.9556  -23.9345  -48.1033 H         1 UNK         0.0600 
    144 H144        2.9116  -22.0006  -46.2707 H         1 UNK         0.3000 
    145 H145        5.2018  -22.6753  -43.5947 H         1 UNK         0.0600 
    146 H146        5.4688  -20.2092  -43.8718 H         1 UNK         0.0600 
    147 H147        4.8451  -20.3138  -45.5175 H         1 UNK         0.0600 
    148 H148        6.3596  -21.0972  -45.0982 H         1 UNK         0.0600 
    149 H149        2.9105  -20.9332  -44.0369 H         1 UNK         0.3000 
    150 H150        0.5536  -23.0313  -42.4191 H         1 UNK         0.0600 
    151 H151        1.9246  -20.5288  -41.2974 H         1 UNK         0.0600 
    152 H152        0.3179  -21.1086  -40.8596 H         1 UNK         0.0600 
    153 H153        1.7373  -22.0619  -40.4550 H         1 UNK         0.0600 
    154 H154        0.5371  -20.2919  -43.3278 H         1 UNK         0.3000 
    155 H155       -0.4094  -21.0038  -46.6898 H         1 UNK         0.0600 
    156 H156       -2.5600  -21.2000  -45.4506 H         1 UNK         0.0600 
    157 H157       -2.3345  -19.5689  -46.0652 H         1 UNK         0.0600 
    158 H158       -2.0724  -19.9093  -44.3590 H         1 UNK         0.0600 
    159 H159       -0.1957  -18.5341  -45.3407 H         1 UNK         0.3000 
    160 H160        3.2252  -18.1669  -45.0294 H         1 UNK         0.0600 
    161 H161        1.8491  -16.7823  -47.3549 H         1 UNK         0.0600 
    162 H162        3.1507  -17.9440  -47.5832 H         1 UNK         0.0600 
    163 H163        3.4536  -16.4679  -46.6905 H         1 UNK         0.0600 
    164 H164        1.1112  -16.2063  -45.1830 H         1 UNK         0.3000 
    165 H165        0.1170  -16.5932  -41.7683 H         1 UNK         0.0600 
    166 H166        0.7702  -14.2377  -41.7300 H         1 UNK         0.0600 
    167 H167        2.2065  -15.2394  -41.7995 H         1 UNK         0.0600 
    168 H168        1.6600  -14.4059  -43.2461 H         1 UNK         0.0600 
    169 H169       -0.6356  -14.9055  -44.0552 H         1 UNK         0.3000 
    170 H170       -3.7673  -16.6065  -44.4452 H         1 UNK         0.0600 
    171 H171       -4.0931  -15.4325  -42.2626 H         1 UNK         0.0600 
    172 H172       -3.2390  -14.0255  -42.8874 H         1 UNK         0.0600 
    173 H173       -4.7739  -14.5207  -43.6004 H         1 UNK         0.0600 
    174 H174       -2.9559  -14.0211  -45.2935 H         1 UNK         0.3000 
    175 H175       -1.7270  -14.9006  -48.4295 H         1 UNK         0.0600 
    176 H176       -4.7597  -14.6048  -48.0933 H         1 UNK         0.0600 
    177 H177       -3.8493  -14.4680  -49.5950 H         1 UNK         0.0600 
    178 H178       -3.9867  -16.0156  -48.8012 H         1 UNK         0.0600 
    179 H179       -2.5538  -12.9872  -46.4957 H         1 UNK         0.3000 
    180 H180       -1.9431  -10.1402  -48.5029 H         1 UNK         0.0600 
    181 H181       -4.3785  -10.2860  -48.1822 H         1 UNK         0.0600 
    182 H182       -3.6689   -9.2956  -46.9166 H         1 UNK         0.0600 
    183 H183       -4.1805  -10.9460  -46.5683 H         1 UNK         0.0600 
    184 H184       -0.4873  -10.2352  -46.8714 H         1 UNK         0.3000 
    185 H185        0.2042  -10.1693  -44.5115 H         1 UNK         0.0600 
    186 H186       -0.8314  -11.2924  -42.6007 H         1 UNK         0.0600 
    187 H187       -0.5077  -12.8793  -43.2697 H         1 UNK         0.0600 
    188 H188        0.8280  -11.8549  -42.7385 H         1 UNK         0.0600 
    189 H189        1.6702  -11.1868  -45.8612 H         1 UNK         0.3000 
    190 H190        1.9352  -24.2298  -45.3039 H         1 UNK         0.3000 
    191 H191        0.8234  -25.8057  -44.2421 H         1 UNK         0.0600 
    192 H192        1.3320  -28.1956  -44.4899 H         1 UNK         0.0600 
    193 H193        2.8322  -27.2821  -44.5140 H         1 UNK         0.0600 
    194 H194        2.1601  -27.9206  -46.0142 H         1 UNK         0.0600 
    195 H195       -0.4596  -24.3332  -46.0287 H         1 UNK         0.3000 
    196 H196       -2.0904  -25.9218  -47.8892 H         1 UNK         0.0600 
    197 H197       -3.0186  -23.6734  -48.4598 H         1 UNK         0.0600 
    198 H198       -1.2660  -23.6623  -48.5490 H         1 UNK         0.0600 
    199 H199       -2.0861  -22.9375  -47.1660 H         1 UNK         0.0600 
    200 H200       -4.3847  -25.9895  -47.7826 H         1 UNK         0.3000 
    201 H201       -5.4974  -26.3329  -45.1144 H         1 UNK         0.0600 
    202 H202       -7.4402  -27.2182  -46.3946 H         1 UNK         0.0600 
    203 H203       -5.9457  -27.9440  -46.9605 H         1 UNK         0.0600 
    204 H204       -6.7228  -26.6725  -47.9058 H         1 UNK         0.0600 
    205 H205       -5.2229  -23.6061  -47.1301 H         1 UNK         0.3000 
    206 H206       -7.1732  -22.0570  -45.6610 H         1 UNK         0.0600 
    207 H207       -8.6385  -22.9800  -47.4737 H         1 UNK         0.0600 
    208 H208       -8.3447  -21.2766  -47.7726 H         1 UNK         0.0600 
    209 H209       -7.4735  -22.4925  -48.6994 H         1 UNK         0.0600 
    210 H210       -7.0050  -19.7413  -46.4403 H         1 UNK         0.3000 
    211 H211       -4.4091  -18.7401  -46.3290 H         1 UNK         0.0600 
    212 H212       -6.9491  -17.4005  -47.3873 H         1 UNK         0.0600 
    213 H213       -5.4913  -16.5744  -46.8505 H         1 UNK         0.0600 
    214 H214       -6.4489  -17.4811  -45.6978 H         1 UNK         0.0600 
    215 H215       -2.8337  -18.9397  -47.7791 H         1 UNK         0.3000 
    216 H216       -1.6552  -19.4161  -49.5878 H         1 UNK         0.0600 
    217 H217       -2.0487  -17.0183  -50.0162 H         1 UNK         0.0600 
    218 H218       -3.5149  -17.3794  -50.9177 H         1 UNK         0.0600 
    219 H219       -1.9429  -17.8805  -51.5386 H         1 UNK         0.0600 
    220 H220       -3.7974  -21.2543  -49.0879 H         1 UNK         0.3000 
    221 H221       -4.8903  -23.0033  -49.8708 H         1 UNK         0.0600 
    222 H222       -4.0883  -24.2055  -51.8555 H         1 UNK         0.0600 
    223 H223       -3.2486  -22.7798  -52.4436 H         1 UNK         0.0600 
    224 H224       -2.6960  -23.5874  -50.9798 H         1 UNK         0.0600 
    225 H225       -6.1022  -20.5185  -50.0676 H         1 UNK         0.3000 
    226 H226       -7.8873  -19.4512  -50.7724 H         1 UNK         0.0600 
    227 H227       -9.0753  -21.6551  -50.9002 H         1 UNK         0.0600 
    228 H228       -9.6575  -20.5094  -52.0972 H         1 UNK         0.0600 
    229 H229       -8.5927  -21.8158  -52.5886 H         1 UNK         0.0600 
    230 H230       -5.4751  -18.8494  -51.7126 H         1 UNK         0.3000 
    231 H231       -4.2928  -17.6274  -53.0997 H         1 UNK         0.0600 
    232 H232       -5.3817  -16.0388  -54.6169 H         1 UNK         0.0600 
    233 H233       -6.3131  -16.1471  -53.1340 H         1 UNK         0.0600 
    234 H234       -6.8773  -16.9602  -54.5939 H         1 UNK         0.0600 
    235 H235       -5.0304  -20.5389  -53.8862 H         1 UNK         0.3000 
    236 H236       -4.3910  -20.5552  -56.7631 H         1 UNK         0.0600 
    237 H237       -6.0659  -22.1508  -55.7564 H         1 UNK         0.0600 
    238 H238       -4.7387  -22.9678  -56.5682 H         1 UNK         0.0600 
    239 H239       -4.7681  -22.8839  -54.8140 H         1 UNK         0.0600 
    240 H240       -2.6626  -20.6125  -53.7593 H         1 UNK         0.3000 
    241 H241       -0.6068  -20.8277  -53.1409 H         1 UNK         0.0600 
    242 H242       -2.1445  -23.4843  -54.3886 H         1 UNK         0.3800 
    243 H243       -0.9333  -24.6657  -53.9653 H         1 UNK         0.3800 
    244 H244        0.2375  -20.8230  -56.0824 H         1 UNK         0.0800 
    245 H245        1.3568  -20.7664  -54.7660 H         1 UNK         0.0800 
    246 H246        1.9569  -17.1941  -54.3830 H         1 UNK         0.0800 
    247 H247        2.5179  -18.8393  -54.3417 H         1 UNK         0.0800 
@<TRIPOS>BOND
     1    1    2 1    
     2    1  127 1    
     3    1  128 1    
     4    1  129 1    
     5    2    3 2    
     6    2    4 am   BACKBONE|DICT|INTERRES
     7    4    5 1    
     8    4  130 1    
     9    5    6 1    
    10    5   65 1    
    11    5  131 1    
    12    6    7 1    
    13    6  132 1    
    14    6  133 1    
    15    7    8 1    
    16    8    9 1    
    17    8  134 1    
    18    8  135 1    
    19    9   10 ar   
    20    9   14 ar   
    21   10   11 ar   
    22   10  136 1    
    23   11   12 ar   
    24   11  126 1    
    25   12   13 ar   
    26   12  137 1    
    27   13   14 ar   
    28   13   15 1    
    29   14  138 1    
    30   15   16 1    
    31   15  139 1    
    32   15  140 1    
    33   16   17 1    
    34   17   18 1    
    35   17  141 1    
    36   17  142 1    
    37   18   19 1    
    38   18   67 1    
    39   18  143 1    
    40   19   20 am   BACKBONE|DICT|INTERRES
    41   19  144 1    
    42   20   21 2    
    43   20   22 1    
    44   22   23 1    
    45   22   24 1    
    46   22  145 1    
    47   23  146 1    
    48   23  147 1    
    49   23  148 1    
    50   24   25 am   BACKBONE|DICT|INTERRES
    51   24  149 1    
    52   25   26 2    
    53   25   27 1    
    54   27   28 1    
    55   27   29 1    
    56   27  150 1    
    57   28  151 1    
    58   28  152 1    
    59   28  153 1    
    60   29   30 am   BACKBONE|DICT|INTERRES
    61   29  154 1    
    62   30   31 2    
    63   30   32 1    
    64   32   33 1    
    65   32   34 1    
    66   32  155 1    
    67   33  156 1    
    68   33  157 1    
    69   33  158 1    
    70   34   35 am   BACKBONE|DICT|INTERRES
    71   34  159 1    
    72   35   36 2    
    73   35   37 1    
    74   37   38 1    
    75   37   39 1    
    76   37  160 1    
    77   38  161 1    
    78   38  162 1    
    79   38  163 1    
    80   39   40 am   BACKBONE|DICT|INTERRES
    81   39  164 1    
    82   40   41 2    
    83   40   42 1    
    84   42   43 1    
    85   42   44 1    
    86   42  165 1    
    87   43  166 1    
    88   43  167 1    
    89   43  168 1    
    90   44   45 am   BACKBONE|DICT|INTERRES
    91   44  169 1    
    92   45   46 2    
    93   45   47 1    
    94   47   48 1    
    95   47   49 1    
    96   47  170 1    
    97   48  171 1    
    98   48  172 1    
    99   48  173 1    
   100   49   50 am   BACKBONE|DICT|INTERRES
   101   49  174 1    
   102   50   51 2    
   103   50   52 1    
   104   52   53 1    
   105   52   54 1    
   106   52  175 1    
   107   53  176 1    
   108   53  177 1    
   109   53  178 1    
   110   54   55 am   BACKBONE|DICT|INTERRES
   111   54  179 1    
   112   55   56 2    
   113   55   57 1    
   114   57   58 1    
   115   57   59 1    
   116   57  180 1    
   117   58  181 1    
   118   58  182 1    
   119   58  183 1    
   120   59   60 am   BACKBONE|DICT|INTERRES
   121   59  184 1    
   122   60   61 2    
   123   60   62 1    
   124   62   63 1    
   125   62   64 1    
   126   62  185 1    
   127   63  186 1    
   128   63  187 1    
   129   63  188 1    
   130   64   65 am   BACKBONE|DICT|INTERRES
   131   64  189 1    
   132   65   66 2    
   133   67   68 2    
   134   67   69 am   BACKBONE|DICT|INTERRES
   135   69   70 1    
   136   69  190 1    
   137   70   71 1    
   138   70   72 1    
   139   70  191 1    
   140   71  192 1    
   141   71  193 1    
   142   71  194 1    
   143   72   73 2    
   144   72   74 am   BACKBONE|DICT|INTERRES
   145   74   75 1    
   146   74  195 1    
   147   75   76 1    
   148   75   77 1    
   149   75  196 1    
   150   76  197 1    
   151   76  198 1    
   152   76  199 1    
   153   77   78 2    
   154   77   79 am   BACKBONE|DICT|INTERRES
   155   79   80 1    
   156   79  200 1    
   157   80   81 1    
   158   80   82 1    
   159   80  201 1    
   160   81  202 1    
   161   81  203 1    
   162   81  204 1    
   163   82   83 2    
   164   82   84 am   BACKBONE|DICT|INTERRES
   165   84   85 1    
   166   84  205 1    
   167   85   86 1    
   168   85   87 1    
   169   85  206 1    
   170   86  207 1    
   171   86  208 1    
   172   86  209 1    
   173   87   88 2    
   174   87   89 am   BACKBONE|DICT|INTERRES
   175   89   90 1    
   176   89  210 1    
   177   90   91 1    
   178   90   92 1    
   179   90  211 1    
   180   91  212 1    
   181   91  213 1    
   182   91  214 1    
   183   92   93 2    
   184   92   94 am   BACKBONE|DICT|INTERRES
   185   94   95 1    
   186   94  215 1    
   187   95   96 1    
   188   95   97 1    
   189   95  216 1    
   190   96  217 1    
   191   96  218 1    
   192   96  219 1    
   193   97   98 2    
   194   97   99 am   BACKBONE|DICT|INTERRES
   195   99  100 1    
   196   99  220 1    
   197  100  101 1    
   198  100  102 1    
   199  100  221 1    
   200  101  222 1    
   201  101  223 1    
   202  101  224 1    
   203  102  103 2    
   204  102  104 am   BACKBONE|DICT|INTERRES
   205  104  105 1    
   206  104  225 1    
   207  105  106 1    
   208  105  107 1    
   209  105  226 1    
   210  106  227 1    
   211  106  228 1    
   212  106  229 1    
   213  107  108 2    
   214  107  109 am   BACKBONE|DICT|INTERRES
   215  109  110 1    
   216  109  230 1    
   217  110  111 1    
   218  110  112 1    
   219  110  231 1    
   220  111  232 1    
   221  111  233 1    
   222  111  234 1    
   223  112  113 2    
   224  112  114 am   BACKBONE|DICT|INTERRES
   225  114  115 1    
   226  114  235 1    
   227  115  116 1    
   228  115  117 1    
   229  115  236 1    
   230  116  237 1    
   231  116  238 1    
   232  116  239 1    
   233  117  118 2    
   234  117  119 am   BACKBONE|DICT|INTERRES
   235  119  120 1    
   236  119  240 1    
   237  120  121 1    
   238  120  124 1    
   239  120  241 1    
   240  121  122 am   BACKBONE|DICT|INTERRES
   241  121  123 2    
   242  122  242 1    
   243  122  243 1    
   244  124  125 1    
   245  124  244 1    
   246  124  245 1    
   247  125  126 1    
   248  126  246 1    
   249  126  247 1    
@<TRIPOS>SUBSTRUCTURE
     1 UNK         1 GROUP             0       ****    0 ROOT    
