@<TRIPOS>MOLECULE
3R540
247   249    1
SMALL
USER_CHARGES


@<TRIPOS>ATOM
      1 CA         -1.2585  -10.1506  -51.3964 C.3       0 UNK        -0.1800 
      2 C          -0.6655  -11.0035  -50.2847 C.2       0 UNK         0.5000 
      3 O          -0.6729  -10.5912  -49.1249 O.2       0 UNK        -0.5000 
      4 N          -0.1712  -12.2017  -50.6285 N.am      1 UNK        -0.5000 
      5 CA          0.4697  -13.1594  -49.7130 C.3       1 UNK         0.1400 
      6 C6          1.1219  -14.3330  -50.4916 C.3       23 UNK        -0.0398 
      7 S7          2.4983  -15.0985  -49.5670 S.3       23 UNK        -0.2404 
      8 C8          3.3547  -16.0514  -50.8597 C.3       23 UNK        -0.0205 
      9 C9          2.7287  -17.4194  -51.0987 C.ar      23 UNK        -0.0193 
     10 C10         2.0627  -17.6965  -52.2960 C.ar      23 UNK        -0.1150 
     11 C11         1.5657  -18.9789  -52.5516 C.ar      23 UNK        -0.0193 
     12 C12         1.7110  -19.9813  -51.5873 C.ar      23 UNK        -0.1150 
     13 C13         2.3842  -19.7209  -50.3903 C.ar      23 UNK        -0.0193 
     14 C14         2.8874  -18.4372  -50.1527 C.ar      23 UNK        -0.1150 
     15 C15         2.6531  -20.8440  -49.3968 C.3       23 UNK        -0.0205 
     16 S16         1.8766  -20.5567  -47.7775 S.3       23 UNK        -0.2404 
     17 C17         0.2456  -21.3478  -47.9741 C.3       23 UNK        -0.0398 
     18 CA          0.1460  -22.7079  -47.2399 C.3       11 UNK         0.1400 
     19 N           0.4386  -22.5950  -45.8064 N.am      11 UNK        -0.5000 
     20 C           0.5750  -23.6320  -44.9690 C.2       10 UNK         0.5000 
     21 O           0.5299  -24.8077  -45.3285 O.2       10 UNK        -0.5000 
     22 CA          0.7279  -23.3024  -43.4741 C.3       10 UNK         0.1400 
     23 CB          2.1924  -23.0079  -43.1161 C.3       10 UNK        -0.1800 
     24 N          -0.1218  -22.1787  -43.0758 N.am      10 UNK        -0.5000 
     25 C          -1.4552  -22.2523  -42.9585 C.2       9 UNK         0.5000 
     26 O          -2.0956  -23.2879  -43.1397 O.2       9 UNK        -0.5000 
     27 CA         -2.2043  -20.9476  -42.6219 C.3       9 UNK         0.1400 
     28 CB         -2.1705  -20.6807  -41.1099 C.3       9 UNK        -0.1800 
     29 N          -1.6768  -19.7801  -43.3279 N.am      9 UNK        -0.5000 
     30 C          -1.6588  -19.6359  -44.6602 C.2       8 UNK         0.5000 
     31 O          -2.1463  -20.4467  -45.4461 O.2       8 UNK        -0.5000 
     32 CA         -0.9152  -18.4127  -45.2197 C.3       8 UNK         0.1400 
     33 CB         -1.8514  -17.1986  -45.3004 C.3       8 UNK        -0.1800 
     34 N           0.2901  -18.0618  -44.4692 N.am      8 UNK        -0.5000 
     35 C           1.3289  -18.8780  -44.2391 C.2       7 UNK         0.5000 
     36 O           1.3637  -20.0568  -44.5861 O.2       7 UNK        -0.5000 
     37 CA          2.5009  -18.2918  -43.4400 C.3       7 UNK         0.1400 
     38 CB          3.3780  -17.3944  -44.3274 C.3       7 UNK        -0.1800 
     39 N           2.0104  -17.5333  -42.2916 N.am      7 UNK        -0.5000 
     40 C           1.6102  -18.0906  -41.1405 C.2       6 UNK         0.5000 
     41 O           1.7011  -19.2939  -40.8948 O.2       6 UNK        -0.5000 
     42 CA          0.9813  -17.1505  -40.0941 C.3       6 UNK         0.1400 
     43 CB          2.0649  -16.5559  -39.1822 C.3       6 UNK        -0.1800 
     44 N           0.2020  -16.0623  -40.6883 N.am      6 UNK        -0.5000 
     45 C          -0.9377  -16.2308  -41.3729 C.2       5 UNK         0.5000 
     46 O          -1.4609  -17.3277  -41.5731 O.2       5 UNK        -0.5000 
     47 CA         -1.5803  -14.9617  -41.9667 C.3       5 UNK         0.1400 
     48 CB         -2.4638  -14.2675  -40.9199 C.3       5 UNK        -0.1800 
     49 N          -0.6373  -13.9841  -42.5224 N.am      5 UNK        -0.5000 
     50 C           0.3235  -14.2317  -43.4233 C.2       4 UNK         0.5000 
     51 O           0.6302  -15.3616  -43.8010 O.2       4 UNK        -0.5000 
     52 CA          1.0207  -13.0013  -44.0301 C.3       4 UNK         0.1400 
     53 CB          2.2672  -13.3720  -44.8541 C.3       4 UNK        -0.1800 
     54 N           0.0772  -12.2883  -44.8880 N.am      4 UNK        -0.5000 
     55 C          -0.8195  -11.3896  -44.4574 C.2       3 UNK         0.5000 
     56 O          -0.8852  -11.0084  -43.2875 O.2       3 UNK        -0.5000 
     57 CA         -1.8312  -10.8451  -45.4848 C.3       3 UNK         0.1400 
     58 CB         -1.3585   -9.4922  -46.0367 C.3       3 UNK        -0.1800 
     59 N          -2.0789  -11.7614  -46.5998 N.am      3 UNK        -0.5000 
     60 C          -2.7080  -12.9429  -46.4909 C.2       2 UNK         0.5000 
     61 O          -3.1889  -13.3617  -45.4375 O.2       2 UNK        -0.5000 
     62 CA         -2.8206  -13.8084  -47.7645 C.3       2 UNK         0.1400 
     63 CB         -4.2031  -13.5996  -48.4044 C.3       2 UNK        -0.1800 
     64 N          -1.7836  -13.5442  -48.7679 N.am      2 UNK        -0.5000 
     65 C          -0.4597  -13.6468  -48.5714 C.2       1 UNK         0.5000 
     66 O           0.0317  -14.0367  -47.5128 O.2       1 UNK        -0.5000 
     67 C          -1.2295  -23.3707  -47.4791 C.2       11 UNK         0.5000 
     68 O          -1.3516  -24.2400  -48.3425 O.2       11 UNK        -0.5000 
     69 N          -2.2356  -22.9814  -46.6823 N.am      12 UNK        -0.5000 
     70 CA         -3.5776  -23.5624  -46.6884 C.3       12 UNK         0.1400 
     71 CB         -4.5242  -22.6952  -45.8468 C.3       12 UNK        -0.1800 
     72 C          -3.5943  -25.0250  -46.2132 C.2       12 UNK         0.5000 
     73 O          -4.2837  -25.8425  -46.8216 O.2       12 UNK        -0.5000 
     74 N          -2.7973  -25.3501  -45.1843 N.am      13 UNK        -0.5000 
     75 CA         -2.5857  -26.7205  -44.7037 C.3       13 UNK         0.1400 
     76 CB         -1.7886  -26.6931  -43.3913 C.3       13 UNK        -0.1800 
     77 C          -1.8969  -27.6242  -45.7478 C.2       13 UNK         0.5000 
     78 O          -2.2005  -28.8153  -45.8165 O.2       13 UNK        -0.5000 
     79 N          -1.0258  -27.0303  -46.5752 N.am      14 UNK        -0.5000 
     80 CA         -0.3953  -27.6538  -47.7414 C.3       14 UNK         0.1400 
     81 CB          0.9070  -26.9010  -48.0621 C.3       14 UNK        -0.1800 
     82 C          -1.3183  -27.7257  -48.9808 C.2       14 UNK         0.5000 
     83 O          -0.8892  -28.2440  -50.0125 O.2       14 UNK        -0.5000 
     84 N          -2.5566  -27.2208  -48.8641 N.am      15 UNK        -0.5000 
     85 CA         -3.6232  -27.2022  -49.8700 C.3       15 UNK         0.1400 
     86 CB         -4.0461  -28.6351  -50.2585 C.3       15 UNK        -0.1800 
     87 C          -3.3170  -26.3054  -51.0876 C.2       15 UNK         0.5000 
     88 O          -3.7727  -26.5981  -52.1947 O.2       15 UNK        -0.5000 
     89 N          -2.5775  -25.2133  -50.8633 N.am      16 UNK        -0.5000 
     90 CA         -2.2369  -24.2133  -51.8715 C.3       16 UNK         0.1400 
     91 CB         -0.9403  -24.6230  -52.5966 C.3       16 UNK        -0.1800 
     92 C          -2.1415  -22.8469  -51.1800 C.2       16 UNK         0.5000 
     93 O          -1.0605  -22.2600  -51.1318 O.2       16 UNK        -0.5000 
     94 N          -3.2679  -22.4151  -50.5888 N.am      17 UNK        -0.5000 
     95 CA         -3.4157  -21.2113  -49.7643 C.3       17 UNK         0.1400 
     96 CB         -4.8959  -21.0178  -49.4014 C.3       17 UNK        -0.1800 
     97 C          -2.8506  -19.9385  -50.4169 C.2       17 UNK         0.5000 
     98 O          -3.1371  -19.6753  -51.5862 O.2       17 UNK        -0.5000 
     99 N          -2.0688  -19.1854  -49.6325 N.am      18 UNK        -0.5000 
    100 CA        -1.3255  -17.9983  -50.0475 C.3       18 UNK         0.1400 
    101 CB        -0.5523  -17.4563  -48.8398 C.3       18 UNK        -0.1800 
    102 C         -2.2456  -16.9222  -50.6428 C.2       18 UNK         0.5000 
    103 O         -3.1669  -16.4692  -49.9637 O.2       18 UNK        -0.5000 
    104 N         -2.0153  -16.5966  -51.9200 N.am      19 UNK        -0.5000 
    105 CA        -2.7976  -15.7472  -52.8275 C.3       19 UNK         0.1400 
    106 CB        -2.8744  -14.2981  -52.3140 C.3       19 UNK        -0.1800 
    107 C         -4.1988  -16.2944  -53.1782 C.2       19 UNK         0.5000 
    108 O         -4.6286  -16.1562  -54.3237 O.2       19 UNK        -0.5000 
    109 N         -4.8859  -16.8941  -52.2007 N.am      20 UNK        -0.5000 
    110 CA        -6.2553  -17.3923  -52.2926 C.3       20 UNK         0.1400 
    111 CB        -6.7638  -17.6921  -50.8743 C.3       20 UNK        -0.1800 
    112 C         -6.4321  -18.6241  -53.2004 C.2       20 UNK         0.5000 
    113 O         -7.4865  -18.7509  -53.8252 O.2       20 UNK        -0.5000 
    114 N         -5.4312  -19.5130  -53.2542 N.am      21 UNK        -0.5000 
    115 CA        -5.4978  -20.7807  -53.9831 C.3       21 UNK         0.1400 
    116 CB        -6.1451  -21.8667  -53.1011 C.3       21 UNK        -0.1800 
    117 C         -4.1202  -21.1906  -54.5304 C.2       21 UNK         0.5000 
    118 O         -3.7722  -22.3722  -54.5024 O.2       21 UNK        -0.5000 
    119 N         -3.3640  -20.2116  -55.0409 N.am      22 UNK        -0.5000 
    120 CA        -2.0693  -20.4322  -55.7117 C.3       22 UNK         0.1400 
    121 C         -2.1792  -21.0179  -57.1517 C.2       22 UNK         0.5000 
    122 N         -3.3537  -21.0669  -57.7693 N.am      22 UNK        -0.7600 
    123 O         -1.1767  -21.4437  -57.7187 O.2       22 UNK        -0.5000 
    124 C124       -1.1940  -19.1550  -55.7110 C.3       23 UNK        -0.0398 
    125 S125       -0.7481  -18.6284  -54.0258 S.3       23 UNK        -0.2404 
    126 C126        0.9329  -19.2966  -53.8966 C.3       23 UNK        -0.0205 
    127 H127       -1.2023  -10.6487  -52.3646 H         1 UNK         0.0600 
    128 H128       -0.7225   -9.2042  -51.4683 H         1 UNK         0.0600 
    129 H129       -2.3058   -9.9354  -51.1848 H         1 UNK         0.0600 
    130 H130       -0.1909  -12.4713  -51.6014 H         1 UNK         0.3000 
    131 H131        1.2718  -12.5992  -49.2270 H         1 UNK         0.0600 
    132 H132        0.3883  -15.0869  -50.7782 H         1 UNK         0.0800 
    133 H133        1.5411  -13.9599  -51.4271 H         1 UNK         0.0800 
    134 H134        3.3968  -15.4718  -51.7830 H         1 UNK         0.0800 
    135 H135        4.3911  -16.1939  -50.5502 H         1 UNK         0.0800 
    136 H136        1.9601  -16.9254  -53.0467 H         1 UNK         0.1150 
    137 H137        1.3339  -20.9751  -51.7860 H         1 UNK         0.1150 
    138 H138        3.4254  -18.2359  -49.2368 H         1 UNK         0.1150 
    139 H139        2.3344  -21.8093  -49.7935 H         1 UNK         0.0800 
    140 H140        3.7312  -20.9207  -49.2503 H         1 UNK         0.0800 
    141 H141        0.0411  -21.4635  -49.0370 H         1 UNK         0.0800 
    142 H142       -0.5056  -20.6573  -47.5939 H         1 UNK         0.0800 
    143 H143        0.8978  -23.3723  -47.6710 H         1 UNK         0.0600 
    144 H144        0.5644  -21.6567  -45.4374 H         1 UNK         0.3000 
    145 H145        0.4176  -24.1813  -42.9053 H         1 UNK         0.0600 
    146 H146        2.3020  -22.7852  -42.0546 H         1 UNK         0.0600 
    147 H147        2.8242  -23.8695  -43.3353 H         1 UNK         0.0600 
    148 H148        2.5899  -22.1631  -43.6781 H         1 UNK         0.0600 
    149 H149        0.3295  -21.2772  -42.9933 H         1 UNK         0.3000 
    150 H150       -3.2456  -21.0766  -42.9238 H         1 UNK         0.0600 
    151 H151       -2.5615  -21.5327  -40.5523 H         1 UNK         0.0600 
    152 H152       -2.7795  -19.8146  -40.8499 H         1 UNK         0.0600 
    153 H153       -1.1553  -20.4922  -40.7576 H         1 UNK         0.0600 
    154 H154       -1.3030  -19.0304  -42.7553 H         1 UNK         0.3000 
    155 H155       -0.5905  -18.6646  -46.2284 H         1 UNK         0.0600 
    156 H156       -2.2634  -16.9494  -44.3239 H         1 UNK         0.0600 
    157 H157       -1.3334  -16.3180  -45.6824 H         1 UNK         0.0600 
    158 H158       -2.6919  -17.3983  -45.9661 H         1 UNK         0.0600 
    159 H159        0.3645  -17.0936  -44.1617 H         1 UNK         0.3000 
    160 H160        3.1185  -19.1203  -43.0860 H         1 UNK         0.0600 
    161 H161        4.2247  -16.9950  -43.7691 H         1 UNK         0.0600 
    162 H162        2.8200  -16.5525  -44.7375 H         1 UNK         0.0600 
    163 H163        3.7798  -17.9588  -45.1699 H         1 UNK         0.0600 
    164 H164        1.8184  -16.5526  -42.4507 H         1 UNK         0.3000 
    165 H165        0.3072  -17.7488  -39.4774 H         1 UNK         0.0600 
    166 H166        1.6248  -15.9540  -38.3868 H         1 UNK         0.0600 
    167 H167        2.6498  -17.3440  -38.7060 H         1 UNK         0.0600 
    168 H168        2.7578  -15.9236  -39.7389 H         1 UNK         0.0600 
    169 H169        0.5654  -15.1265  -40.5826 H         1 UNK         0.3000 
    170 H170       -2.2265  -15.2756  -42.7869 H         1 UNK         0.0600 
    171 H171       -3.1948  -14.9613  -40.5021 H         1 UNK         0.0600 
    172 H172       -1.8731  -13.8735  -40.0920 H         1 UNK         0.0600 
    173 H173       -3.0195  -13.4392  -41.3603 H         1 UNK         0.0600 
    174 H174       -0.8288  -13.0126  -42.3106 H         1 UNK         0.3000 
    175 H175        1.3423  -12.3551  -43.2107 H         1 UNK         0.0600 
    176 H176        2.7507  -12.4828  -45.2585 H         1 UNK         0.0600 
    177 H177        2.0223  -14.0279  -45.6905 H         1 UNK         0.0600 
    178 H178        3.0020  -13.8902  -44.2368 H         1 UNK         0.0600 
    179 H179        0.0168  -12.6169  -45.8448 H         1 UNK         0.3000 
    180 H180       -2.7772  -10.6876  -44.9626 H         1 UNK         0.0600 
    181 H181       -0.4051   -9.5827  -46.5586 H         1 UNK         0.0600 
    182 H182       -1.2248   -8.7674  -45.2326 H         1 UNK         0.0600 
    183 H183       -2.0842   -9.0739  -46.7345 H         1 UNK         0.0600 
    184 H184       -1.7016  -11.4859  -47.5002 H         1 UNK         0.3000 
    185 H185       -2.7310  -14.8539  -47.4627 H         1 UNK         0.0600 
    186 H186       -4.3224  -12.5831  -48.7814 H         1 UNK         0.0600 
    187 H187       -4.3716  -14.2865  -49.2317 H         1 UNK         0.0600 
    188 H188       -4.9997  -13.7763  -47.6803 H         1 UNK         0.0600 
    189 H189       -2.1034  -13.1935  -49.6577 H         1 UNK         0.3000 
    190 H190       -2.0812  -22.2134  -46.0331 H         1 UNK         0.3000 
    191 H191       -3.9382  -23.5534  -47.7186 H         1 UNK         0.0600 
    192 H192       -4.5754  -21.6778  -46.2349 H         1 UNK         0.0600 
    193 H193       -5.5374  -23.0987  -45.8575 H         1 UNK         0.0600 
    194 H194       -4.2026  -22.6398  -44.8067 H         1 UNK         0.0600 
    195 H195       -2.3070  -24.6121  -44.6901 H         1 UNK         0.3000 
    196 H196       -3.5664  -27.1518  -44.4928 H         1 UNK         0.0600 
    197 H197       -1.6711  -27.6990  -42.9865 H         1 UNK         0.0600 
    198 H198       -2.2952  -26.0949  -42.6338 H         1 UNK         0.0600 
    199 H199       -0.7906  -26.2797  -43.5328 H         1 UNK         0.0600 
    200 H200       -0.7838  -26.0613  -46.4006 H         1 UNK         0.3000 
    201 H201       -0.1311  -28.6808  -47.4817 H         1 UNK         0.0600 
    202 H202        1.5688  -26.8711  -47.1963 H         1 UNK         0.0600 
    203 H203        0.7153  -25.8739  -48.3708 H         1 UNK         0.0600 
    204 H204        1.4533  -27.3881  -48.8706 H         1 UNK         0.0600 
    205 H205       -2.8093  -26.7988  -47.9788 H         1 UNK         0.3000 
    206 H206       -4.4812  -26.7404  -49.3804 H         1 UNK         0.0600 
    207 H207       -4.2650  -29.2345  -49.3748 H         1 UNK         0.0600 
    208 H208       -4.9479  -28.6239  -50.8718 H         1 UNK         0.0600 
    209 H209       -3.2714  -29.1475  -50.8293 H         1 UNK         0.0600 
    210 H210       -2.2257  -25.0266  -49.9266 H         1 UNK         0.3000 
    211 H211       -3.0383  -24.1406  -52.6091 H         1 UNK         0.0600 
    212 H212       -0.1077  -24.7283  -51.8999 H         1 UNK         0.0600 
    213 H213       -0.6589  -23.8776  -53.3415 H         1 UNK         0.0600 
    214 H214       -1.0630  -25.5728  -53.1172 H         1 UNK         0.0600 
    215 H215       -4.0944  -22.9840  -50.6898 H         1 UNK         0.3000 
    216 H216       -2.8665  -21.3918  -48.8414 H         1 UNK         0.0600 
    217 H217       -5.0209  -20.1769  -48.7179 H         1 UNK         0.0600 
    218 H218       -5.3070  -21.8979  -48.9077 H         1 UNK         0.0600 
    219 H219       -5.5041  -20.8135  -50.2825 H         1 UNK         0.0600 
    220 H220       -1.9608  -19.4490  -48.6666 H         1 UNK         0.3000 
    221 H221       -0.6039  -18.3119  -50.8028 H         1 UNK         0.0600 
    222 H222       -1.2241  -17.1271  -48.0484 H         1 UNK         0.0600 
    223 H223        0.1258  -18.2048  -48.4332 H         1 UNK         0.0600 
    224 H224        0.0581  -16.6021  -49.1164 H         1 UNK         0.0600 
    225 H225       -1.2900  -17.1217  -52.3936 H         1 UNK         0.3000 
    226 H226       -2.2345  -15.7301  -53.7620 H         1 UNK         0.0600 
    227 H227       -1.8795  -13.8960  -52.1315 H         1 UNK         0.0600 
    228 H228       -3.3571  -13.6517  -53.0479 H         1 UNK         0.0600 
    229 H229       -3.4467  -14.2224  -51.3908 H         1 UNK         0.0600 
    230 H230       -4.4427  -16.9358  -51.2877 H         1 UNK         0.3000 
    231 H231       -6.8709  -16.5922  -52.7089 H         1 UNK         0.0600 
    232 H232       -6.1441  -18.4381  -50.3766 H         1 UNK         0.0600 
    233 H233       -7.7864  -18.0712  -50.8939 H         1 UNK         0.0600 
    234 H234       -6.7621  -16.7930  -50.2576 H         1 UNK         0.0600 
    235 H235       -4.5850  -19.3633  -52.7049 H         1 UNK         0.3000 
    236 H236       -6.1281  -20.6507  -54.8651 H         1 UNK         0.0600 
    237 H237       -7.1212  -21.5525  -52.7315 H         1 UNK         0.0600 
    238 H238       -6.2954  -22.7891  -53.6632 H         1 UNK         0.0600 
    239 H239       -5.5208  -22.1064  -52.2424 H         1 UNK         0.0600 
    240 H240       -3.7061  -19.2624  -55.0130 H         1 UNK         0.3000 
    241 H241       -1.5297  -21.1878  -55.1366 H         1 UNK         0.0600 
    242 H242       -4.1864  -20.7191  -57.3225 H         1 UNK         0.3800 
    243 H243       -3.4087  -21.4531  -58.6989 H         1 UNK         0.3800 
    244 H244       -0.2769  -19.3061  -56.2835 H         1 UNK         0.0800 
    245 H245       -1.7206  -18.3345  -56.2009 H         1 UNK         0.0800 
    246 H246        1.5527  -18.8808  -54.6925 H         1 UNK         0.0800 
    247 H247        0.9019  -20.3753  -54.0590 H         1 UNK         0.0800 
@<TRIPOS>BOND
     1    1    2 1    
     2    1  127 1    
     3    1  128 1    
     4    1  129 1    
     5    2    3 2    
     6    2    4 am   BACKBONE|DICT|INTERRES
     7    4    5 1    
     8    4  130 1    
     9    5    6 1    
    10    5   65 1    
    11    5  131 1    
    12    6    7 1    
    13    6  132 1    
    14    6  133 1    
    15    7    8 1    
    16    8    9 1    
    17    8  134 1    
    18    8  135 1    
    19    9   10 ar   
    20    9   14 ar   
    21   10   11 ar   
    22   10  136 1    
    23   11   12 ar   
    24   11  126 1    
    25   12   13 ar   
    26   12  137 1    
    27   13   14 ar   
    28   13   15 1    
    29   14  138 1    
    30   15   16 1    
    31   15  139 1    
    32   15  140 1    
    33   16   17 1    
    34   17   18 1    
    35   17  141 1    
    36   17  142 1    
    37   18   19 1    
    38   18   67 1    
    39   18  143 1    
    40   19   20 am   BACKBONE|DICT|INTERRES
    41   19  144 1    
    42   20   21 2    
    43   20   22 1    
    44   22   23 1    
    45   22   24 1    
    46   22  145 1    
    47   23  146 1    
    48   23  147 1    
    49   23  148 1    
    50   24   25 am   BACKBONE|DICT|INTERRES
    51   24  149 1    
    52   25   26 2    
    53   25   27 1    
    54   27   28 1    
    55   27   29 1    
    56   27  150 1    
    57   28  151 1    
    58   28  152 1    
    59   28  153 1    
    60   29   30 am   BACKBONE|DICT|INTERRES
    61   29  154 1    
    62   30   31 2    
    63   30   32 1    
    64   32   33 1    
    65   32   34 1    
    66   32  155 1    
    67   33  156 1    
    68   33  157 1    
    69   33  158 1    
    70   34   35 am   BACKBONE|DICT|INTERRES
    71   34  159 1    
    72   35   36 2    
    73   35   37 1    
    74   37   38 1    
    75   37   39 1    
    76   37  160 1    
    77   38  161 1    
    78   38  162 1    
    79   38  163 1    
    80   39   40 am   BACKBONE|DICT|INTERRES
    81   39  164 1    
    82   40   41 2    
    83   40   42 1    
    84   42   43 1    
    85   42   44 1    
    86   42  165 1    
    87   43  166 1    
    88   43  167 1    
    89   43  168 1    
    90   44   45 am   BACKBONE|DICT|INTERRES
    91   44  169 1    
    92   45   46 2    
    93   45   47 1    
    94   47   48 1    
    95   47   49 1    
    96   47  170 1    
    97   48  171 1    
    98   48  172 1    
    99   48  173 1    
   100   49   50 am   BACKBONE|DICT|INTERRES
   101   49  174 1    
   102   50   51 2    
   103   50   52 1    
   104   52   53 1    
   105   52   54 1    
   106   52  175 1    
   107   53  176 1    
   108   53  177 1    
   109   53  178 1    
   110   54   55 am   BACKBONE|DICT|INTERRES
   111   54  179 1    
   112   55   56 2    
   113   55   57 1    
   114   57   58 1    
   115   57   59 1    
   116   57  180 1    
   117   58  181 1    
   118   58  182 1    
   119   58  183 1    
   120   59   60 am   BACKBONE|DICT|INTERRES
   121   59  184 1    
   122   60   61 2    
   123   60   62 1    
   124   62   63 1    
   125   62   64 1    
   126   62  185 1    
   127   63  186 1    
   128   63  187 1    
   129   63  188 1    
   130   64   65 am   BACKBONE|DICT|INTERRES
   131   64  189 1    
   132   65   66 2    
   133   67   68 2    
   134   67   69 am   BACKBONE|DICT|INTERRES
   135   69   70 1    
   136   69  190 1    
   137   70   71 1    
   138   70   72 1    
   139   70  191 1    
   140   71  192 1    
   141   71  193 1    
   142   71  194 1    
   143   72   73 2    
   144   72   74 am   BACKBONE|DICT|INTERRES
   145   74   75 1    
   146   74  195 1    
   147   75   76 1    
   148   75   77 1    
   149   75  196 1    
   150   76  197 1    
   151   76  198 1    
   152   76  199 1    
   153   77   78 2    
   154   77   79 am   BACKBONE|DICT|INTERRES
   155   79   80 1    
   156   79  200 1    
   157   80   81 1    
   158   80   82 1    
   159   80  201 1    
   160   81  202 1    
   161   81  203 1    
   162   81  204 1    
   163   82   83 2    
   164   82   84 am   BACKBONE|DICT|INTERRES
   165   84   85 1    
   166   84  205 1    
   167   85   86 1    
   168   85   87 1    
   169   85  206 1    
   170   86  207 1    
   171   86  208 1    
   172   86  209 1    
   173   87   88 2    
   174   87   89 am   BACKBONE|DICT|INTERRES
   175   89   90 1    
   176   89  210 1    
   177   90   91 1    
   178   90   92 1    
   179   90  211 1    
   180   91  212 1    
   181   91  213 1    
   182   91  214 1    
   183   92   93 2    
   184   92   94 am   BACKBONE|DICT|INTERRES
   185   94   95 1    
   186   94  215 1    
   187   95   96 1    
   188   95   97 1    
   189   95  216 1    
   190   96  217 1    
   191   96  218 1    
   192   96  219 1    
   193   97   98 2    
   194   97   99 am   BACKBONE|DICT|INTERRES
   195   99  100 1    
   196   99  220 1    
   197  100  101 1    
   198  100  102 1    
   199  100  221 1    
   200  101  222 1    
   201  101  223 1    
   202  101  224 1    
   203  102  103 2    
   204  102  104 am   BACKBONE|DICT|INTERRES
   205  104  105 1    
   206  104  225 1    
   207  105  106 1    
   208  105  107 1    
   209  105  226 1    
   210  106  227 1    
   211  106  228 1    
   212  106  229 1    
   213  107  108 2    
   214  107  109 am   BACKBONE|DICT|INTERRES
   215  109  110 1    
   216  109  230 1    
   217  110  111 1    
   218  110  112 1    
   219  110  231 1    
   220  111  232 1    
   221  111  233 1    
   222  111  234 1    
   223  112  113 2    
   224  112  114 am   BACKBONE|DICT|INTERRES
   225  114  115 1    
   226  114  235 1    
   227  115  116 1    
   228  115  117 1    
   229  115  236 1    
   230  116  237 1    
   231  116  238 1    
   232  116  239 1    
   233  117  118 2    
   234  117  119 am   BACKBONE|DICT|INTERRES
   235  119  120 1    
   236  119  240 1    
   237  120  121 1    
   238  120  124 1    
   239  120  241 1    
   240  121  122 am   BACKBONE|DICT|INTERRES
   241  121  123 2    
   242  122  242 1    
   243  122  243 1    
   244  124  125 1    
   245  124  244 1    
   246  124  245 1    
   247  125  126 1    
   248  126  246 1    
   249  126  247 1    
@<TRIPOS>SUBSTRUCTURE
     1 UNK         1 GROUP             0       ****    0 ROOT    
