@<TRIPOS>MOLECULE
3R540
247   249    1
SMALL
USER_CHARGES


@<TRIPOS>ATOM
      1 CA         -3.2877  -16.8664  -42.5946 C.3       0 UNK        -0.1800 
      2 C          -4.1142  -16.0660  -43.5859 C.2       0 UNK         0.5000 
      3 O          -5.1531  -15.5255  -43.2047 O.2       0 UNK        -0.5000 
      4 N          -3.6712  -15.9826  -44.8496 N.am      1 UNK        -0.5000 
      5 CA         -4.3391  -15.1764  -45.8803 C.3       1 UNK         0.1400 
      6 C6         -4.0306  -15.6387  -47.3281 C.3       23 UNK        -0.0398 
      7 S7         -2.3055  -15.3911  -47.8662 S.3       23 UNK        -0.2404 
      8 C8         -2.2130  -16.4667  -49.3319 C.3       23 UNK        -0.0205 
      9 C9         -0.8176  -17.0466  -49.5022 C.ar      23 UNK        -0.0193 
     10 C10        -0.0341  -16.7512  -50.6213 C.ar      23 UNK        -0.1150 
     11 C11         1.2327  -17.3288  -50.7703 C.ar      23 UNK        -0.0193 
     12 C12         1.7187  -18.1924  -49.7820 C.ar      23 UNK        -0.1150 
     13 C13         0.9536  -18.4713  -48.6477 C.ar      23 UNK        -0.0193 
     14 C14        -0.3143  -17.9034  -48.5246 C.ar      23 UNK        -0.1150 
     15 C15         1.4963  -19.3544  -47.5344 C.3       23 UNK        -0.0205 
     16 S16         1.3828  -21.1328  -47.9001 S.3       23 UNK        -0.2404 
     17 C17        -0.3967  -21.3967  -48.2027 C.3       23 UNK        -0.0398 
     18 CA         -1.1465  -22.0309  -47.0076 C.3       11 UNK         0.1400 
     19 N          -1.3060  -21.1102  -45.8677 N.am      11 UNK        -0.5000 
     20 C          -1.7731  -21.4733  -44.6627 C.2       10 UNK         0.5000 
     21 O          -2.0592  -22.6382  -44.3832 O.2       10 UNK        -0.5000 
     22 CA         -2.0012  -20.3566  -43.6201 C.3       10 UNK         0.1400 
     23 CB         -2.3429  -20.9097  -42.2246 C.3       10 UNK        -0.1800 
     24 N          -0.8615  -19.4479  -43.4952 N.am      10 UNK        -0.5000 
     25 C          -0.5982  -18.4171  -44.3056 C.2       9 UNK         0.5000 
     26 O          -1.3044  -18.1428  -45.2768 O.2       9 UNK        -0.5000 
     27 CA          0.6533  -17.5808  -43.9627 C.3       9 UNK         0.1400 
     28 CB          1.8588  -18.4843  -43.6404 C.3       9 UNK        -0.1800 
     29 N           1.0478  -16.6543  -45.0241 N.am      9 UNK        -0.5000 
     30 C           0.4269  -15.5095  -45.3579 C.2       8 UNK         0.5000 
     31 O          -0.6040  -15.1046  -44.8144 O.2       8 UNK        -0.5000 
     32 CA          1.0684  -14.6519  -46.4712 C.3       8 UNK         0.1400 
     33 CB          1.3983  -13.2290  -45.9869 C.3       8 UNK        -0.1800 
     34 N           2.2859  -15.2601  -46.9896 N.am      8 UNK        -0.5000 
     35 C           2.8441  -15.0700  -48.1851 C.2       7 UNK         0.5000 
     36 O           2.3656  -14.3438  -49.0574 O.2       7 UNK        -0.5000 
     37 CA          4.1890  -15.8015  -48.4144 C.3       7 UNK         0.1400 
     38 CB          4.9321  -15.2954  -49.6638 C.3       7 UNK        -0.1800 
     39 N           5.0981  -15.7187  -47.2626 N.am      7 UNK        -0.5000 
     40 C           4.9715  -16.3682  -46.0966 C.2       6 UNK         0.5000 
     41 O           4.0456  -17.1512  -45.8641 O.2       6 UNK        -0.5000 
     42 CA          6.0384  -16.0896  -45.0156 C.3       6 UNK         0.1400 
     43 CB          6.6476  -14.6716  -45.1027 C.3       6 UNK        -0.1800 
     44 N           5.5542  -16.3603  -43.6564 N.am      6 UNK        -0.5000 
     45 C           4.5674  -15.7354  -42.9968 C.2       5 UNK         0.5000 
     46 O           3.9013  -14.8011  -43.4504 O.2       5 UNK        -0.5000 
     47 CA          4.3004  -16.2477  -41.5726 C.3       5 UNK         0.1400 
     48 CB          5.4691  -15.9039  -40.6291 C.3       5 UNK        -0.1800 
     49 N           3.0693  -15.6673  -41.0412 N.am      5 UNK        -0.5000 
     50 C           2.2873  -16.2385  -40.1160 C.2       4 UNK         0.5000 
     51 O           2.4827  -17.3717  -39.6744 O.2       4 UNK        -0.5000 
     52 CA          1.1101  -15.4145  -39.5547 C.3       4 UNK         0.1400 
     53 CB          1.3714  -15.0463  -38.0847 C.3       4 UNK        -0.1800 
     54 N           0.8613  -14.1795  -40.3014 N.am      4 UNK        -0.5000 
     55 C           0.0272  -14.0820  -41.3421 C.2       3 UNK         0.5000 
     56 O          -0.6474  -15.0223  -41.7609 O.2       3 UNK        -0.5000 
     57 CA         -0.0631  -12.7033  -42.0142 C.3       3 UNK         0.1400 
     58 CB          1.3209  -12.2140  -42.4848 C.3       3 UNK        -0.1800 
     59 N          -0.9851  -12.7541  -43.1493 N.am      3 UNK        -0.5000 
     60 C          -1.6696  -11.7015  -43.6165 C.2       2 UNK         0.5000 
     61 O          -1.5943  -10.5796  -43.1123 O.2       2 UNK        -0.5000 
     62 CA         -2.5974  -11.8919  -44.8312 C.3       2 UNK         0.1400 
     63 CB         -2.0132  -11.2462  -46.1022 C.3       2 UNK        -0.1800 
     64 N          -2.9548  -13.2851  -45.1021 N.am      2 UNK        -0.5000 
     65 C          -4.1075  -13.6628  -45.6754 C.2       1 UNK         0.5000 
     66 O          -4.9869  -12.8729  -46.0251 O.2       1 UNK        -0.5000 
     67 C          -2.5000  -22.5971  -47.4913 C.2       11 UNK         0.5000 
     68 O          -2.5356  -23.6952  -48.0441 O.2       11 UNK        -0.5000 
     69 N          -3.5966  -21.8644  -47.2449 N.am      12 UNK        -0.5000 
     70 CA         -4.9651  -22.2582  -47.5822 C.3       12 UNK         0.1400 
     71 CB         -5.9146  -21.0956  -47.2607 C.3       12 UNK        -0.1800 
     72 C          -5.4354  -23.5571  -46.8944 C.2       12 UNK         0.5000 
     73 O          -6.3299  -24.2234  -47.4163 O.2       12 UNK        -0.5000 
     74 N          -4.8002  -23.9204  -45.7693 N.am      13 UNK        -0.5000 
     75 CA         -5.0217  -25.1753  -45.0499 C.3       13 UNK         0.1400 
     76 CB         -4.2632  -25.1322  -43.7152 C.3       13 UNK        -0.1800 
     77 C          -4.6197  -26.4256  -45.8583 C.2       13 UNK         0.5000 
     78 O          -5.1855  -27.4952  -45.6285 O.2       13 UNK        -0.5000 
     79 N          -3.6950  -26.2777  -46.8194 N.am      14 UNK        -0.5000 
     80 CA         -3.2721  -27.3260  -47.7502 C.3       14 UNK         0.1400 
     81 CB         -1.8223  -27.0549  -48.1880 C.3       14 UNK        -0.1800 
     82 C          -4.2471  -27.4406  -48.9418 C.2       14 UNK         0.5000 
     83 O          -3.8296  -27.3478  -50.0979 O.2       14 UNK        -0.5000 
     84 N          -5.5378  -27.6223  -48.6222 N.am      15 UNK        -0.5000 
     85 CA         -6.6775  -27.7990  -49.5294 C.3       15 UNK         0.1400 
     86 CB         -6.6108  -29.1902  -50.1932 C.3       15 UNK        -0.1800 
     87 C          -6.8315  -26.6552  -50.5548 C.2       15 UNK         0.5000 
     88 O          -7.0960  -26.9144  -51.7300 O.2       15 UNK        -0.5000 
     89 N          -6.6174  -25.4109  -50.1000 N.am      16 UNK        -0.5000 
     90 CA         -6.6242  -24.1390  -50.8394 C.3       16 UNK         0.1400 
     91 CB         -7.9998  -23.8657  -51.4750 C.3       16 UNK        -0.1800 
     92 C          -5.4981  -23.9686  -51.8811 C.2       16 UNK         0.5000 
     93 O          -5.0334  -22.8453  -52.0744 O.2       16 UNK        -0.5000 
     94 N          -5.0835  -25.0643  -52.5278 N.am      17 UNK        -0.5000 
     95 CA         -4.1781  -25.1410  -53.6747 C.3       17 UNK         0.1400 
     96 CB         -3.9036  -26.6186  -53.9923 C.3       17 UNK        -0.1800 
     97 C          -2.8563  -24.3696  -53.5255 C.2       17 UNK         0.5000 
     98 O          -2.4588  -23.6733  -54.4590 O.2       17 UNK        -0.5000 
     99 N          -2.2106  -24.4822  -52.3573 N.am      18 UNK        -0.5000 
    100 CA        -0.9314  -23.8251  -52.0773 C.3       18 UNK         0.1400 
    101 CB        -0.3021  -24.4374  -50.8191 C.3       18 UNK        -0.1800 
    102 C         -1.0413  -22.2925  -51.9544 C.2       18 UNK         0.5000 
    103 O         -0.0839  -21.5970  -52.2900 O.2       18 UNK        -0.5000 
    104 N         -2.2002  -21.7933  -51.5008 N.am      19 UNK        -0.5000 
    105 CA        -2.5176  -20.3649  -51.4850 C.3       19 UNK         0.1400 
    106 CB        -3.5859  -20.0756  -50.4192 C.3       19 UNK        -0.1800 
    107 C         -2.9862  -19.8879  -52.8691 C.2       19 UNK         0.5000 
    108 O         -2.5631  -18.8245  -53.3205 O.2       19 UNK        -0.5000 
    109 N         -3.8310  -20.6939  -53.5300 N.am      20 UNK        -0.5000 
    110 CA        -4.3828  -20.4298  -54.8616 C.3       20 UNK         0.1400 
    111 CB        -5.4051  -21.5190  -55.2164 C.3       20 UNK        -0.1800 
    112 C         -3.3080  -20.3133  -55.9587 C.2       20 UNK         0.5000 
    113 O         -3.4586  -19.4976  -56.8694 O.2       20 UNK        -0.5000 
    114 N         -2.2179  -21.0821  -55.8216 N.am      21 UNK        -0.5000 
    115 CA        -1.0270  -21.0405  -56.6750 C.3       21 UNK         0.1400 
    116 CB        -0.0425  -22.1249  -56.2106 C.3       21 UNK        -0.1800 
    117 C         -0.3254  -19.6664  -56.7223 C.2       21 UNK         0.5000 
    118 O          0.3373  -19.3657  -57.7162 O.2       21 UNK        -0.5000 
    119 N         -0.4977  -18.8543  -55.6716 N.am      22 UNK        -0.5000 
    120 CA        -0.0342  -17.4605  -55.6020 C.3       22 UNK         0.1400 
    121 C         -0.9974  -16.4418  -56.2834 C.2       22 UNK         0.5000 
    122 N         -2.1529  -16.8396  -56.8045 N.am      22 UNK        -0.7600 
    123 O         -0.6809  -15.2575  -56.3583 O.2       22 UNK        -0.5000 
    124 C124        0.2889  -17.0404  -54.1456 C.3       23 UNK        -0.0398 
    125 S125        1.6477  -18.0219  -53.4240 S.3       23 UNK        -0.2404 
    126 C126        2.0931  -17.0050  -51.9821 C.3       23 UNK        -0.0205 
    127 H127       -2.2287  -16.7880  -42.8246 H         1 UNK         0.0600 
    128 H128       -3.5810  -17.9149  -42.6117 H         1 UNK         0.0600 
    129 H129       -3.4310  -16.4863  -41.5830 H         1 UNK         0.0600 
    130 H130       -2.7980  -16.4261  -45.1166 H         1 UNK         0.3000 
    131 H131       -5.4132  -15.3295  -45.7519 H         1 UNK         0.0600 
    132 H132       -4.2790  -16.6968  -47.4197 H         1 UNK         0.0800 
    133 H133       -4.6821  -15.1187  -48.0324 H         1 UNK         0.0800 
    134 H134       -2.5158  -15.9013  -50.2143 H         1 UNK         0.0800 
    135 H135       -2.9171  -17.2922  -49.2325 H         1 UNK         0.0800 
    136 H136       -0.4104  -16.0773  -51.3771 H         1 UNK         0.1150 
    137 H137        2.6977  -18.6381  -49.8875 H         1 UNK         0.1150 
    138 H138       -0.9215  -18.1217  -47.6616 H         1 UNK         0.1150 
    139 H139        2.5403  -19.0989  -47.3466 H         1 UNK         0.0800 
    140 H140        0.9673  -19.1562  -46.6051 H         1 UNK         0.0800 
    141 H141       -0.4412  -22.0584  -49.0675 H         1 UNK         0.0800 
    142 H142       -0.8855  -20.4793  -48.5226 H         1 UNK         0.0800 
    143 H143       -0.5632  -22.8861  -46.6591 H         1 UNK         0.0600 
    144 H144       -1.1150  -20.1287  -46.0274 H         1 UNK         0.3000 
    145 H145       -2.8674  -19.7887  -43.9651 H         1 UNK         0.0600 
    146 H146       -2.5415  -20.1034  -41.5182 H         1 UNK         0.0600 
    147 H147       -3.2360  -21.5353  -42.2565 H         1 UNK         0.0600 
    148 H148       -1.5304  -21.5159  -41.8223 H         1 UNK         0.0600 
    149 H149       -0.2251  -19.6422  -42.7360 H         1 UNK         0.3000 
    150 H150        0.4215  -16.9930  -43.0742 H         1 UNK         0.0600 
    151 H151        1.7087  -19.0418  -42.7155 H         1 UNK         0.0600 
    152 H152        2.7652  -17.8988  -43.5073 H         1 UNK         0.0600 
    153 H153        2.0525  -19.2046  -44.4360 H         1 UNK         0.0600 
    154 H154        1.8709  -16.9291  -45.5392 H         1 UNK         0.3000 
    155 H155        0.3407  -14.5856  -47.2795 H         1 UNK         0.0600 
    156 H156        2.2702  -13.2270  -45.3327 H         1 UNK         0.0600 
    157 H157        0.5724  -12.7867  -45.4348 H         1 UNK         0.0600 
    158 H158        1.6146  -12.5695  -46.8273 H         1 UNK         0.0600 
    159 H159        2.8035  -15.8492  -46.3462 H         1 UNK         0.3000 
    160 H160        3.9497  -16.8536  -48.5769 H         1 UNK         0.0600 
    161 H161        5.2144  -14.2467  -49.5643 H         1 UNK         0.0600 
    162 H162        4.3117  -15.3840  -50.5559 H         1 UNK         0.0600 
    163 H163        5.8389  -15.8727  -49.8445 H         1 UNK         0.0600 
    164 H164        5.8654  -15.0699  -47.3592 H         1 UNK         0.3000 
    165 H165        6.8413  -16.8056  -45.1956 H         1 UNK         0.0600 
    166 H166        5.8810  -13.8965  -45.0670 H         1 UNK         0.0600 
    167 H167        7.3386  -14.4915  -44.2790 H         1 UNK         0.0600 
    168 H168        7.2145  -14.5358  -46.0241 H         1 UNK         0.0600 
    169 H169        6.0091  -17.1357  -43.1959 H         1 UNK         0.3000 
    170 H170        4.1944  -17.3329  -41.6299 H         1 UNK         0.0600 
    171 H171        6.4066  -16.3362  -40.9803 H         1 UNK         0.0600 
    172 H172        5.6137  -14.8258  -40.5494 H         1 UNK         0.0600 
    173 H173        5.2949  -16.2920  -39.6254 H         1 UNK         0.0600 
    174 H174        2.8187  -14.7690  -41.4314 H         1 UNK         0.3000 
    175 H175        0.2231  -16.0509  -39.5879 H         1 UNK         0.0600 
    176 H176        2.2592  -14.4219  -37.9773 H         1 UNK         0.0600 
    177 H177        0.5264  -14.5059  -37.6576 H         1 UNK         0.0600 
    178 H178        1.5230  -15.9394  -37.4770 H         1 UNK         0.0600 
    179 H179        1.3749  -13.3633  -40.0011 H         1 UNK         0.3000 
    180 H180       -0.4545  -12.0095  -41.2672 H         1 UNK         0.0600 
    181 H181        1.2469  -11.3007  -43.0752 H         1 UNK         0.0600 
    182 H182        1.8213  -12.9668  -43.0926 H         1 UNK         0.0600 
    183 H183        1.9726  -11.9933  -41.6393 H         1 UNK         0.0600 
    184 H184       -1.0685  -13.6737  -43.5740 H         1 UNK         0.3000 
    185 H185       -3.5082  -11.3478  -44.5717 H         1 UNK         0.0600 
    186 H186       -2.7739  -11.1522  -46.8772 H         1 UNK         0.0600 
    187 H187       -1.6332  -10.2436  -45.9022 H         1 UNK         0.0600 
    188 H188       -1.1960  -11.8347  -46.5169 H         1 UNK         0.0600 
    189 H189       -2.2646  -13.9974  -44.8855 H         1 UNK         0.3000 
    190 H190       -3.4856  -20.9766  -46.7785 H         1 UNK         0.3000 
    191 H191       -4.9885  -22.4325  -48.6582 H         1 UNK         0.0600 
    192 H192       -6.9417  -21.3435  -47.5323 H         1 UNK         0.0600 
    193 H193       -5.6417  -20.1977  -47.8157 H         1 UNK         0.0600 
    194 H194       -5.9053  -20.8510  -46.1978 H         1 UNK         0.0600 
    195 H195       -4.0552  -23.3319  -45.4200 H         1 UNK         0.3000 
    196 H196       -6.0894  -25.2521  -44.8345 H         1 UNK         0.0600 
    197 H197       -3.1847  -25.0782  -43.8681 H         1 UNK         0.0600 
    198 H198       -4.5607  -24.2706  -43.1172 H         1 UNK         0.0600 
    199 H199       -4.4655  -26.0253  -43.1225 H         1 UNK         0.0600 
    200 H200       -3.3193  -25.3532  -46.9991 H         1 UNK         0.3000 
    201 H201       -3.2811  -28.2882  -47.2340 H         1 UNK         0.0600 
    202 H202       -1.7415  -26.1276  -48.7526 H         1 UNK         0.0600 
    203 H203       -1.4488  -27.8586  -48.8236 H         1 UNK         0.0600 
    204 H204       -1.1558  -26.9834  -47.3284 H         1 UNK         0.0600 
    205 H205       -5.7561  -27.6622  -47.6326 H         1 UNK         0.3000 
    206 H206       -7.5737  -27.7710  -48.9081 H         1 UNK         0.0600 
    207 H207       -6.5342  -29.9801  -49.4461 H         1 UNK         0.0600 
    208 H208       -7.5075  -29.3885  -50.7815 H         1 UNK         0.0600 
    209 H209       -5.7536  -29.2771  -50.8619 H         1 UNK         0.0600 
    210 H210       -6.4076  -25.3075  -49.1117 H         1 UNK         0.3000 
    211 H211       -6.4673  -23.3644  -50.0906 H         1 UNK         0.0600 
    212 H212       -8.0308  -22.8690  -51.9172 H         1 UNK         0.0600 
    213 H213       -8.7946  -23.9154  -50.7308 H         1 UNK         0.0600 
    214 H214       -8.2346  -24.5775  -52.2666 H         1 UNK         0.0600 
    215 H215       -5.5680  -25.9249  -52.2922 H         1 UNK         0.3000 
    216 H216       -4.7101  -24.7116  -54.5246 H         1 UNK         0.0600 
    217 H217       -3.4330  -27.1287  -53.1505 H         1 UNK         0.0600 
    218 H218       -3.2408  -26.7198  -54.8528 H         1 UNK         0.0600 
    219 H219       -4.8264  -27.1486  -54.2292 H         1 UNK         0.0600 
    220 H220       -2.6064  -25.0666  -51.6338 H         1 UNK         0.3000 
    221 H221       -0.2610  -24.0315  -52.9146 H         1 UNK         0.0600 
    222 H222       -0.1443  -25.5096  -50.9366 H         1 UNK         0.0600 
    223 H223       -0.9316  -24.2851  -49.9455 H         1 UNK         0.0600 
    224 H224        0.6681  -23.9861  -50.6070 H         1 UNK         0.0600 
    225 H225       -2.9625  -22.4314  -51.3137 H         1 UNK         0.3000 
    226 H226       -1.6221  -19.7957  -51.2229 H         1 UNK         0.0600 
    227 H227       -4.4599  -20.7172  -50.5306 H         1 UNK         0.0600 
    228 H228       -3.1864  -20.2180  -49.4173 H         1 UNK         0.0600 
    229 H229       -3.9325  -19.0439  -50.4830 H         1 UNK         0.0600 
    230 H230       -4.1615  -21.5352  -53.0638 H         1 UNK         0.3000 
    231 H231       -4.9073  -19.4735  -54.8130 H         1 UNK         0.0600 
    232 H232       -4.9337  -22.4979  -55.2959 H         1 UNK         0.0600 
    233 H233       -5.8841  -21.3073  -56.1731 H         1 UNK         0.0600 
    234 H234       -6.1921  -21.5846  -54.4648 H         1 UNK         0.0600 
    235 H235       -2.2164  -21.7806  -55.0849 H         1 UNK         0.3000 
    236 H236       -1.3444  -21.2777  -57.6922 H         1 UNK         0.0600 
    237 H237       -0.4832  -23.1186  -56.2908 H         1 UNK         0.0600 
    238 H238        0.8619  -22.1227  -56.8204 H         1 UNK         0.0600 
    239 H239        0.2587  -21.9737  -55.1731 H         1 UNK         0.0600 
    240 H240       -1.0796  -19.1605  -54.9015 H         1 UNK         0.3000 
    241 H241        0.8978  -17.3876  -56.1658 H         1 UNK         0.0600 
    242 H242       -2.7512  -16.1595  -57.2457 H         1 UNK         0.3800 
    243 H243       -2.4463  -17.8104  -56.7707 H         1 UNK         0.3800 
    244 H244       -0.5944  -17.1357  -53.5146 H         1 UNK         0.0800 
    245 H245        0.5800  -15.9893  -54.1105 H         1 UNK         0.0800 
    246 H246        3.1428  -17.1881  -51.7492 H         1 UNK         0.0800 
    247 H247        2.0212  -15.9433  -52.2224 H         1 UNK         0.0800 
@<TRIPOS>BOND
     1    1    2 1    
     2    1  127 1    
     3    1  128 1    
     4    1  129 1    
     5    2    3 2    
     6    2    4 am   BACKBONE|DICT|INTERRES
     7    4    5 1    
     8    4  130 1    
     9    5    6 1    
    10    5   65 1    
    11    5  131 1    
    12    6    7 1    
    13    6  132 1    
    14    6  133 1    
    15    7    8 1    
    16    8    9 1    
    17    8  134 1    
    18    8  135 1    
    19    9   10 ar   
    20    9   14 ar   
    21   10   11 ar   
    22   10  136 1    
    23   11   12 ar   
    24   11  126 1    
    25   12   13 ar   
    26   12  137 1    
    27   13   14 ar   
    28   13   15 1    
    29   14  138 1    
    30   15   16 1    
    31   15  139 1    
    32   15  140 1    
    33   16   17 1    
    34   17   18 1    
    35   17  141 1    
    36   17  142 1    
    37   18   19 1    
    38   18   67 1    
    39   18  143 1    
    40   19   20 am   BACKBONE|DICT|INTERRES
    41   19  144 1    
    42   20   21 2    
    43   20   22 1    
    44   22   23 1    
    45   22   24 1    
    46   22  145 1    
    47   23  146 1    
    48   23  147 1    
    49   23  148 1    
    50   24   25 am   BACKBONE|DICT|INTERRES
    51   24  149 1    
    52   25   26 2    
    53   25   27 1    
    54   27   28 1    
    55   27   29 1    
    56   27  150 1    
    57   28  151 1    
    58   28  152 1    
    59   28  153 1    
    60   29   30 am   BACKBONE|DICT|INTERRES
    61   29  154 1    
    62   30   31 2    
    63   30   32 1    
    64   32   33 1    
    65   32   34 1    
    66   32  155 1    
    67   33  156 1    
    68   33  157 1    
    69   33  158 1    
    70   34   35 am   BACKBONE|DICT|INTERRES
    71   34  159 1    
    72   35   36 2    
    73   35   37 1    
    74   37   38 1    
    75   37   39 1    
    76   37  160 1    
    77   38  161 1    
    78   38  162 1    
    79   38  163 1    
    80   39   40 am   BACKBONE|DICT|INTERRES
    81   39  164 1    
    82   40   41 2    
    83   40   42 1    
    84   42   43 1    
    85   42   44 1    
    86   42  165 1    
    87   43  166 1    
    88   43  167 1    
    89   43  168 1    
    90   44   45 am   BACKBONE|DICT|INTERRES
    91   44  169 1    
    92   45   46 2    
    93   45   47 1    
    94   47   48 1    
    95   47   49 1    
    96   47  170 1    
    97   48  171 1    
    98   48  172 1    
    99   48  173 1    
   100   49   50 am   BACKBONE|DICT|INTERRES
   101   49  174 1    
   102   50   51 2    
   103   50   52 1    
   104   52   53 1    
   105   52   54 1    
   106   52  175 1    
   107   53  176 1    
   108   53  177 1    
   109   53  178 1    
   110   54   55 am   BACKBONE|DICT|INTERRES
   111   54  179 1    
   112   55   56 2    
   113   55   57 1    
   114   57   58 1    
   115   57   59 1    
   116   57  180 1    
   117   58  181 1    
   118   58  182 1    
   119   58  183 1    
   120   59   60 am   BACKBONE|DICT|INTERRES
   121   59  184 1    
   122   60   61 2    
   123   60   62 1    
   124   62   63 1    
   125   62   64 1    
   126   62  185 1    
   127   63  186 1    
   128   63  187 1    
   129   63  188 1    
   130   64   65 am   BACKBONE|DICT|INTERRES
   131   64  189 1    
   132   65   66 2    
   133   67   68 2    
   134   67   69 am   BACKBONE|DICT|INTERRES
   135   69   70 1    
   136   69  190 1    
   137   70   71 1    
   138   70   72 1    
   139   70  191 1    
   140   71  192 1    
   141   71  193 1    
   142   71  194 1    
   143   72   73 2    
   144   72   74 am   BACKBONE|DICT|INTERRES
   145   74   75 1    
   146   74  195 1    
   147   75   76 1    
   148   75   77 1    
   149   75  196 1    
   150   76  197 1    
   151   76  198 1    
   152   76  199 1    
   153   77   78 2    
   154   77   79 am   BACKBONE|DICT|INTERRES
   155   79   80 1    
   156   79  200 1    
   157   80   81 1    
   158   80   82 1    
   159   80  201 1    
   160   81  202 1    
   161   81  203 1    
   162   81  204 1    
   163   82   83 2    
   164   82   84 am   BACKBONE|DICT|INTERRES
   165   84   85 1    
   166   84  205 1    
   167   85   86 1    
   168   85   87 1    
   169   85  206 1    
   170   86  207 1    
   171   86  208 1    
   172   86  209 1    
   173   87   88 2    
   174   87   89 am   BACKBONE|DICT|INTERRES
   175   89   90 1    
   176   89  210 1    
   177   90   91 1    
   178   90   92 1    
   179   90  211 1    
   180   91  212 1    
   181   91  213 1    
   182   91  214 1    
   183   92   93 2    
   184   92   94 am   BACKBONE|DICT|INTERRES
   185   94   95 1    
   186   94  215 1    
   187   95   96 1    
   188   95   97 1    
   189   95  216 1    
   190   96  217 1    
   191   96  218 1    
   192   96  219 1    
   193   97   98 2    
   194   97   99 am   BACKBONE|DICT|INTERRES
   195   99  100 1    
   196   99  220 1    
   197  100  101 1    
   198  100  102 1    
   199  100  221 1    
   200  101  222 1    
   201  101  223 1    
   202  101  224 1    
   203  102  103 2    
   204  102  104 am   BACKBONE|DICT|INTERRES
   205  104  105 1    
   206  104  225 1    
   207  105  106 1    
   208  105  107 1    
   209  105  226 1    
   210  106  227 1    
   211  106  228 1    
   212  106  229 1    
   213  107  108 2    
   214  107  109 am   BACKBONE|DICT|INTERRES
   215  109  110 1    
   216  109  230 1    
   217  110  111 1    
   218  110  112 1    
   219  110  231 1    
   220  111  232 1    
   221  111  233 1    
   222  111  234 1    
   223  112  113 2    
   224  112  114 am   BACKBONE|DICT|INTERRES
   225  114  115 1    
   226  114  235 1    
   227  115  116 1    
   228  115  117 1    
   229  115  236 1    
   230  116  237 1    
   231  116  238 1    
   232  116  239 1    
   233  117  118 2    
   234  117  119 am   BACKBONE|DICT|INTERRES
   235  119  120 1    
   236  119  240 1    
   237  120  121 1    
   238  120  124 1    
   239  120  241 1    
   240  121  122 am   BACKBONE|DICT|INTERRES
   241  121  123 2    
   242  122  242 1    
   243  122  243 1    
   244  124  125 1    
   245  124  244 1    
   246  124  245 1    
   247  125  126 1    
   248  126  246 1    
   249  126  247 1    
@<TRIPOS>SUBSTRUCTURE
     1 UNK         1 GROUP             0       ****    0 ROOT    
