@<TRIPOS>MOLECULE
3R540
247   249    1
SMALL
USER_CHARGES


@<TRIPOS>ATOM
      1 CA          0.1767  -12.5228  -46.2399 C.3       0 UNK        -0.1800 
      2 C           1.4801  -12.1169  -46.9138 C.2       0 UNK         0.5000 
      3 O           2.5589  -12.3883  -46.3861 O.2       0 UNK        -0.5000 
      4 N           1.3838  -11.4907  -48.0943 N.am      1 UNK        -0.5000 
      5 CA          2.5072  -11.0374  -48.9270 C.3       1 UNK         0.1400 
      6 C6          3.3566  -12.2096  -49.5071 C.3       23 UNK        -0.0398 
      7 S7          2.3595  -13.3932  -50.4729 S.3       23 UNK        -0.2404 
      8 C8          2.2612  -14.7953  -49.3150 C.3       23 UNK        -0.0205 
      9 C9          1.1441  -15.7492  -49.6993 C.ar      23 UNK        -0.0193 
     10 C10        -0.1889  -15.3520  -49.5695 C.ar      23 UNK        -0.1150 
     11 C11        -1.2270  -16.2156  -49.9283 C.ar      23 UNK        -0.0193 
     12 C12        -0.9234  -17.5000  -50.3931 C.ar      23 UNK        -0.1150 
     13 C13         0.4085  -17.9062  -50.5272 C.ar      23 UNK        -0.0193 
     14 C14         1.4368  -17.0264  -50.1798 C.ar      23 UNK        -0.1150 
     15 C15         0.7527  -19.2848  -51.0655 C.3       23 UNK        -0.0205 
     16 S16         1.1259  -20.4504  -49.7193 S.3       23 UNK        -0.2404 
     17 C17        -0.5567  -20.8767  -49.1770 C.3       23 UNK        -0.0398 
     18 CA         -0.5673  -22.1172  -48.2548 C.3       11 UNK         0.1400 
     19 N          -0.1064  -21.8196  -46.8947 N.am      11 UNK        -0.5000 
     20 C           0.0937  -22.7460  -45.9453 C.2       10 UNK         0.5000 
     21 O          -0.0289  -23.9562  -46.1318 O.2       10 UNK        -0.5000 
     22 CA          0.4276  -22.2393  -44.5326 C.3       10 UNK         0.1400 
     23 CB          1.9060  -21.8370  -44.4277 C.3       10 UNK        -0.1800 
     24 N          -0.4302  -21.1276  -44.1206 N.am      10 UNK        -0.5000 
     25 C          -1.7608  -21.2121  -43.9723 C.2       9 UNK         0.5000 
     26 O          -2.3991  -22.2541  -44.1192 O.2       9 UNK        -0.5000 
     27 CA         -2.5149  -19.9097  -43.6489 C.3       9 UNK         0.1400 
     28 CB         -2.4313  -19.5886  -42.1500 C.3       9 UNK        -0.1800 
     29 N          -2.0334  -18.7674  -44.4253 N.am      9 UNK        -0.5000 
     30 C          -2.0901  -18.6727  -45.7616 C.2       8 UNK         0.5000 
     31 O          -2.5904  -19.5289  -46.4911 O.2       8 UNK        -0.5000 
     32 CA         -1.4254  -17.4366  -46.3904 C.3       8 UNK         0.1400 
     33 CB         -2.3375  -16.2037  -46.2959 C.3       8 UNK        -0.1800 
     34 N          -0.1334  -17.1379  -45.7765 N.am      8 UNK        -0.5000 
     35 C           0.9436  -17.9313  -45.8569 C.2       7 UNK         0.5000 
     36 O           0.9725  -18.9906  -46.4836 O.2       7 UNK        -0.5000 
     37 CA          2.1730  -17.4862  -45.0462 C.3       7 UNK         0.1400 
     38 CB          2.9350  -16.3717  -45.7819 C.3       7 UNK        -0.1800 
     39 N           1.8053  -17.0318  -43.7024 N.am      7 UNK        -0.5000 
     40 C           1.3269  -17.8376  -42.7403 C.2       6 UNK         0.5000 
     41 O           1.1929  -19.0521  -42.8787 O.2       6 UNK        -0.5000 
     42 CA          0.8811  -17.1866  -41.4142 C.3       6 UNK         0.1400 
     43 CB          2.0555  -17.1254  -40.4267 C.3       6 UNK        -0.1800 
     44 N           0.3276  -15.8438  -41.5801 N.am      6 UNK        -0.5000 
     45 C          -0.7234  -15.5256  -42.3479 C.2       5 UNK         0.5000 
     46 O          -1.4316  -16.3623  -42.9076 O.2       5 UNK        -0.5000 
     47 CA         -0.9964  -14.0243  -42.5822 C.3       5 UNK         0.1400 
     48 CB         -2.2009  -13.5639  -41.7483 C.3       5 UNK        -0.1800 
     49 N           0.1407  -13.1313  -42.3135 N.am      5 UNK        -0.5000 
     50 C           1.3534  -13.2116  -42.8788 C.2       4 UNK         0.5000 
     51 O           1.6815  -14.1024  -43.6681 O.2       4 UNK        -0.5000 
     52 CA          2.3804  -12.1548  -42.4515 C.3       4 UNK         0.1400 
     53 CB          2.8309  -12.3833  -40.9956 C.3       4 UNK        -0.1800 
     54 N           3.5230  -12.2541  -43.3486 N.am      4 UNK        -0.5000 
     55 C           4.4804  -11.3425  -43.5340 C.2       3 UNK         0.5000 
     56 O           4.5091  -10.2569  -42.9518 O.2       3 UNK        -0.5000 
     57 CA          5.6007  -11.7028  -44.5280 C.3       3 UNK         0.1400 
     58 CB          5.7029  -13.2118  -44.8362 C.3       3 UNK        -0.1800 
     59 N           5.3978  -10.9846  -45.7808 N.am      3 UNK        -0.5000 
     60 C           5.9190   -9.7885  -46.0878 C.2       2 UNK         0.5000 
     61 O           6.6533   -9.1515  -45.3309 O.2       2 UNK        -0.5000 
     62 CA          5.6042   -9.2127  -47.4864 C.3       2 UNK         0.1400 
     63 CB          6.8931   -9.0535  -48.3105 C.3       2 UNK        -0.1800 
     64 N           4.6728  -10.0505  -48.2459 N.am      2 UNK        -0.5000 
     65 C           3.3379   -9.9655  -48.1764 C.2       1 UNK         0.5000 
     66 O           2.7526   -9.0868  -47.5382 O.2       1 UNK        -0.5000 
     67 C          -1.9577  -22.7794  -48.2568 C.2       11 UNK         0.5000 
     68 O          -2.1335  -23.7954  -48.9292 O.2       11 UNK        -0.5000 
     69 N          -2.9066  -22.2187  -47.4922 N.am      12 UNK        -0.5000 
     70 CA         -4.2626  -22.7481  -47.3354 C.3       12 UNK         0.1400 
     71 CB         -5.1036  -21.7921  -46.4777 C.3       12 UNK        -0.1800 
     72 C          -4.2838  -24.1738  -46.7601 C.2       12 UNK         0.5000 
     73 O          -5.0000  -25.0238  -47.2890 O.2       12 UNK        -0.5000 
     74 N          -3.4676  -24.4181  -45.7262 N.am      13 UNK        -0.5000 
     75 CA         -3.2782  -25.7289  -45.1086 C.3       13 UNK         0.1400 
     76 CB         -2.4468  -25.5789  -43.8255 C.3       13 UNK        -0.1800 
     77 C          -2.6342  -26.7493  -46.0641 C.2       13 UNK         0.5000 
     78 O          -3.1300  -27.8716  -46.1679 O.2       13 UNK        -0.5000 
     79 N          -1.5640  -26.3397  -46.7608 N.am      14 UNK        -0.5000 
     80 CA         -0.8251  -27.1683  -47.7167 C.3       14 UNK         0.1400 
     81 CB          0.4571  -26.4402  -48.1478 C.3       14 UNK        -0.1800 
     82 C          -1.6590  -27.5653  -48.9475 C.2       14 UNK         0.5000 
     83 O          -1.5903  -28.7153  -49.3831 O.2       14 UNK        -0.5000 
     84 N          -2.4449  -26.6162  -49.4716 N.am      15 UNK        -0.5000 
     85 CA         -3.3429  -26.8219  -50.6082 C.3       15 UNK         0.1400 
     86 CB         -3.6258  -25.4626  -51.2654 C.3       15 UNK        -0.1800 
     87 C          -4.6732  -27.4955  -50.2237 C.2       15 UNK         0.5000 
     88 O          -5.4451  -27.8319  -51.1208 O.2       15 UNK        -0.5000 
     89 N          -4.9581  -27.6171  -48.9176 N.am      16 UNK        -0.5000 
     90 CA         -6.2271  -28.0653  -48.3268 C.3       16 UNK         0.1400 
     91 CB         -6.4329  -29.5749  -48.5661 C.3       16 UNK        -0.1800 
     92 C          -7.4269  -27.2088  -48.7943 C.2       16 UNK         0.5000 
     93 O          -8.5145  -27.7341  -49.0373 O.2       16 UNK        -0.5000 
     94 N          -7.1708  -25.9016  -48.9543 N.am      17 UNK        -0.5000 
     95 CA         -8.0465  -24.8522  -49.4862 C.3       17 UNK         0.1400 
     96 CB         -9.2448  -24.6216  -48.5432 C.3       17 UNK        -0.1800 
     97 C          -8.4885  -25.0447  -50.9576 C.2       17 UNK         0.5000 
     98 O          -9.3722  -24.3174  -51.4135 O.2       17 UNK        -0.5000 
     99 N          -7.8771  -25.9880  -51.6915 N.am      18 UNK        -0.5000 
    100 CA        -8.2290  -26.3061  -53.0802 C.3       18 UNK         0.1400 
    101 CB        -7.8685  -27.7722  -53.3667 C.3       18 UNK        -0.1800 
    102 C         -7.5577  -25.3780  -54.1122 C.2       18 UNK         0.5000 
    103 O         -7.9770  -25.3658  -55.2706 O.2       18 UNK        -0.5000 
    104 N         -6.5320  -24.6307  -53.6894 N.am      19 UNK        -0.5000 
    105 CA        -5.7752  -23.6916  -54.5101 C.3       19 UNK         0.1400 
    106 CB        -4.5978  -24.4171  -55.1956 C.3       19 UNK        -0.1800 
    107 C         -5.3675  -22.5074  -53.6218 C.2       19 UNK         0.5000 
    108 O         -6.2235  -21.6773  -53.3153 O.2       19 UNK        -0.5000 
    109 N         -4.0920  -22.4661  -53.2059 N.am      20 UNK        -0.5000 
    110 CA        -3.4786  -21.4538  -52.3360 C.3       20 UNK         0.1400 
    111 CB        -4.0975  -21.4971  -50.9235 C.3       20 UNK        -0.1800 
    112 C         -3.4998  -20.0423  -52.9566 C.2       20 UNK         0.5000 
    113 O         -3.9070  -19.0828  -52.3014 O.2       20 UNK        -0.5000 
    114 N         -3.0711  -19.9501  -54.2235 N.am      21 UNK        -0.5000 
    115 CA        -2.9524  -18.6993  -54.9741 C.3       21 UNK         0.1400 
    116 CB        -2.6090  -19.0186  -56.4372 C.3       21 UNK        -0.1800 
    117 C         -1.8979  -17.7632  -54.3524 C.2       21 UNK         0.5000 
    118 O         -0.7737  -18.1996  -54.0952 O.2       21 UNK        -0.5000 
    119 N         -2.2896  -16.5065  -54.1222 N.am      22 UNK        -0.5000 
    120 CA        -1.5014  -15.4987  -53.3891 C.3       22 UNK         0.1400 
    121 C         -0.6135  -14.6002  -54.2988 C.2       22 UNK         0.5000 
    122 N         -0.5894  -14.7986  -55.6114 N.am      22 UNK        -0.7600 
    123 O          0.0716  -13.7074  -53.8090 O.2       22 UNK        -0.5000 
    124 C124       -2.3957  -14.6442  -52.4457 C.3       23 UNK        -0.0398 
    125 S125       -3.5275  -15.6491  -51.4155 S.3       23 UNK        -0.2404 
    126 C126       -2.6715  -15.7503  -49.8107 C.3       23 UNK        -0.0205 
    127 H127        0.0370  -11.9544  -45.3210 H         1 UNK         0.0600 
    128 H128       -0.6850  -12.3480  -46.8843 H         1 UNK         0.0600 
    129 H129        0.2006  -13.5834  -45.9892 H         1 UNK         0.0600 
    130 H130        0.4683  -11.2746  -48.4611 H         1 UNK         0.3000 
    131 H131        2.0584  -10.5135  -49.7722 H         1 UNK         0.0600 
    132 H132        4.1191  -11.8263  -50.1869 H         1 UNK         0.0800 
    133 H133        3.8879  -12.7426  -48.7168 H         1 UNK         0.0800 
    134 H134        3.2237  -15.3085  -49.2930 H         1 UNK         0.0800 
    135 H135        2.0807  -14.4433  -48.3012 H         1 UNK         0.0800 
    136 H136       -0.4126  -14.3598  -49.2034 H         1 UNK         0.1150 
    137 H137       -1.7245  -18.1698  -50.6737 H         1 UNK         0.1150 
    138 H138        2.4659  -17.3405  -50.2835 H         1 UNK         0.1150 
    139 H139       -0.0552  -19.6687  -51.6905 H         1 UNK         0.0800 
    140 H140        1.6243  -19.2102  -51.7173 H         1 UNK         0.0800 
    141 H141       -1.1449  -21.0601  -50.0774 H         1 UNK         0.0800 
    142 H142       -1.0071  -20.0147  -48.6825 H         1 UNK         0.0800 
    143 H143        0.1211  -22.8559  -48.6715 H         1 UNK         0.0600 
    144 H144        0.0592  -20.8428  -46.6735 H         1 UNK         0.3000 
    145 H145        0.2544  -23.0639  -43.8381 H         1 UNK         0.0600 
    146 H146        2.1722  -21.5828  -43.4017 H         1 UNK         0.0600 
    147 H147        2.5565  -22.6557  -44.7380 H         1 UNK         0.0600 
    148 H148        2.1375  -20.9770  -45.0561 H         1 UNK         0.0600 
    149 H149        0.0347  -20.2464  -43.9250 H         1 UNK         0.3000 
    150 H150       -3.5654  -20.0607  -43.9045 H         1 UNK         0.0600 
    151 H151       -2.8531  -20.3992  -41.5546 H         1 UNK         0.0600 
    152 H152       -2.9862  -18.6821  -41.9075 H         1 UNK         0.0600 
    153 H153       -1.4004  -19.4478  -41.8268 H         1 UNK         0.0600 
    154 H154       -1.6469  -17.9877  -43.9000 H         1 UNK         0.3000 
    155 H155       -1.2523  -17.6565  -47.4451 H         1 UNK         0.0600 
    156 H156       -1.8991  -15.3495  -46.8120 H         1 UNK         0.0600 
    157 H157       -2.5224  -15.9105  -45.2628 H         1 UNK         0.0600 
    158 H158       -3.3073  -16.4009  -46.7534 H         1 UNK         0.0600 
    159 H159       -0.0820  -16.3149  -45.1955 H         1 UNK         0.3000 
    160 H160        2.8389  -18.3458  -44.9459 H         1 UNK         0.0600 
    161 H161        2.3222  -15.4791  -45.9143 H         1 UNK         0.0600 
    162 H162        3.2476  -16.7027  -46.7730 H         1 UNK         0.0600 
    163 H163        3.8328  -16.0812  -45.2363 H         1 UNK         0.0600 
    164 H164        1.8467  -16.0299  -43.5368 H         1 UNK         0.3000 
    165 H165        0.1012  -17.8141  -40.9799 H         1 UNK         0.0600 
    166 H166        2.8563  -16.4817  -40.7934 H         1 UNK         0.0600 
    167 H167        1.7362  -16.7455  -39.4560 H         1 UNK         0.0600 
    168 H168        2.4797  -18.1170  -40.2628 H         1 UNK         0.0600 
    169 H169        0.8503  -15.0876  -41.1653 H         1 UNK         0.3000 
    170 H170       -1.2514  -13.9131  -43.6380 H         1 UNK         0.0600 
    171 H171       -3.0748  -14.1867  -41.9449 H         1 UNK         0.0600 
    172 H172       -1.9929  -13.6180  -40.6790 H         1 UNK         0.0600 
    173 H173       -2.4774  -12.5367  -41.9866 H         1 UNK         0.0600 
    174 H174       -0.0362  -12.3819  -41.6599 H         1 UNK         0.3000 
    175 H175        1.9260  -11.1676  -42.5553 H         1 UNK         0.0600 
    176 H176        3.5579  -11.6344  -40.6815 H         1 UNK         0.0600 
    177 H177        1.9897  -12.3192  -40.3047 H         1 UNK         0.0600 
    178 H178        3.2885  -13.3652  -40.8677 H         1 UNK         0.0600 
    179 H179        3.5015  -13.0817  -43.9339 H         1 UNK         0.3000 
    180 H180        6.5446  -11.3973  -44.0717 H         1 UNK         0.0600 
    181 H181        4.8265  -13.5864  -45.3667 H         1 UNK         0.0600 
    182 H182        5.8152  -13.7948  -43.9211 H         1 UNK         0.0600 
    183 H183        6.5738  -13.4212  -45.4574 H         1 UNK         0.0600 
    184 H184        4.7321  -11.3992  -46.4186 H         1 UNK         0.3000 
    185 H185        5.1719   -8.2205  -47.3411 H         1 UNK         0.0600 
    186 H186        6.6853   -8.6153  -49.2868 H         1 UNK         0.0600 
    187 H187        7.6027   -8.3957  -47.8069 H         1 UNK         0.0600 
    188 H188        7.3901  -10.0112  -48.4703 H         1 UNK         0.0600 
    189 H189        5.0929  -10.7854  -48.7957 H         1 UNK         0.3000 
    190 H190       -2.6956  -21.3572  -46.9942 H         1 UNK         0.3000 
    191 H191       -4.7193  -22.7930  -48.3246 H         1 UNK         0.0600 
    192 H192       -5.1529  -20.8005  -46.9278 H         1 UNK         0.0600 
    193 H193       -6.1269  -22.1559  -46.3775 H         1 UNK         0.0600 
    194 H194       -4.6937  -21.6832  -45.4739 H         1 UNK         0.0600 
    195 H195       -2.9417  -23.6459  -45.3248 H         1 UNK         0.3000 
    196 H196       -4.2628  -26.1104  -44.8303 H         1 UNK         0.0600 
    197 H197       -2.2992  -26.5439  -43.3393 H         1 UNK         0.0600 
    198 H198       -2.9449  -24.9257  -43.1088 H         1 UNK         0.0600 
    199 H199       -1.4617  -25.1582  -44.0299 H         1 UNK         0.0600 
    200 H200       -1.1974  -25.4052  -46.5975 H         1 UNK         0.3000 
    201 H201       -0.5353  -28.0878  -47.2041 H         1 UNK         0.0600 
    202 H202        1.1049  -26.2448  -47.2932 H         1 UNK         0.0600 
    203 H203        0.2353  -25.4848  -48.6248 H         1 UNK         0.0600 
    204 H204        1.0284  -27.0389  -48.8583 H         1 UNK         0.0600 
    205 H205       -2.4057  -25.6741  -49.0888 H         1 UNK         0.3000 
    206 H206       -2.8476  -27.4603  -51.3427 H         1 UNK         0.0600 
    207 H207       -2.7025  -24.9531  -51.5418 H         1 UNK         0.0600 
    208 H208       -4.2154  -25.5859  -52.1732 H         1 UNK         0.0600 
    209 H209       -4.1847  -24.8090  -50.5954 H         1 UNK         0.0600 
    210 H210       -4.2703  -27.2800  -48.2570 H         1 UNK         0.3000 
    211 H211       -6.1372  -27.9064  -47.2513 H         1 UNK         0.0600 
    212 H212       -6.5838  -29.8013  -49.6220 H         1 UNK         0.0600 
    213 H213       -7.3058  -29.9412  -48.0247 H         1 UNK         0.0600 
    214 H214       -5.5729  -30.1481  -48.2196 H         1 UNK         0.0600 
    215 H215       -6.2589  -25.5837  -48.6357 H         1 UNK         0.3000 
    216 H216       -7.4468  -23.9409  -49.4779 H         1 UNK         0.0600 
    217 H217       -8.9129  -24.4583  -47.5178 H         1 UNK         0.0600 
    218 H218       -9.9294  -25.4701  -48.5438 H         1 UNK         0.0600 
    219 H219       -9.8163  -23.7415  -48.8402 H         1 UNK         0.0600 
    220 H220       -7.1609  -26.5661  -51.2662 H         1 UNK         0.3000 
    221 H221       -9.3093  -26.2024  -53.2018 H         1 UNK         0.0600 
    222 H222       -6.7897  -27.9295  -53.3690 H         1 UNK         0.0600 
    223 H223       -8.3052  -28.4412  -52.6248 H         1 UNK         0.0600 
    224 H224       -8.2426  -28.0806  -54.3436 H         1 UNK         0.0600 
    225 H225       -6.2899  -24.6643  -52.7101 H         1 UNK         0.3000 
    226 H226       -6.4214  -23.2808  -55.2890 H         1 UNK         0.0600 
    227 H227       -4.9630  -25.1737  -55.8904 H         1 UNK         0.0600 
    228 H228       -3.9894  -23.7209  -55.7744 H         1 UNK         0.0600 
    229 H229       -3.9470  -24.9202  -54.4804 H         1 UNK         0.0600 
    230 H230       -3.4718  -23.1950  -53.5289 H         1 UNK         0.3000 
    231 H231       -2.4269  -21.7271  -52.2382 H         1 UNK         0.0600 
    232 H232       -3.5776  -20.8227  -50.2425 H         1 UNK         0.0600 
    233 H233       -4.0300  -22.4987  -50.5064 H         1 UNK         0.0600 
    234 H234       -5.1478  -21.2055  -50.9252 H         1 UNK         0.0600 
    235 H235       -2.7428  -20.7845  -54.6860 H         1 UNK         0.3000 
    236 H236       -3.9258  -18.2044  -54.9518 H         1 UNK         0.0600 
    237 H237       -2.5386  -18.1054  -57.0294 H         1 UNK         0.0600 
    238 H238       -1.6544  -19.5395  -56.5225 H         1 UNK         0.0600 
    239 H239       -3.3755  -19.6438  -56.8957 H         1 UNK         0.0600 
    240 H240       -3.2306  -16.2321  -54.3632 H         1 UNK         0.3000 
    241 H241       -0.7890  -16.0252  -52.7532 H         1 UNK         0.0600 
    242 H242       -1.1405  -15.5321  -56.0273 H         1 UNK         0.3800 
    243 H243       -0.0096  -14.2135  -56.1926 H         1 UNK         0.3800 
    244 H244       -1.7814  -14.0178  -51.7967 H         1 UNK         0.0800 
    245 H245       -3.0093  -13.9585  -53.0320 H         1 UNK         0.0800 
    246 H246       -2.7288  -14.7777  -49.3197 H         1 UNK         0.0800 
    247 H247       -3.2168  -16.4489  -49.1758 H         1 UNK         0.0800 
@<TRIPOS>BOND
     1    1    2 1    
     2    1  127 1    
     3    1  128 1    
     4    1  129 1    
     5    2    3 2    
     6    2    4 am   BACKBONE|DICT|INTERRES
     7    4    5 1    
     8    4  130 1    
     9    5    6 1    
    10    5   65 1    
    11    5  131 1    
    12    6    7 1    
    13    6  132 1    
    14    6  133 1    
    15    7    8 1    
    16    8    9 1    
    17    8  134 1    
    18    8  135 1    
    19    9   10 ar   
    20    9   14 ar   
    21   10   11 ar   
    22   10  136 1    
    23   11   12 ar   
    24   11  126 1    
    25   12   13 ar   
    26   12  137 1    
    27   13   14 ar   
    28   13   15 1    
    29   14  138 1    
    30   15   16 1    
    31   15  139 1    
    32   15  140 1    
    33   16   17 1    
    34   17   18 1    
    35   17  141 1    
    36   17  142 1    
    37   18   19 1    
    38   18   67 1    
    39   18  143 1    
    40   19   20 am   BACKBONE|DICT|INTERRES
    41   19  144 1    
    42   20   21 2    
    43   20   22 1    
    44   22   23 1    
    45   22   24 1    
    46   22  145 1    
    47   23  146 1    
    48   23  147 1    
    49   23  148 1    
    50   24   25 am   BACKBONE|DICT|INTERRES
    51   24  149 1    
    52   25   26 2    
    53   25   27 1    
    54   27   28 1    
    55   27   29 1    
    56   27  150 1    
    57   28  151 1    
    58   28  152 1    
    59   28  153 1    
    60   29   30 am   BACKBONE|DICT|INTERRES
    61   29  154 1    
    62   30   31 2    
    63   30   32 1    
    64   32   33 1    
    65   32   34 1    
    66   32  155 1    
    67   33  156 1    
    68   33  157 1    
    69   33  158 1    
    70   34   35 am   BACKBONE|DICT|INTERRES
    71   34  159 1    
    72   35   36 2    
    73   35   37 1    
    74   37   38 1    
    75   37   39 1    
    76   37  160 1    
    77   38  161 1    
    78   38  162 1    
    79   38  163 1    
    80   39   40 am   BACKBONE|DICT|INTERRES
    81   39  164 1    
    82   40   41 2    
    83   40   42 1    
    84   42   43 1    
    85   42   44 1    
    86   42  165 1    
    87   43  166 1    
    88   43  167 1    
    89   43  168 1    
    90   44   45 am   BACKBONE|DICT|INTERRES
    91   44  169 1    
    92   45   46 2    
    93   45   47 1    
    94   47   48 1    
    95   47   49 1    
    96   47  170 1    
    97   48  171 1    
    98   48  172 1    
    99   48  173 1    
   100   49   50 am   BACKBONE|DICT|INTERRES
   101   49  174 1    
   102   50   51 2    
   103   50   52 1    
   104   52   53 1    
   105   52   54 1    
   106   52  175 1    
   107   53  176 1    
   108   53  177 1    
   109   53  178 1    
   110   54   55 am   BACKBONE|DICT|INTERRES
   111   54  179 1    
   112   55   56 2    
   113   55   57 1    
   114   57   58 1    
   115   57   59 1    
   116   57  180 1    
   117   58  181 1    
   118   58  182 1    
   119   58  183 1    
   120   59   60 am   BACKBONE|DICT|INTERRES
   121   59  184 1    
   122   60   61 2    
   123   60   62 1    
   124   62   63 1    
   125   62   64 1    
   126   62  185 1    
   127   63  186 1    
   128   63  187 1    
   129   63  188 1    
   130   64   65 am   BACKBONE|DICT|INTERRES
   131   64  189 1    
   132   65   66 2    
   133   67   68 2    
   134   67   69 am   BACKBONE|DICT|INTERRES
   135   69   70 1    
   136   69  190 1    
   137   70   71 1    
   138   70   72 1    
   139   70  191 1    
   140   71  192 1    
   141   71  193 1    
   142   71  194 1    
   143   72   73 2    
   144   72   74 am   BACKBONE|DICT|INTERRES
   145   74   75 1    
   146   74  195 1    
   147   75   76 1    
   148   75   77 1    
   149   75  196 1    
   150   76  197 1    
   151   76  198 1    
   152   76  199 1    
   153   77   78 2    
   154   77   79 am   BACKBONE|DICT|INTERRES
   155   79   80 1    
   156   79  200 1    
   157   80   81 1    
   158   80   82 1    
   159   80  201 1    
   160   81  202 1    
   161   81  203 1    
   162   81  204 1    
   163   82   83 2    
   164   82   84 am   BACKBONE|DICT|INTERRES
   165   84   85 1    
   166   84  205 1    
   167   85   86 1    
   168   85   87 1    
   169   85  206 1    
   170   86  207 1    
   171   86  208 1    
   172   86  209 1    
   173   87   88 2    
   174   87   89 am   BACKBONE|DICT|INTERRES
   175   89   90 1    
   176   89  210 1    
   177   90   91 1    
   178   90   92 1    
   179   90  211 1    
   180   91  212 1    
   181   91  213 1    
   182   91  214 1    
   183   92   93 2    
   184   92   94 am   BACKBONE|DICT|INTERRES
   185   94   95 1    
   186   94  215 1    
   187   95   96 1    
   188   95   97 1    
   189   95  216 1    
   190   96  217 1    
   191   96  218 1    
   192   96  219 1    
   193   97   98 2    
   194   97   99 am   BACKBONE|DICT|INTERRES
   195   99  100 1    
   196   99  220 1    
   197  100  101 1    
   198  100  102 1    
   199  100  221 1    
   200  101  222 1    
   201  101  223 1    
   202  101  224 1    
   203  102  103 2    
   204  102  104 am   BACKBONE|DICT|INTERRES
   205  104  105 1    
   206  104  225 1    
   207  105  106 1    
   208  105  107 1    
   209  105  226 1    
   210  106  227 1    
   211  106  228 1    
   212  106  229 1    
   213  107  108 2    
   214  107  109 am   BACKBONE|DICT|INTERRES
   215  109  110 1    
   216  109  230 1    
   217  110  111 1    
   218  110  112 1    
   219  110  231 1    
   220  111  232 1    
   221  111  233 1    
   222  111  234 1    
   223  112  113 2    
   224  112  114 am   BACKBONE|DICT|INTERRES
   225  114  115 1    
   226  114  235 1    
   227  115  116 1    
   228  115  117 1    
   229  115  236 1    
   230  116  237 1    
   231  116  238 1    
   232  116  239 1    
   233  117  118 2    
   234  117  119 am   BACKBONE|DICT|INTERRES
   235  119  120 1    
   236  119  240 1    
   237  120  121 1    
   238  120  124 1    
   239  120  241 1    
   240  121  122 am   BACKBONE|DICT|INTERRES
   241  121  123 2    
   242  122  242 1    
   243  122  243 1    
   244  124  125 1    
   245  124  244 1    
   246  124  245 1    
   247  125  126 1    
   248  126  246 1    
   249  126  247 1    
@<TRIPOS>SUBSTRUCTURE
     1 UNK         1 GROUP             0       ****    0 ROOT    
