@<TRIPOS>MOLECULE
3R540
247   249    1
SMALL
USER_CHARGES


@<TRIPOS>ATOM
      1 CA          7.4556  -16.2347  -48.4817 C.3       0 UNK        -0.1800 
      2 C           6.1327  -15.9584  -49.1816 C.2       0 UNK         0.5000 
      3 O           5.6604  -14.8221  -49.1661 O.2       0 UNK        -0.5000 
      4 N           5.5390  -16.9919  -49.7922 N.am      1 UNK        -0.5000 
      5 CA          4.2368  -16.9646  -50.4710 C.3       1 UNK         0.1400 
      6 C6          4.2031  -16.0474  -51.7281 C.3       23 UNK        -0.0398 
      7 S7          5.3691  -16.6523  -53.0002 S.3       23 UNK        -0.2404 
      8 C8          4.2661  -17.4313  -54.2287 C.3       23 UNK        -0.0205 
      9 C9          3.2708  -18.4016  -53.6053 C.ar      23 UNK        -0.0193 
     10 C10         1.9175  -18.0572  -53.5330 C.ar      23 UNK        -0.1150 
     11 C11         0.9939  -18.9251  -52.9477 C.ar      23 UNK        -0.0193 
     12 C12         1.4324  -20.1448  -52.4278 C.ar      23 UNK        -0.1150 
     13 C13         2.7836  -20.4969  -52.4795 C.ar      23 UNK        -0.0193 
     14 C14         3.6977  -19.6294  -53.0867 C.ar      23 UNK        -0.1150 
     15 C15         3.2430  -21.8090  -51.8582 C.3       23 UNK        -0.0205 
     16 S16         4.2629  -21.5931  -50.3569 S.3       23 UNK        -0.2404 
     17 C17         3.3451  -20.3762  -49.3490 C.3       23 UNK        -0.0398 
     18 CA          2.3905  -20.9871  -48.2968 C.3       11 UNK         0.1400 
     19 N           2.2721  -20.1252  -47.1135 N.am      11 UNK        -0.5000 
     20 C           1.5891  -20.4343  -46.0013 C.2       10 UNK         0.5000 
     21 O           0.9537  -21.4823  -45.8677 O.2       10 UNK        -0.5000 
     22 CA          1.5712  -19.4056  -44.8518 C.3       10 UNK         0.1400 
     23 CB          2.4906  -18.1842  -45.0758 C.3       10 UNK        -0.1800 
     24 N           0.2030  -18.9804  -44.5326 N.am      10 UNK        -0.5000 
     25 C          -0.6760  -18.3910  -45.3580 C.2       9 UNK         0.5000 
     26 O          -0.4142  -18.1034  -46.5264 O.2       9 UNK        -0.5000 
     27 CA         -2.0790  -18.0741  -44.7902 C.3       9 UNK         0.1400 
     28 CB         -3.1802  -18.2435  -45.8509 C.3       9 UNK        -0.1800 
     29 N          -2.4237  -18.8954  -43.6258 N.am      9 UNK        -0.5000 
     30 C          -2.1976  -18.5726  -42.3483 C.2       8 UNK         0.5000 
     31 O          -1.6228  -17.5413  -41.9960 O.2       8 UNK        -0.5000 
     32 CA         -2.6368  -19.6136  -41.3058 C.3       8 UNK         0.1400 
     33 CB         -1.5626  -20.6995  -41.1396 C.3       8 UNK        -0.1800 
     34 N          -2.8861  -18.9875  -40.0091 N.am      8 UNK        -0.5000 
     35 C          -4.0665  -18.4724  -39.6381 C.2       7 UNK         0.5000 
     36 O          -5.0734  -18.5026  -40.3474 O.2       7 UNK        -0.5000 
     37 CA         -4.1597  -17.8320  -38.2385 C.3       7 UNK         0.1400 
     38 CB         -4.7673  -18.8244  -37.2348 C.3       7 UNK        -0.1800 
     39 N          -2.8721  -17.3693  -37.7219 N.am      7 UNK        -0.5000 
     40 C          -2.2343  -16.2707  -38.1437 C.2       6 UNK         0.5000 
     41 O          -2.6856  -15.5029  -38.9949 O.2       6 UNK        -0.5000 
     42 CA         -0.8516  -15.9753  -37.5281 C.3       6 UNK         0.1400 
     43 CB         -0.5573  -16.7423  -36.2181 C.3       6 UNK        -0.1800 
     44 N           0.2110  -16.1897  -38.5133 N.am      6 UNK        -0.5000 
     45 C           0.5090  -17.3360  -39.1409 C.2       5 UNK         0.5000 
     46 O          -0.0579  -18.4104  -38.9303 O.2       5 UNK        -0.5000 
     47 CA          1.5679  -17.2201  -40.2434 C.3       5 UNK         0.1400 
     48 CB          2.1619  -18.5740  -40.6743 C.3       5 UNK        -0.1800 
     49 N           0.9214  -16.5901  -41.3847 N.am      5 UNK        -0.5000 
     50 C           1.4773  -15.7082  -42.2150 C.2       4 UNK         0.5000 
     51 O           2.6369  -15.3049  -42.1062 O.2       4 UNK        -0.5000 
     52 CA          0.5649  -15.2305  -43.3613 C.3       4 UNK         0.1400 
     53 CB         -0.3858  -14.1058  -42.9079 C.3       4 UNK        -0.1800 
     54 N           1.3077  -14.8806  -44.5752 N.am      4 UNK        -0.5000 
     55 C           2.0973  -13.8215  -44.8046 C.2       3 UNK         0.5000 
     56 O           2.2200  -12.8594  -44.0455 O.2       3 UNK        -0.5000 
     57 CA          2.9107  -13.8498  -46.1132 C.3       3 UNK         0.1400 
     58 CB          4.3656  -14.2457  -45.8148 C.3       3 UNK        -0.1800 
     59 N           2.3761  -14.7646  -47.1263 N.am      3 UNK        -0.5000 
     60 C           1.2724  -14.5585  -47.8561 C.2       2 UNK         0.5000 
     61 O           0.5597  -13.5611  -47.7343 O.2       2 UNK        -0.5000 
     62 CA          0.9336  -15.6389  -48.9093 C.3       2 UNK         0.1400 
     63 CB         -0.2712  -15.2592  -49.7884 C.3       2 UNK        -0.1800 
     64 N           2.0767  -15.9420  -49.7771 N.am      2 UNK        -0.5000 
     65 C           3.0990  -16.7413  -49.4455 C.2       1 UNK         0.5000 
     66 O           3.1572  -17.3208  -48.3561 O.2       1 UNK        -0.5000 
     67 C           1.0191  -21.3087  -48.9255 C.2       11 UNK         0.5000 
     68 O           0.8115  -22.4267  -49.3954 O.2       11 UNK        -0.5000 
     69 N           0.0904  -20.3408  -48.8821 N.am      12 UNK        -0.5000 
     70 CA         -1.2710  -20.4945  -49.3907 C.3       12 UNK         0.1400 
     71 CB         -1.9454  -19.1180  -49.4783 C.3       12 UNK        -0.1800 
     72 C          -2.1153  -21.4737  -48.5562 C.2       12 UNK         0.5000 
     73 O          -3.0009  -22.1193  -49.1139 O.2       12 UNK        -0.5000 
     74 N          -1.8194  -21.5969  -47.2555 N.am      13 UNK        -0.5000 
     75 CA         -2.4320  -22.5991  -46.3846 C.3       13 UNK         0.1400 
     76 CB         -2.3860  -22.1304  -44.9234 C.3       13 UNK        -0.1800 
     77 C          -1.7563  -23.9692  -46.5499 C.2       13 UNK         0.5000 
     78 O          -2.4547  -24.9803  -46.6117 O.2       13 UNK        -0.5000 
     79 N          -0.4189  -23.9752  -46.6497 N.am      14 UNK        -0.5000 
     80 CA          0.4033  -25.1761  -46.8170 C.3       14 UNK         0.1400 
     81 CB          1.8882  -24.7980  -46.7110 C.3       14 UNK        -0.1800 
     82 C           0.1243  -25.9249  -48.1339 C.2       14 UNK         0.5000 
     83 O          -0.0141  -27.1485  -48.1201 O.2       14 UNK        -0.5000 
     84 N           0.0202  -25.1761  -49.2398 N.am      15 UNK        -0.5000 
     85 CA         -0.3100  -25.7005  -50.5672 C.3       15 UNK         0.1400 
     86 CB          0.2801  -24.7571  -51.6285 C.3       15 UNK        -0.1800 
     87 C          -1.8262  -25.8696  -50.7909 C.2       15 UNK         0.5000 
     88 O          -2.2189  -26.4645  -51.7946 O.2       15 UNK        -0.5000 
     89 N          -2.6439  -25.3073  -49.8865 N.am      16 UNK        -0.5000 
     90 CA         -4.1092  -25.1919  -49.9379 C.3       16 UNK         0.1400 
     91 CB         -4.7839  -26.5784  -49.9292 C.3       16 UNK        -0.1800 
     92 C          -4.6202  -24.2894  -51.0844 C.2       16 UNK         0.5000 
     93 O          -5.8085  -24.3115  -51.4083 O.2       16 UNK        -0.5000 
     94 N          -3.7203  -23.4747  -51.6511 N.am      17 UNK        -0.5000 
     95 CA         -3.9741  -22.5122  -52.7202 C.3       17 UNK         0.1400 
     96 CB         -2.6253  -22.0558  -53.2946 C.3       17 UNK        -0.1800 
     97 C          -4.8272  -21.3089  -52.2723 C.2       17 UNK         0.5000 
     98 O          -5.3703  -20.6048  -53.1239 O.2       17 UNK        -0.5000 
     99 N          -4.9726  -21.0973  -50.9557 N.am      18 UNK        -0.5000 
    100 CA        -5.8772  -20.1138  -50.3521 C.3       18 UNK         0.1400 
    101 CB        -5.7402  -20.1634  -48.8226 C.3       18 UNK        -0.1800 
    102 C         -7.3508  -20.3011  -50.7693 C.2       18 UNK         0.5000 
    103 O         -8.0697  -19.3116  -50.9074 O.2       18 UNK        -0.5000 
    104 N         -7.7534  -21.5529  -51.0366 N.am      19 UNK        -0.5000 
    105 CA        -9.0658  -21.9155  -51.5795 C.3       19 UNK         0.1400 
    106 CB        -9.2376  -23.4391  -51.4888 C.3       19 UNK        -0.1800 
    107 C         -9.2893  -21.4334  -53.0294 C.2       19 UNK         0.5000 
    108 O        -10.4390  -21.2808  -53.4426 O.2       19 UNK        -0.5000 
    109 N         -8.1969  -21.1817  -53.7639 N.am      20 UNK        -0.5000 
    110 CA        -8.1849  -20.6171  -55.1143 C.3       20 UNK         0.1400 
    111 CB        -7.1411  -21.3748  -55.9543 C.3       20 UNK        -0.1800 
    112 C         -7.9025  -19.0987  -55.1011 C.2       20 UNK         0.5000 
    113 O         -7.6669  -18.5226  -56.1639 O.2       20 UNK        -0.5000 
    114 N         -7.9270  -18.4790  -53.9096 N.am      21 UNK        -0.5000 
    115 CA        -7.6916  -17.0580  -53.6329 C.3       21 UNK         0.1400 
    116 CB        -8.7598  -16.1731  -54.3101 C.3       21 UNK        -0.1800 
    117 C         -6.2463  -16.5990  -53.9241 C.2       21 UNK         0.5000 
    118 O         -6.0291  -15.4381  -54.2761 O.2       21 UNK        -0.5000 
    119 N         -5.2781  -17.5092  -53.7486 N.am      22 UNK        -0.5000 
    120 CA        -3.8345  -17.2311  -53.8505 C.3       22 UNK         0.1400 
    121 C         -3.2929  -16.2832  -52.7365 C.2       22 UNK         0.5000 
    122 N         -3.8958  -16.2462  -51.5534 N.am      22 UNK        -0.7600 
    123 O         -2.3281  -15.5567  -52.9536 O.2       22 UNK        -0.5000 
    124 C124       -3.0519  -18.5651  -53.8994 C.3       23 UNK        -0.0398 
    125 S125       -1.3115  -18.4666  -54.4429 S.3       23 UNK        -0.2404 
    126 C126       -0.4677  -18.5290  -52.8313 C.3       23 UNK        -0.0205 
    127 H127        8.2436  -15.6163  -48.9113 H         1 UNK         0.0600 
    128 H128        7.3738  -15.9972  -47.4209 H         1 UNK         0.0600 
    129 H129        7.7538  -17.2793  -48.5745 H         1 UNK         0.0600 
    130 H130        5.9820  -17.8984  -49.7542 H         1 UNK         0.3000 
    131 H131        4.0843  -17.9815  -50.8265 H         1 UNK         0.0600 
    132 H132        4.4652  -15.0198  -51.4748 H         1 UNK         0.0800 
    133 H133        3.2077  -15.9996  -52.1682 H         1 UNK         0.0800 
    134 H134        4.8740  -17.9627  -54.9622 H         1 UNK         0.0800 
    135 H135        3.7441  -16.6471  -54.7793 H         1 UNK         0.0800 
    136 H136        1.5780  -17.1090  -53.9263 H         1 UNK         0.1150 
    137 H137        0.7238  -20.8162  -51.9640 H         1 UNK         0.1150 
    138 H138        4.7448  -19.8952  -53.1276 H         1 UNK         0.1150 
    139 H139        2.3858  -22.4353  -51.6097 H         1 UNK         0.0800 
    140 H140        3.8191  -22.3694  -52.5956 H         1 UNK         0.0800 
    141 H141        2.8224  -19.6594  -49.9796 H         1 UNK         0.0800 
    142 H142        4.1186  -19.7992  -48.8405 H         1 UNK         0.0800 
    143 H143        2.8207  -21.9269  -47.9472 H         1 UNK         0.0600 
    144 H144        2.7141  -19.2157  -47.1769 H         1 UNK         0.3000 
    145 H145        1.9430  -19.9363  -43.9741 H         1 UNK         0.0600 
    146 H146        2.5422  -17.5709  -44.1780 H         1 UNK         0.0600 
    147 H147        3.5131  -18.4903  -45.3007 H         1 UNK         0.0600 
    148 H148        2.1452  -17.5513  -45.8922 H         1 UNK         0.0600 
    149 H149       -0.1172  -19.2102  -43.6041 H         1 UNK         0.3000 
    150 H150       -2.0727  -17.0227  -44.4971 H         1 UNK         0.0600 
    151 H151       -3.0403  -17.5417  -46.6737 H         1 UNK         0.0600 
    152 H152       -4.1662  -18.0446  -45.4307 H         1 UNK         0.0600 
    153 H153       -3.1925  -19.2501  -46.2688 H         1 UNK         0.0600 
    154 H154       -2.8851  -19.7700  -43.8270 H         1 UNK         0.3000 
    155 H155       -3.5509  -20.0949  -41.6606 H         1 UNK         0.0600 
    156 H156       -1.8874  -21.4658  -40.4356 H         1 UNK         0.0600 
    157 H157       -1.3526  -21.1992  -42.0858 H         1 UNK         0.0600 
    158 H158       -0.6245  -20.2880  -40.7697 H         1 UNK         0.0600 
    159 H159       -2.0760  -18.8495  -39.4148 H         1 UNK         0.3000 
    160 H160       -4.8306  -16.9736  -38.3145 H         1 UNK         0.0600 
    161 H161       -4.1350  -19.7037  -37.1053 H         1 UNK         0.0600 
    162 H162       -5.7458  -19.1705  -37.5707 H         1 UNK         0.0600 
    163 H163       -4.9059  -18.3624  -36.2572 H         1 UNK         0.0600 
    164 H164       -2.4171  -17.9580  -37.0393 H         1 UNK         0.3000 
    165 H165       -0.8455  -14.9105  -37.2903 H         1 UNK         0.0600 
    166 H166       -0.5021  -17.8211  -36.3649 H         1 UNK         0.0600 
    167 H167        0.3925  -16.4228  -35.7891 H         1 UNK         0.0600 
    168 H168       -1.3267  -16.5479  -35.4698 H         1 UNK         0.0600 
    169 H169        0.6952  -15.3537  -38.8091 H         1 UNK         0.3000 
    170 H170        2.3758  -16.5913  -39.8629 H         1 UNK         0.0600 
    171 H171        2.5802  -19.1074  -39.8201 H         1 UNK         0.0600 
    172 H172        1.4123  -19.2175  -41.1335 H         1 UNK         0.0600 
    173 H173        2.9653  -18.4351  -41.3980 H         1 UNK         0.0600 
    174 H174       -0.0523  -16.8608  -41.5313 H         1 UNK         0.3000 
    175 H175       -0.0530  -16.0786  -43.6494 H         1 UNK         0.0600 
    176 H176        0.1542  -13.2492  -42.5044 H         1 UNK         0.0600 
    177 H177       -1.0072  -13.7566  -43.7324 H         1 UNK         0.0600 
    178 H178       -1.0563  -14.4613  -42.1242 H         1 UNK         0.0600 
    179 H179        1.3101  -15.5916  -45.2910 H         1 UNK         0.3000 
    180 H180        2.9069  -12.8384  -46.5249 H         1 UNK         0.0600 
    181 H181        4.4379  -15.2741  -45.4585 H         1 UNK         0.0600 
    182 H182        4.7994  -13.6016  -45.0487 H         1 UNK         0.0600 
    183 H183        4.9898  -14.1514  -46.7021 H         1 UNK         0.0600 
    184 H184        2.9098  -15.6067  -47.3142 H         1 UNK         0.3000 
    185 H185        0.6605  -16.5421  -48.3610 H         1 UNK         0.0600 
    186 H186       -1.1596  -15.0843  -49.1804 H         1 UNK         0.0600 
    187 H187       -0.0817  -14.3532  -50.3653 H         1 UNK         0.0600 
    188 H188       -0.5161  -16.0561  -50.4894 H         1 UNK         0.0600 
    189 H189        2.0928  -15.4615  -50.6639 H         1 UNK         0.3000 
    190 H190        0.3080  -19.4683  -48.4177 H         1 UNK         0.3000 
    191 H191       -1.2041  -20.9042  -50.3994 H         1 UNK         0.0600 
    192 H192       -2.8882  -19.1774  -50.0222 H         1 UNK         0.0600 
    193 H193       -1.3165  -18.3949  -49.9956 H         1 UNK         0.0600 
    194 H194       -2.1593  -18.7126  -48.4918 H         1 UNK         0.0600 
    195 H195       -1.0318  -21.0841  -46.8831 H         1 UNK         0.3000 
    196 H196       -3.4835  -22.7174  -46.6568 H         1 UNK         0.0600 
    197 H197       -2.7312  -22.9151  -44.2487 H         1 UNK         0.0600 
    198 H198       -3.0431  -21.2757  -44.7786 H         1 UNK         0.0600 
    199 H199       -1.3794  -21.8499  -44.6132 H         1 UNK         0.0600 
    200 H200        0.0790  -23.0967  -46.5427 H         1 UNK         0.3000 
    201 H201        0.1669  -25.8527  -45.9931 H         1 UNK         0.0600 
    202 H202        2.1009  -24.2842  -45.7732 H         1 UNK         0.0600 
    203 H203        2.1958  -24.1465  -47.5285 H         1 UNK         0.0600 
    204 H204        2.5193  -25.6868  -46.7469 H         1 UNK         0.0600 
    205 H205        0.2034  -24.1762  -49.1812 H         1 UNK         0.3000 
    206 H206        0.1525  -26.6819  -50.6917 H         1 UNK         0.0600 
    207 H207        1.3591  -24.6603  -51.5088 H         1 UNK         0.0600 
    208 H208        0.0991  -25.1349  -52.6356 H         1 UNK         0.0600 
    209 H209       -0.1554  -23.7589  -51.5700 H         1 UNK         0.0600 
    210 H210       -2.2104  -24.8625  -49.0894 H         1 UNK         0.3000 
    211 H211       -4.3953  -24.6850  -49.0151 H         1 UNK         0.0600 
    212 H212       -4.6165  -27.1191  -50.8608 H         1 UNK         0.0600 
    213 H213       -5.8626  -26.4865  -49.7973 H         1 UNK         0.0600 
    214 H214       -4.4095  -27.1930  -49.1106 H         1 UNK         0.0600 
    215 H215       -2.7877  -23.4870  -51.2671 H         1 UNK         0.3000 
    216 H216       -4.5268  -23.0254  -53.5096 H         1 UNK         0.0600 
    217 H217       -2.7679  -21.4424  -54.1838 H         1 UNK         0.0600 
    218 H218       -2.0144  -22.9081  -53.5931 H         1 UNK         0.0600 
    219 H219       -2.0536  -21.4715  -52.5743 H         1 UNK         0.0600 
    220 H220       -4.4411  -21.6791  -50.3140 H         1 UNK         0.3000 
    221 H221       -5.5650  -19.1248  -50.6926 H         1 UNK         0.0600 
    222 H222       -5.9534  -21.1593  -48.4322 H         1 UNK         0.0600 
    223 H223       -4.7357  -19.8879  -48.5042 H         1 UNK         0.0600 
    224 H224       -6.4296  -19.4667  -48.3436 H         1 UNK         0.0600 
    225 H225       -7.0906  -22.3092  -50.9248 H         1 UNK         0.3000 
    226 H226       -9.8301  -21.4468  -50.9562 H         1 UNK         0.0600 
    227 H227       -9.1349  -23.7885  -50.4612 H         1 UNK         0.0600 
    228 H228      -10.2253  -23.7430  -51.8380 H         1 UNK         0.0600 
    229 H229       -8.4990  -23.9632  -52.0967 H         1 UNK         0.0600 
    230 H230       -7.2845  -21.2864  -53.3356 H         1 UNK         0.3000 
    231 H231       -9.1596  -20.7570  -55.5856 H         1 UNK         0.0600 
    232 H232       -7.3329  -22.4478  -55.9468 H         1 UNK         0.0600 
    233 H233       -6.1280  -21.2128  -55.5857 H         1 UNK         0.0600 
    234 H234       -7.1652  -21.0505  -56.9952 H         1 UNK         0.0600 
    235 H235       -8.1223  -19.0428  -53.0916 H         1 UNK         0.3000 
    236 H236       -7.8205  -16.9451  -52.5556 H         1 UNK         0.0600 
    237 H237       -8.6869  -15.1406  -53.9666 H         1 UNK         0.0600 
    238 H238       -8.6521  -16.1626  -55.3949 H         1 UNK         0.0600 
    239 H239       -9.7661  -16.5202  -54.0754 H         1 UNK         0.0600 
    240 H240       -5.5368  -18.4566  -53.5004 H         1 UNK         0.3000 
    241 H241       -3.6760  -16.7198  -54.8020 H         1 UNK         0.0600 
    242 H242       -4.7125  -16.8032  -51.3695 H         1 UNK         0.3800 
    243 H243       -3.5503  -15.6153  -50.8486 H         1 UNK         0.3800 
    244 H244       -3.5438  -19.2331  -54.6077 H         1 UNK         0.0800 
    245 H245       -3.1102  -19.0646  -52.9328 H         1 UNK         0.0800 
    246 H246       -0.5382  -17.5550  -52.3477 H         1 UNK         0.0800 
    247 H247       -0.9841  -19.2363  -52.1851 H         1 UNK         0.0800 
@<TRIPOS>BOND
     1    1    2 1    
     2    1  127 1    
     3    1  128 1    
     4    1  129 1    
     5    2    3 2    
     6    2    4 am   BACKBONE|DICT|INTERRES
     7    4    5 1    
     8    4  130 1    
     9    5    6 1    
    10    5   65 1    
    11    5  131 1    
    12    6    7 1    
    13    6  132 1    
    14    6  133 1    
    15    7    8 1    
    16    8    9 1    
    17    8  134 1    
    18    8  135 1    
    19    9   10 ar   
    20    9   14 ar   
    21   10   11 ar   
    22   10  136 1    
    23   11   12 ar   
    24   11  126 1    
    25   12   13 ar   
    26   12  137 1    
    27   13   14 ar   
    28   13   15 1    
    29   14  138 1    
    30   15   16 1    
    31   15  139 1    
    32   15  140 1    
    33   16   17 1    
    34   17   18 1    
    35   17  141 1    
    36   17  142 1    
    37   18   19 1    
    38   18   67 1    
    39   18  143 1    
    40   19   20 am   BACKBONE|DICT|INTERRES
    41   19  144 1    
    42   20   21 2    
    43   20   22 1    
    44   22   23 1    
    45   22   24 1    
    46   22  145 1    
    47   23  146 1    
    48   23  147 1    
    49   23  148 1    
    50   24   25 am   BACKBONE|DICT|INTERRES
    51   24  149 1    
    52   25   26 2    
    53   25   27 1    
    54   27   28 1    
    55   27   29 1    
    56   27  150 1    
    57   28  151 1    
    58   28  152 1    
    59   28  153 1    
    60   29   30 am   BACKBONE|DICT|INTERRES
    61   29  154 1    
    62   30   31 2    
    63   30   32 1    
    64   32   33 1    
    65   32   34 1    
    66   32  155 1    
    67   33  156 1    
    68   33  157 1    
    69   33  158 1    
    70   34   35 am   BACKBONE|DICT|INTERRES
    71   34  159 1    
    72   35   36 2    
    73   35   37 1    
    74   37   38 1    
    75   37   39 1    
    76   37  160 1    
    77   38  161 1    
    78   38  162 1    
    79   38  163 1    
    80   39   40 am   BACKBONE|DICT|INTERRES
    81   39  164 1    
    82   40   41 2    
    83   40   42 1    
    84   42   43 1    
    85   42   44 1    
    86   42  165 1    
    87   43  166 1    
    88   43  167 1    
    89   43  168 1    
    90   44   45 am   BACKBONE|DICT|INTERRES
    91   44  169 1    
    92   45   46 2    
    93   45   47 1    
    94   47   48 1    
    95   47   49 1    
    96   47  170 1    
    97   48  171 1    
    98   48  172 1    
    99   48  173 1    
   100   49   50 am   BACKBONE|DICT|INTERRES
   101   49  174 1    
   102   50   51 2    
   103   50   52 1    
   104   52   53 1    
   105   52   54 1    
   106   52  175 1    
   107   53  176 1    
   108   53  177 1    
   109   53  178 1    
   110   54   55 am   BACKBONE|DICT|INTERRES
   111   54  179 1    
   112   55   56 2    
   113   55   57 1    
   114   57   58 1    
   115   57   59 1    
   116   57  180 1    
   117   58  181 1    
   118   58  182 1    
   119   58  183 1    
   120   59   60 am   BACKBONE|DICT|INTERRES
   121   59  184 1    
   122   60   61 2    
   123   60   62 1    
   124   62   63 1    
   125   62   64 1    
   126   62  185 1    
   127   63  186 1    
   128   63  187 1    
   129   63  188 1    
   130   64   65 am   BACKBONE|DICT|INTERRES
   131   64  189 1    
   132   65   66 2    
   133   67   68 2    
   134   67   69 am   BACKBONE|DICT|INTERRES
   135   69   70 1    
   136   69  190 1    
   137   70   71 1    
   138   70   72 1    
   139   70  191 1    
   140   71  192 1    
   141   71  193 1    
   142   71  194 1    
   143   72   73 2    
   144   72   74 am   BACKBONE|DICT|INTERRES
   145   74   75 1    
   146   74  195 1    
   147   75   76 1    
   148   75   77 1    
   149   75  196 1    
   150   76  197 1    
   151   76  198 1    
   152   76  199 1    
   153   77   78 2    
   154   77   79 am   BACKBONE|DICT|INTERRES
   155   79   80 1    
   156   79  200 1    
   157   80   81 1    
   158   80   82 1    
   159   80  201 1    
   160   81  202 1    
   161   81  203 1    
   162   81  204 1    
   163   82   83 2    
   164   82   84 am   BACKBONE|DICT|INTERRES
   165   84   85 1    
   166   84  205 1    
   167   85   86 1    
   168   85   87 1    
   169   85  206 1    
   170   86  207 1    
   171   86  208 1    
   172   86  209 1    
   173   87   88 2    
   174   87   89 am   BACKBONE|DICT|INTERRES
   175   89   90 1    
   176   89  210 1    
   177   90   91 1    
   178   90   92 1    
   179   90  211 1    
   180   91  212 1    
   181   91  213 1    
   182   91  214 1    
   183   92   93 2    
   184   92   94 am   BACKBONE|DICT|INTERRES
   185   94   95 1    
   186   94  215 1    
   187   95   96 1    
   188   95   97 1    
   189   95  216 1    
   190   96  217 1    
   191   96  218 1    
   192   96  219 1    
   193   97   98 2    
   194   97   99 am   BACKBONE|DICT|INTERRES
   195   99  100 1    
   196   99  220 1    
   197  100  101 1    
   198  100  102 1    
   199  100  221 1    
   200  101  222 1    
   201  101  223 1    
   202  101  224 1    
   203  102  103 2    
   204  102  104 am   BACKBONE|DICT|INTERRES
   205  104  105 1    
   206  104  225 1    
   207  105  106 1    
   208  105  107 1    
   209  105  226 1    
   210  106  227 1    
   211  106  228 1    
   212  106  229 1    
   213  107  108 2    
   214  107  109 am   BACKBONE|DICT|INTERRES
   215  109  110 1    
   216  109  230 1    
   217  110  111 1    
   218  110  112 1    
   219  110  231 1    
   220  111  232 1    
   221  111  233 1    
   222  111  234 1    
   223  112  113 2    
   224  112  114 am   BACKBONE|DICT|INTERRES
   225  114  115 1    
   226  114  235 1    
   227  115  116 1    
   228  115  117 1    
   229  115  236 1    
   230  116  237 1    
   231  116  238 1    
   232  116  239 1    
   233  117  118 2    
   234  117  119 am   BACKBONE|DICT|INTERRES
   235  119  120 1    
   236  119  240 1    
   237  120  121 1    
   238  120  124 1    
   239  120  241 1    
   240  121  122 am   BACKBONE|DICT|INTERRES
   241  121  123 2    
   242  122  242 1    
   243  122  243 1    
   244  124  125 1    
   245  124  244 1    
   246  124  245 1    
   247  125  126 1    
   248  126  246 1    
   249  126  247 1    
@<TRIPOS>SUBSTRUCTURE
     1 UNK         1 GROUP             0       ****    0 ROOT    
