@<TRIPOS>MOLECULE
3R540
247   249    1
SMALL
USER_CHARGES


@<TRIPOS>ATOM
      1 CA          3.0247  -13.1230  -52.0169 C.3       0 UNK        -0.1800 
      2 C           2.6018  -12.9966  -50.5598 C.2       0 UNK         0.5000 
      3 O           2.5090  -11.8840  -50.0402 O.2       0 UNK        -0.5000 
      4 N           2.3548  -14.1327  -49.8994 N.am      1 UNK        -0.5000 
      5 CA          1.8459  -14.2237  -48.5286 C.3       1 UNK         0.1400 
      6 C6          2.0734  -15.6312  -47.9173 C.3       23 UNK        -0.0398 
      7 S7          1.5790  -17.0189  -49.0034 S.3       23 UNK        -0.2404 
      8 C8          3.2021  -17.7642  -49.3464 C.3       23 UNK        -0.0205 
      9 C9          3.1157  -18.8198  -50.4362 C.ar      23 UNK        -0.0193 
     10 C10         3.4476  -18.5007  -51.7550 C.ar      23 UNK        -0.1150 
     11 C11         3.3976  -19.4757  -52.7556 C.ar      23 UNK        -0.0193 
     12 C12         3.0063  -20.7786  -52.4292 C.ar      23 UNK        -0.1150 
     13 C13         2.6659  -21.1109  -51.1140 C.ar      23 UNK        -0.0193 
     14 C14         2.7257  -20.1235  -50.1237 C.ar      23 UNK        -0.1150 
     15 C15         2.2101  -22.5244  -50.7695 C.3       23 UNK        -0.0205 
     16 S16         3.1402  -23.2201  -49.3638 S.3       23 UNK        -0.2404 
     17 C17         2.0823  -24.6224  -48.8444 C.3       23 UNK        -0.0398 
     18 CA          1.2345  -24.3657  -47.5594 C.3       11 UNK         0.1400 
     19 N           1.9730  -23.7248  -46.4626 N.am      11 UNK        -0.5000 
     20 C           3.0106  -24.3016  -45.8376 C.2       10 UNK         0.5000 
     21 O           3.3723  -25.4593  -46.0539 O.2       10 UNK        -0.5000 
     22 CA          3.8073  -23.4623  -44.8178 C.3       10 UNK         0.1400 
     23 CB          5.0242  -22.8196  -45.5017 C.3       10 UNK        -0.1800 
     24 N           3.0303  -22.4112  -44.1670 N.am      10 UNK        -0.5000 
     25 C           2.0516  -22.6116  -43.2757 C.2       9 UNK         0.5000 
     26 O           1.7183  -23.7249  -42.8685 O.2       9 UNK        -0.5000 
     27 CA          1.3115  -21.3615  -42.7529 C.3       9 UNK         0.1400 
     28 CB          1.7805  -21.0125  -41.3328 C.3       9 UNK        -0.1800 
     29 N           1.4264  -20.1629  -43.5927 N.am      9 UNK        -0.5000 
     30 C           1.0710  -20.0652  -44.8810 C.2       8 UNK         0.5000 
     31 O           0.6830  -21.0245  -45.5476 O.2       8 UNK        -0.5000 
     32 CA          1.1556  -18.6821  -45.5466 C.3       8 UNK         0.1400 
     33 CB         -0.2569  -18.1257  -45.7919 C.3       8 UNK        -0.1800 
     34 N           1.9176  -17.7172  -44.7544 N.am      8 UNK        -0.5000 
     35 C           3.2387  -17.5157  -44.8566 C.2       7 UNK         0.5000 
     36 O           3.9615  -18.1282  -45.6420 O.2       7 UNK        -0.5000 
     37 CA          3.8616  -16.4438  -43.9384 C.3       7 UNK         0.1400 
     38 CB          3.9961  -15.1116  -44.6926 C.3       7 UNK        -0.1800 
     39 N           3.0951  -16.2149  -42.7121 N.am      7 UNK        -0.5000 
     40 C           3.0347  -17.0671  -41.6792 C.2       6 UNK         0.5000 
     41 O           3.6776  -18.1147  -41.6222 O.2       6 UNK        -0.5000 
     42 CA          2.0522  -16.7130  -40.5422 C.3       6 UNK         0.1400 
     43 CB          2.7693  -15.9197  -39.4397 C.3       6 UNK        -0.1800 
     44 N           0.8693  -15.9624  -40.9858 N.am      6 UNK        -0.5000 
     45 C          -0.0103  -16.3964  -41.8988 C.2       5 UNK         0.5000 
     46 O           0.1003  -17.4834  -42.4697 O.2       5 UNK        -0.5000 
     47 CA         -1.1549  -15.4329  -42.2734 C.3       5 UNK         0.1400 
     48 CB         -0.6057  -14.1650  -42.9442 C.3       5 UNK        -0.1800 
     49 N          -2.1090  -16.0590  -43.1891 N.am      5 UNK        -0.5000 
     50 C          -3.0211  -16.9712  -42.8275 C.2       4 UNK         0.5000 
     51 O          -3.2460  -17.2746  -41.6541 O.2       4 UNK        -0.5000 
     52 CA         -3.7827  -17.6852  -43.9669 C.3       4 UNK         0.1400 
     53 CB         -5.1438  -18.2584  -43.5215 C.3       4 UNK        -0.1800 
     54 N          -3.9204  -16.8927  -45.1948 N.am      4 UNK        -0.5000 
     55 C          -4.5538  -15.7193  -45.3384 C.2       3 UNK         0.5000 
     56 O          -5.1311  -15.1218  -44.4284 O.2       3 UNK        -0.5000 
     57 CA         -4.5123  -15.1060  -46.7524 C.3       3 UNK         0.1400 
     58 CB         -5.8919  -14.5659  -47.1658 C.3       3 UNK        -0.1800 
     59 N          -3.5285  -14.0322  -46.9041 N.am      3 UNK        -0.5000 
     60 C          -2.2237  -14.0865  -46.6078 C.2       2 UNK         0.5000 
     61 O          -1.6723  -15.0441  -46.0590 O.2       2 UNK        -0.5000 
     62 CA         -1.3982  -12.8440  -46.9920 C.3       2 UNK         0.1400 
     63 CB         -1.3977  -11.8027  -45.8630 C.3       2 UNK        -0.1800 
     64 N          -0.0170  -13.2020  -47.3111 N.am      2 UNK        -0.5000 
     65 C           0.3629  -13.8000  -48.4474 C.2       1 UNK         0.5000 
     66 O          -0.4010  -14.0251  -49.3902 O.2       1 UNK        -0.5000 
     67 C          -0.0618  -23.6089  -47.8877 C.2       11 UNK         0.5000 
     68 O          -1.1292  -24.2216  -47.9437 O.2       11 UNK        -0.5000 
     69 N           0.0474  -22.2926  -48.1083 N.am      12 UNK        -0.5000 
     70 CA         -1.0392  -21.4274  -48.5704 C.3       12 UNK         0.1400 
     71 CB         -0.4973  -20.0271  -48.8851 C.3       12 UNK        -0.1800 
     72 C          -2.2520  -21.3688  -47.6273 C.2       12 UNK         0.5000 
     73 O          -3.3809  -21.2955  -48.1075 O.2       12 UNK        -0.5000 
     74 N          -2.0143  -21.4441  -46.3125 N.am      13 UNK        -0.5000 
     75 CA         -3.0579  -21.4749  -45.2860 C.3       13 UNK         0.1400 
     76 CB         -2.4105  -21.4319  -43.8951 C.3       13 UNK        -0.1800 
     77 C          -3.9964  -22.6897  -45.4158 C.2       13 UNK         0.5000 
     78 O          -5.2045  -22.5432  -45.2285 O.2       13 UNK        -0.5000 
     79 N          -3.4288  -23.8496  -45.7756 N.am      14 UNK        -0.5000 
     80 CA         -4.1740  -25.0728  -46.0705 C.3       14 UNK         0.1400 
     81 CB         -3.2352  -26.2839  -45.9618 C.3       14 UNK        -0.1800 
     82 C          -4.8369  -25.0165  -47.4583 C.2       14 UNK         0.5000 
     83 O          -5.9588  -25.4996  -47.6176 O.2       14 UNK        -0.5000 
     84 N          -4.1526  -24.3991  -48.4309 N.am      15 UNK        -0.5000 
     85 CA         -4.6075  -24.1950  -49.8076 C.3       15 UNK         0.1400 
     86 CB         -3.3794  -23.9853  -50.7072 C.3       15 UNK        -0.1800 
     87 C          -5.6358  -23.0474  -49.9278 C.2       15 UNK         0.5000 
     88 O          -5.4265  -22.0937  -50.6830 O.2       15 UNK        -0.5000 
     89 N          -6.7440  -23.1823  -49.1869 N.am      16 UNK        -0.5000 
     90 CA         -7.9353  -22.3282  -49.1957 C.3       16 UNK         0.1400 
     91 CB         -8.6831  -22.4823  -50.5377 C.3       16 UNK        -0.1800 
     92 C          -7.6498  -20.8551  -48.8340 C.2       16 UNK         0.5000 
     93 O          -8.2514  -19.9552  -49.4203 O.2       16 UNK        -0.5000 
     94 N          -6.7320  -20.6354  -47.8793 N.am      17 UNK        -0.5000 
     95 CA         -6.2493  -19.3270  -47.4193 C.3       17 UNK         0.1400 
     96 CB         -7.3549  -18.5637  -46.6611 C.3       17 UNK        -0.1800 
     97 C          -5.6277  -18.5136  -48.5730 C.2       17 UNK         0.5000 
     98 O          -6.0592  -17.3999  -48.8678 O.2       17 UNK        -0.5000 
     99 N          -4.6382  -19.1351  -49.2221 N.am      18 UNK        -0.5000 
    100 CA        -3.8438  -18.6921  -50.3684 C.3       18 UNK         0.1400 
    101 CB        -3.1754  -17.3266  -50.1068 C.3       18 UNK        -0.1800 
    102 C         -4.5783  -18.7201  -51.7207 C.2       18 UNK         0.5000 
    103 O         -3.9108  -18.5923  -52.7482 O.2       18 UNK        -0.5000 
    104 N         -5.9048  -18.9141  -51.7290 N.am      19 UNK        -0.5000 
    105 CA        -6.7423  -18.8836  -52.9309 C.3       19 UNK         0.1400 
    106 CB        -8.2234  -18.8717  -52.5275 C.3       19 UNK        -0.1800 
    107 C         -6.4630  -20.0257  -53.9262 C.2       19 UNK         0.5000 
    108 O         -6.6689  -19.8322  -55.1250 O.2       19 UNK        -0.5000 
    109 N         -5.9859  -21.1753  -53.4294 N.am      20 UNK        -0.5000 
    110 CA        -5.5534  -22.3136  -54.2441 C.3       20 UNK         0.1400 
    111 CB        -6.1883  -23.6031  -53.6947 C.3       20 UNK        -0.1800 
    112 C         -4.0151  -22.4093  -54.3283 C.2       20 UNK         0.5000 
    113 O         -3.5014  -23.4193  -54.8122 O.2       20 UNK        -0.5000 
    114 N         -3.3076  -21.3667  -53.8741 N.am      21 UNK        -0.5000 
    115 CA        -1.8625  -21.1985  -53.9935 C.3       21 UNK         0.1400 
    116 CB        -1.2160  -21.2630  -52.5938 C.3       21 UNK        -0.1800 
    117 C         -1.5836  -19.8913  -54.7604 C.2       21 UNK         0.5000 
    118 O         -2.2486  -19.6248  -55.7641 O.2       21 UNK        -0.5000 
    119 N         -0.6000  -19.1120  -54.3003 N.am      22 UNK        -0.5000 
    120 CA        -0.1183  -17.8797  -54.9464 C.3       22 UNK         0.1400 
    121 C         -0.9221  -16.5940  -54.5856 C.2       22 UNK         0.5000 
    122 N         -2.0314  -16.6647  -53.8608 N.am      22 UNK        -0.7600 
    123 O         -0.5385  -15.4982  -54.9859 O.2       22 UNK        -0.5000 
    124 C124        1.4049  -17.6854  -54.7236 C.3       23 UNK        -0.0398 
    125 S125        2.3778  -19.1115  -55.3255 S.3       23 UNK        -0.2404 
    126 C126        3.7947  -19.1254  -54.1828 C.3       23 UNK        -0.0205 
    127 H127        3.0732  -14.1646  -52.3362 H         1 UNK         0.0600 
    128 H128        4.0082  -12.6765  -52.1629 H         1 UNK         0.0600 
    129 H129        2.3139  -12.6039  -52.6599 H         1 UNK         0.0600 
    130 H130        2.3960  -15.0138  -50.3909 H         1 UNK         0.3000 
    131 H131        2.4167  -13.5143  -47.9249 H         1 UNK         0.0600 
    132 H132        3.1293  -15.7399  -47.6678 H         1 UNK         0.0800 
    133 H133        1.5481  -15.7302  -46.9663 H         1 UNK         0.0800 
    134 H134        3.5953  -18.2087  -48.4307 H         1 UNK         0.0800 
    135 H135        3.9085  -16.9855  -49.6385 H         1 UNK         0.0800 
    136 H136        3.7546  -17.4938  -52.0004 H         1 UNK         0.1150 
    137 H137        2.9652  -21.5308  -53.2045 H         1 UNK         0.1150 
    138 H138        2.4701  -20.3686  -49.1033 H         1 UNK         0.1150 
    139 H139        1.1440  -22.4991  -50.5482 H         1 UNK         0.0800 
    140 H140        2.3292  -23.1891  -51.6264 H         1 UNK         0.0800 
    141 H141        2.7489  -25.4665  -48.6652 H         1 UNK         0.0800 
    142 H142        1.4519  -24.9394  -49.6775 H         1 UNK         0.0800 
    143 H143        0.9111  -25.3407  -47.1877 H         1 UNK         0.0600 
    144 H144        1.6745  -22.7960  -46.1861 H         1 UNK         0.3000 
    145 H145        4.1704  -24.1424  -44.0444 H         1 UNK         0.0600 
    146 H146        5.6472  -22.2872  -44.7827 H         1 UNK         0.0600 
    147 H147        5.6511  -23.5759  -45.9761 H         1 UNK         0.0600 
    148 H148        4.7228  -22.1122  -46.2757 H         1 UNK         0.0600 
    149 H149        3.2304  -21.4611  -44.4424 H         1 UNK         0.3000 
    150 H150        0.2536  -21.6191  -42.7008 H         1 UNK         0.0600 
    151 H151        1.6509  -21.8589  -40.6571 H         1 UNK         0.0600 
    152 H152        1.2097  -20.1792  -40.9220 H         1 UNK         0.0600 
    153 H153        2.8358  -20.7378  -41.3165 H         1 UNK         0.0600 
    154 H154        1.7120  -19.3161  -43.1216 H         1 UNK         0.3000 
    155 H155        1.6410  -18.8211  -46.5139 H         1 UNK         0.0600 
    156 H156       -0.8879  -18.8394  -46.3181 H         1 UNK         0.0600 
    157 H157       -0.2227  -17.2227  -46.3988 H         1 UNK         0.0600 
    158 H158       -0.7636  -17.8846  -44.8605 H         1 UNK         0.0600 
    159 H159        1.3969  -17.2367  -44.0302 H         1 UNK         0.3000 
    160 H160        4.8620  -16.7847  -43.6633 H         1 UNK         0.0600 
    161 H161        4.4990  -14.3621  -44.0813 H         1 UNK         0.0600 
    162 H162        4.5864  -15.2346  -45.6016 H         1 UNK         0.0600 
    163 H163        3.0237  -14.7113  -44.9819 H         1 UNK         0.0600 
    164 H164        2.5431  -15.3713  -42.6696 H         1 UNK         0.3000 
    165 H165        1.7018  -17.6538  -40.1127 H         1 UNK         0.0600 
    166 H166        2.1127  -15.7467  -38.5868 H         1 UNK         0.0600 
    167 H167        3.6409  -16.4626  -39.0715 H         1 UNK         0.0600 
    168 H168        3.1148  -14.9503  -39.8010 H         1 UNK         0.0600 
    169 H169        0.7267  -15.0586  -40.5585 H         1 UNK         0.3000 
    170 H170       -1.6750  -15.1485  -41.3564 H         1 UNK         0.0600 
    171 H171        0.0740  -13.6224  -42.2866 H         1 UNK         0.0600 
    172 H172       -0.0642  -14.3964  -43.8626 H         1 UNK         0.0600 
    173 H173       -1.4191  -13.4842  -43.1939 H         1 UNK         0.0600 
    174 H174       -1.9803  -15.8623  -44.1762 H         1 UNK         0.3000 
    175 H175       -3.1514  -18.5313  -44.2356 H         1 UNK         0.0600 
    176 H176       -5.6126  -18.8295  -44.3213 H         1 UNK         0.0600 
    177 H177       -5.0277  -18.9367  -42.6753 H         1 UNK         0.0600 
    178 H178       -5.8352  -17.4721  -43.2180 H         1 UNK         0.0600 
    179 H179       -3.4069  -17.2416  -45.9912 H         1 UNK         0.3000 
    180 H180       -4.2395  -15.8923  -47.4583 H         1 UNK         0.0600 
    181 H181       -6.1869  -13.7052  -46.5643 H         1 UNK         0.0600 
    182 H182       -6.6632  -15.3277  -47.0476 H         1 UNK         0.0600 
    183 H183       -5.8987  -14.2640  -48.2133 H         1 UNK         0.0600 
    184 H184       -3.8825  -13.1833  -47.3198 H         1 UNK         0.3000 
    185 H185       -1.8525  -12.3885  -47.8748 H         1 UNK         0.0600 
    186 H186       -2.4121  -11.5726  -45.5346 H         1 UNK         0.0600 
    187 H187       -0.8385  -12.1472  -44.9945 H         1 UNK         0.0600 
    188 H188       -0.9458  -10.8681  -46.1958 H         1 UNK         0.0600 
    189 H189        0.6562  -13.0713  -46.5712 H         1 UNK         0.3000 
    190 H190        0.9535  -21.8607  -48.0084 H         1 UNK         0.3000 
    191 H191       -1.3990  -21.8421  -49.5100 H         1 UNK         0.0600 
    192 H192        0.2588  -19.7160  -48.1684 H         1 UNK         0.0600 
    193 H193       -1.2819  -19.2718  -48.8762 H         1 UNK         0.0600 
    194 H194       -0.0434  -20.0002  -49.8749 H         1 UNK         0.0600 
    195 H195       -1.0464  -21.4767  -46.0007 H         1 UNK         0.3000 
    196 H196       -3.6662  -20.5775  -45.4071 H         1 UNK         0.0600 
    197 H197       -3.1691  -21.4075  -43.1117 H         1 UNK         0.0600 
    198 H198       -1.7900  -20.5443  -43.7728 H         1 UNK         0.0600 
    199 H199       -1.7851  -22.3081  -43.7209 H         1 UNK         0.0600 
    200 H200       -2.4367  -23.8657  -45.9678 H         1 UNK         0.3000 
    201 H201       -4.9642  -25.1903  -45.3257 H         1 UNK         0.0600 
    202 H202       -2.7946  -26.3529  -44.9671 H         1 UNK         0.0600 
    203 H203       -2.4218  -26.2340  -46.6862 H         1 UNK         0.0600 
    204 H204       -3.7772  -27.2132  -46.1422 H         1 UNK         0.0600 
    205 H205       -3.2310  -24.0413  -48.2096 H         1 UNK         0.3000 
    206 H206       -5.1040  -25.1079  -50.1424 H         1 UNK         0.0600 
    207 H207       -2.6266  -24.7574  -50.5471 H         1 UNK         0.0600 
    208 H208       -3.6533  -24.0127  -51.7612 H         1 UNK         0.0600 
    209 H209       -2.9194  -23.0194  -50.5184 H         1 UNK         0.0600 
    210 H210       -6.7862  -23.9955  -48.5795 H         1 UNK         0.3000 
    211 H211       -8.5894  -22.7074  -48.4096 H         1 UNK         0.0600 
    212 H212       -8.0947  -22.1051  -51.3743 H         1 UNK         0.0600 
    213 H213       -9.6279  -21.9377  -50.5285 H         1 UNK         0.0600 
    214 H214       -8.9161  -23.5275  -50.7402 H         1 UNK         0.0600 
    215 H215       -6.2678  -21.4396  -47.4790 H         1 UNK         0.3000 
    216 H216       -5.4436  -19.5265  -46.7124 H         1 UNK         0.0600 
    217 H217       -6.9621  -17.6470  -46.2211 H         1 UNK         0.0600 
    218 H218       -7.7609  -19.1649  -45.8476 H         1 UNK         0.0600 
    219 H219       -8.1812  -18.2832  -47.3148 H         1 UNK         0.0600 
    220 H220       -4.3821  -20.0642  -48.8873 H         1 UNK         0.3000 
    221 H221       -3.0503  -19.4331  -50.4562 H         1 UNK         0.0600 
    222 H222       -3.8990  -16.5112  -50.1162 H         1 UNK         0.0600 
    223 H223       -2.6630  -17.3077  -49.1450 H         1 UNK         0.0600 
    224 H224       -2.4307  -17.1057  -50.8723 H         1 UNK         0.0600 
    225 H225       -6.3808  -19.0358  -50.8450 H         1 UNK         0.3000 
    226 H226       -6.5299  -17.9455  -53.4479 H         1 UNK         0.0600 
    227 H227       -8.8628  -18.7277  -53.3992 H         1 UNK         0.0600 
    228 H228       -8.5196  -19.8098  -52.0592 H         1 UNK         0.0600 
    229 H229       -8.4387  -18.0637  -51.8279 H         1 UNK         0.0600 
    230 H230       -5.8331  -21.2633  -52.4273 H         1 UNK         0.3000 
    231 H231       -5.9060  -22.1972  -55.2705 H         1 UNK         0.0600 
    232 H232       -7.2730  -23.5133  -53.6360 H         1 UNK         0.0600 
    233 H233       -5.8202  -23.8486  -52.7014 H         1 UNK         0.0600 
    234 H234       -5.9693  -24.4533  -54.3416 H         1 UNK         0.0600 
    235 H235       -3.8100  -20.5446  -53.5596 H         1 UNK         0.3000 
    236 H236       -1.4336  -21.9998  -54.5980 H         1 UNK         0.0600 
    237 H237       -0.1292  -21.1927  -52.6505 H         1 UNK         0.0600 
    238 H238       -1.5724  -20.4634  -51.9454 H         1 UNK         0.0600 
    239 H239       -1.4391  -22.2126  -52.1105 H         1 UNK         0.0600 
    240 H240       -0.1059  -19.3911  -53.4661 H         1 UNK         0.3000 
    241 H241       -0.2591  -17.9955  -56.0228 H         1 UNK         0.0600 
    242 H242       -2.4273  -17.5498  -53.5639 H         1 UNK         0.3800 
    243 H243       -2.5275  -15.8137  -53.6536 H         1 UNK         0.3800 
    244 H244        1.7644  -16.7997  -55.2502 H         1 UNK         0.0800 
    245 H245        1.6056  -17.5137  -53.6659 H         1 UNK         0.0800 
    246 H246        4.5226  -19.8567  -54.5368 H         1 UNK         0.0800 
    247 H247        4.2950  -18.1565  -54.2220 H         1 UNK         0.0800 
@<TRIPOS>BOND
     1    1    2 1    
     2    1  127 1    
     3    1  128 1    
     4    1  129 1    
     5    2    3 2    
     6    2    4 am   BACKBONE|DICT|INTERRES
     7    4    5 1    
     8    4  130 1    
     9    5    6 1    
    10    5   65 1    
    11    5  131 1    
    12    6    7 1    
    13    6  132 1    
    14    6  133 1    
    15    7    8 1    
    16    8    9 1    
    17    8  134 1    
    18    8  135 1    
    19    9   10 ar   
    20    9   14 ar   
    21   10   11 ar   
    22   10  136 1    
    23   11   12 ar   
    24   11  126 1    
    25   12   13 ar   
    26   12  137 1    
    27   13   14 ar   
    28   13   15 1    
    29   14  138 1    
    30   15   16 1    
    31   15  139 1    
    32   15  140 1    
    33   16   17 1    
    34   17   18 1    
    35   17  141 1    
    36   17  142 1    
    37   18   19 1    
    38   18   67 1    
    39   18  143 1    
    40   19   20 am   BACKBONE|DICT|INTERRES
    41   19  144 1    
    42   20   21 2    
    43   20   22 1    
    44   22   23 1    
    45   22   24 1    
    46   22  145 1    
    47   23  146 1    
    48   23  147 1    
    49   23  148 1    
    50   24   25 am   BACKBONE|DICT|INTERRES
    51   24  149 1    
    52   25   26 2    
    53   25   27 1    
    54   27   28 1    
    55   27   29 1    
    56   27  150 1    
    57   28  151 1    
    58   28  152 1    
    59   28  153 1    
    60   29   30 am   BACKBONE|DICT|INTERRES
    61   29  154 1    
    62   30   31 2    
    63   30   32 1    
    64   32   33 1    
    65   32   34 1    
    66   32  155 1    
    67   33  156 1    
    68   33  157 1    
    69   33  158 1    
    70   34   35 am   BACKBONE|DICT|INTERRES
    71   34  159 1    
    72   35   36 2    
    73   35   37 1    
    74   37   38 1    
    75   37   39 1    
    76   37  160 1    
    77   38  161 1    
    78   38  162 1    
    79   38  163 1    
    80   39   40 am   BACKBONE|DICT|INTERRES
    81   39  164 1    
    82   40   41 2    
    83   40   42 1    
    84   42   43 1    
    85   42   44 1    
    86   42  165 1    
    87   43  166 1    
    88   43  167 1    
    89   43  168 1    
    90   44   45 am   BACKBONE|DICT|INTERRES
    91   44  169 1    
    92   45   46 2    
    93   45   47 1    
    94   47   48 1    
    95   47   49 1    
    96   47  170 1    
    97   48  171 1    
    98   48  172 1    
    99   48  173 1    
   100   49   50 am   BACKBONE|DICT|INTERRES
   101   49  174 1    
   102   50   51 2    
   103   50   52 1    
   104   52   53 1    
   105   52   54 1    
   106   52  175 1    
   107   53  176 1    
   108   53  177 1    
   109   53  178 1    
   110   54   55 am   BACKBONE|DICT|INTERRES
   111   54  179 1    
   112   55   56 2    
   113   55   57 1    
   114   57   58 1    
   115   57   59 1    
   116   57  180 1    
   117   58  181 1    
   118   58  182 1    
   119   58  183 1    
   120   59   60 am   BACKBONE|DICT|INTERRES
   121   59  184 1    
   122   60   61 2    
   123   60   62 1    
   124   62   63 1    
   125   62   64 1    
   126   62  185 1    
   127   63  186 1    
   128   63  187 1    
   129   63  188 1    
   130   64   65 am   BACKBONE|DICT|INTERRES
   131   64  189 1    
   132   65   66 2    
   133   67   68 2    
   134   67   69 am   BACKBONE|DICT|INTERRES
   135   69   70 1    
   136   69  190 1    
   137   70   71 1    
   138   70   72 1    
   139   70  191 1    
   140   71  192 1    
   141   71  193 1    
   142   71  194 1    
   143   72   73 2    
   144   72   74 am   BACKBONE|DICT|INTERRES
   145   74   75 1    
   146   74  195 1    
   147   75   76 1    
   148   75   77 1    
   149   75  196 1    
   150   76  197 1    
   151   76  198 1    
   152   76  199 1    
   153   77   78 2    
   154   77   79 am   BACKBONE|DICT|INTERRES
   155   79   80 1    
   156   79  200 1    
   157   80   81 1    
   158   80   82 1    
   159   80  201 1    
   160   81  202 1    
   161   81  203 1    
   162   81  204 1    
   163   82   83 2    
   164   82   84 am   BACKBONE|DICT|INTERRES
   165   84   85 1    
   166   84  205 1    
   167   85   86 1    
   168   85   87 1    
   169   85  206 1    
   170   86  207 1    
   171   86  208 1    
   172   86  209 1    
   173   87   88 2    
   174   87   89 am   BACKBONE|DICT|INTERRES
   175   89   90 1    
   176   89  210 1    
   177   90   91 1    
   178   90   92 1    
   179   90  211 1    
   180   91  212 1    
   181   91  213 1    
   182   91  214 1    
   183   92   93 2    
   184   92   94 am   BACKBONE|DICT|INTERRES
   185   94   95 1    
   186   94  215 1    
   187   95   96 1    
   188   95   97 1    
   189   95  216 1    
   190   96  217 1    
   191   96  218 1    
   192   96  219 1    
   193   97   98 2    
   194   97   99 am   BACKBONE|DICT|INTERRES
   195   99  100 1    
   196   99  220 1    
   197  100  101 1    
   198  100  102 1    
   199  100  221 1    
   200  101  222 1    
   201  101  223 1    
   202  101  224 1    
   203  102  103 2    
   204  102  104 am   BACKBONE|DICT|INTERRES
   205  104  105 1    
   206  104  225 1    
   207  105  106 1    
   208  105  107 1    
   209  105  226 1    
   210  106  227 1    
   211  106  228 1    
   212  106  229 1    
   213  107  108 2    
   214  107  109 am   BACKBONE|DICT|INTERRES
   215  109  110 1    
   216  109  230 1    
   217  110  111 1    
   218  110  112 1    
   219  110  231 1    
   220  111  232 1    
   221  111  233 1    
   222  111  234 1    
   223  112  113 2    
   224  112  114 am   BACKBONE|DICT|INTERRES
   225  114  115 1    
   226  114  235 1    
   227  115  116 1    
   228  115  117 1    
   229  115  236 1    
   230  116  237 1    
   231  116  238 1    
   232  116  239 1    
   233  117  118 2    
   234  117  119 am   BACKBONE|DICT|INTERRES
   235  119  120 1    
   236  119  240 1    
   237  120  121 1    
   238  120  124 1    
   239  120  241 1    
   240  121  122 am   BACKBONE|DICT|INTERRES
   241  121  123 2    
   242  122  242 1    
   243  122  243 1    
   244  124  125 1    
   245  124  244 1    
   246  124  245 1    
   247  125  126 1    
   248  126  246 1    
   249  126  247 1    
@<TRIPOS>SUBSTRUCTURE
     1 UNK         1 GROUP             0       ****    0 ROOT    
