@<TRIPOS>MOLECULE
3R540
247   249    1
SMALL
USER_CHARGES


@<TRIPOS>ATOM
      1 CA          1.3371   -9.1527  -49.5643 C.3       0 UNK        -0.1800 
      2 C           2.0358  -10.1440  -48.6454 C.2       0 UNK         0.5000 
      3 O           2.2059   -9.8646  -47.4588 O.2       0 UNK        -0.5000 
      4 N           2.4305  -11.3056  -49.1847 N.am      1 UNK        -0.5000 
      5 CA          3.1124  -12.3941  -48.4689 C.3       1 UNK         0.1400 
      6 C6          3.5981  -13.5118  -49.4295 C.3       23 UNK        -0.0398 
      7 S7          2.2839  -14.1987  -50.5032 S.3       23 UNK        -0.2404 
      8 C8          2.1210  -15.8911  -49.8551 C.3       23 UNK        -0.0205 
      9 C9          0.8252  -16.5287  -50.3304 C.ar      23 UNK        -0.0193 
     10 C10         0.7545  -17.1575  -51.5777 C.ar      23 UNK        -0.1150 
     11 C11        -0.4506  -17.7081  -52.0275 C.ar      23 UNK        -0.0193 
     12 C12        -1.5881  -17.6254  -51.2182 C.ar      23 UNK        -0.1150 
     13 C13        -1.5288  -16.9987  -49.9694 C.ar      23 UNK        -0.0193 
     14 C14        -0.3157  -16.4649  -49.5268 C.ar      23 UNK        -0.1150 
     15 C15        -2.7837  -16.8458  -49.1213 C.3       23 UNK        -0.0205 
     16 S16        -3.4503  -18.4352  -48.5445 S.3       23 UNK        -0.2404 
     17 C17        -2.1916  -18.9844  -47.3463 C.3       23 UNK        -0.0398 
     18 CA         -1.8886  -20.5023  -47.4120 C.3       11 UNK         0.1400 
     19 N          -0.7460  -20.8497  -46.5625 N.am      11 UNK        -0.5000 
     20 C          -0.1946  -22.0646  -46.4456 C.2       10 UNK         0.5000 
     21 O          -0.5537  -23.0420  -47.0972 O.2       10 UNK        -0.5000 
     22 CA          0.9113  -22.2343  -45.3887 C.3       10 UNK         0.1400 
     23 CB          2.2646  -21.7515  -45.9289 C.3       10 UNK        -0.1800 
     24 N           0.5990  -21.5526  -44.1319 N.am      10 UNK        -0.5000 
     25 C          -0.4225  -21.8820  -43.3274 C.2       9 UNK         0.5000 
     26 O          -1.1780  -22.8319  -43.5363 O.2       9 UNK        -0.5000 
     27 CA         -0.6747  -20.9713  -42.1119 C.3       9 UNK         0.1400 
     28 CB          0.2883  -21.3064  -40.9637 C.3       9 UNK        -0.1800 
     29 N          -0.5732  -19.5501  -42.4459 N.am      9 UNK        -0.5000 
     30 C          -1.3871  -18.9138  -43.3010 C.2       8 UNK         0.5000 
     31 O          -2.3493  -19.4486  -43.8533 O.2       8 UNK        -0.5000 
     32 CA         -1.0308  -17.4537  -43.6408 C.3       8 UNK         0.1400 
     33 CB         -1.5121  -16.4991  -42.5387 C.3       8 UNK        -0.1800 
     34 N           0.4041  -17.2691  -43.8636 N.am      8 UNK        -0.5000 
     35 C           1.0998  -17.8578  -44.8463 C.2       7 UNK         0.5000 
     36 O           0.5885  -18.5591  -45.7146 O.2       7 UNK        -0.5000 
     37 CA          2.6250  -17.6802  -44.8366 C.3       7 UNK         0.1400 
     38 CB          3.0192  -16.3644  -45.5103 C.3       7 UNK        -0.1800 
     39 N           3.1716  -17.7280  -43.4829 N.am      7 UNK        -0.5000 
     40 C           3.2428  -18.8419  -42.7417 C.2       6 UNK         0.5000 
     41 O           2.8871  -19.9510  -43.1392 O.2       6 UNK        -0.5000 
     42 CA          3.7589  -18.6772  -41.3010 C.3       6 UNK         0.1400 
     43 CB          5.2941  -18.7064  -41.2683 C.3       6 UNK        -0.1800 
     44 N           3.2825  -17.4418  -40.6765 N.am      6 UNK        -0.5000 
     45 C           2.0010  -17.2008  -40.3664 C.2       5 UNK         0.5000 
     46 O           1.0919  -18.0124  -40.5410 O.2       5 UNK        -0.5000 
     47 CA          1.6771  -15.8005  -39.8134 C.3       5 UNK         0.1400 
     48 CB          1.8996  -15.7546  -38.2945 C.3       5 UNK        -0.1800 
     49 N           2.4457  -14.7260  -40.4521 N.am      5 UNK        -0.5000 
     50 C           2.3636  -14.4061  -41.7503 C.2       4 UNK         0.5000 
     51 O           1.6810  -15.0324  -42.5627 O.2       4 UNK        -0.5000 
     52 CA          3.2140  -13.2179  -42.2307 C.3       4 UNK         0.1400 
     53 CB          4.4863  -13.7089  -42.9375 C.3       4 UNK        -0.1800 
     54 N           2.4451  -12.3799  -43.1489 N.am      4 UNK        -0.5000 
     55 C           1.5242  -11.4881  -42.7547 C.2       3 UNK         0.5000 
     56 O           1.3113  -11.2090  -41.5736 O.2       3 UNK        -0.5000 
     57 CA          0.6964  -10.7860  -43.8509 C.3       3 UNK         0.1400 
     58 CB          1.3098   -9.4207  -44.1955 C.3       3 UNK        -0.1800 
     59 N           0.5678  -11.5741  -45.0767 N.am      3 UNK        -0.5000 
     60 C          -0.1116  -12.7262  -45.1763 C.2       2 UNK         0.5000 
     61 O          -0.7886  -13.1902  -44.2593 O.2       2 UNK        -0.5000 
     62 CA         -0.0460  -13.4906  -46.5164 C.3       2 UNK         0.1400 
     63 CB         -1.4218  -13.4687  -47.2028 C.3       2 UNK        -0.1800 
     64 N           0.9502  -12.9944  -47.4703 N.am      2 UNK        -0.5000 
     65 C           2.2803  -12.9662  -47.3006 C.2       1 UNK         0.5000 
     66 O           2.8470  -13.3145  -46.2658 O.2       1 UNK        -0.5000 
     67 C          -3.1305  -21.3556  -47.0705 C.2       11 UNK         0.5000 
     68 O          -3.7876  -21.8712  -47.9760 O.2       11 UNK        -0.5000 
     69 N          -3.4110  -21.5152  -45.7718 N.am      12 UNK        -0.5000 
     70 CA         -4.4892  -22.3578  -45.2711 C.3       12 UNK         0.1400 
     71 CB         -4.7278  -22.0557  -43.7821 C.3       12 UNK        -0.1800 
     72 C          -4.2205  -23.8543  -45.5159 C.2       12 UNK         0.5000 
     73 O          -4.9636  -24.4880  -46.2676 O.2       12 UNK        -0.5000 
     74 N          -3.1825  -24.3896  -44.8615 N.am      13 UNK        -0.5000 
     75 CA         -2.9302  -25.8242  -44.7602 C.3       13 UNK         0.1400 
     76 CB         -2.1816  -26.1176  -43.4487 C.3       13 UNK        -0.1800 
     77 C          -2.1762  -26.3933  -45.9713 C.2       13 UNK         0.5000 
     78 O          -2.7146  -27.2523  -46.6692 O.2       13 UNK        -0.5000 
     79 N          -0.9341  -25.9356  -46.1781 N.am      14 UNK        -0.5000 
     80 CA          0.0118  -26.5044  -47.1445 C.3       14 UNK         0.1400 
     81 CB          1.4155  -25.9308  -46.8936 C.3       14 UNK        -0.1800 
     82 C          -0.4100  -26.3018  -48.6100 C.2       14 UNK         0.5000 
     83 O          -0.3046  -27.2319  -49.4103 O.2       14 UNK        -0.5000 
     84 N          -0.9026  -25.0986  -48.9245 N.am      15 UNK        -0.5000 
     85 CA         -1.4433  -24.7338  -50.2334 C.3       15 UNK         0.1400 
     86 CB         -1.3921  -23.2059  -50.3861 C.3       15 UNK        -0.1800 
     87 C          -2.8770  -25.2543  -50.4525 C.2       15 UNK         0.5000 
     88 O          -3.3423  -25.2386  -51.5903 O.2       15 UNK        -0.5000 
     89 N          -3.5431  -25.7018  -49.3762 N.am      16 UNK        -0.5000 
     90 CA         -4.9126  -26.2193  -49.3238 C.3       16 UNK         0.1400 
     91 CB         -5.0201  -27.5582  -50.0828 C.3       16 UNK        -0.1800 
     92 C          -5.9305  -25.1672  -49.8036 C.2       16 UNK         0.5000 
     93 O          -6.4958  -25.2968  -50.8911 O.2       16 UNK        -0.5000 
     94 N          -6.1095  -24.1271  -48.9783 N.am      17 UNK        -0.5000 
     95 CA         -6.9638  -22.9569  -49.2015 C.3       17 UNK         0.1400 
     96 CB         -8.4531  -23.3561  -49.2649 C.3       17 UNK        -0.1800 
     97 C          -6.5028  -22.1277  -50.4171 C.2       17 UNK         0.5000 
     98 O          -7.2208  -22.0064  -51.4123 O.2       17 UNK        -0.5000 
     99 N          -5.2865  -21.5801  -50.2988 N.am      18 UNK        -0.5000 
    100 CA        -4.6304  -20.6315  -51.2051 C.3       18 UNK         0.1400 
    101 CB        -5.4643  -19.3371  -51.3330 C.3       18 UNK        -0.1800 
    102 C         -4.2616  -21.1912  -52.5900 C.2       18 UNK         0.5000 
    103 O         -3.8981  -20.4033  -53.4620 O.2       18 UNK        -0.5000 
    104 N         -4.3673  -22.5132  -52.7887 N.am      19 UNK        -0.5000 
    105 CA        -4.1317  -23.2342  -54.0463 C.3       19 UNK         0.1400 
    106 CB        -2.6256  -23.2597  -54.3847 C.3       19 UNK        -0.1800 
    107 C         -4.9976  -22.7073  -55.2111 C.2       19 UNK         0.5000 
    108 O         -4.5095  -22.5851  -56.3360 O.2       19 UNK        -0.5000 
    109 N         -6.2598  -22.3664  -54.9034 N.am      20 UNK        -0.5000 
    110 CA        -7.2469  -21.7576  -55.8036 C.3       20 UNK         0.1400 
    111 CB        -7.7007  -22.7692  -56.8771 C.3       20 UNK        -0.1800 
    112 C         -6.7513  -20.4196  -56.3970 C.2       20 UNK         0.5000 
    113 O         -6.8182  -20.2136  -57.6100 O.2       20 UNK        -0.5000 
    114 N         -6.2453  -19.5510  -55.5091 N.am      21 UNK        -0.5000 
    115 CA        -5.6063  -18.2606  -55.7859 C.3       21 UNK         0.1400 
    116 CB        -6.5746  -17.2797  -56.4818 C.3       21 UNK        -0.1800 
    117 C         -4.2588  -18.4277  -56.5174 C.2       21 UNK         0.5000 
    118 O         -4.0329  -17.8218  -57.5671 O.2       21 UNK        -0.5000 
    119 N         -3.3825  -19.2365  -55.9110 N.am      22 UNK        -0.5000 
    120 CA        -1.9811  -19.4657  -56.2922 C.3       22 UNK         0.1400 
    121 C         -1.7993  -20.2103  -57.6491 C.2       22 UNK         0.5000 
    122 N         -2.6770  -21.1390  -58.0063 N.am      22 UNK        -0.7600 
    123 O         -0.8468  -19.9646  -58.3853 O.2       22 UNK        -0.5000 
    124 C124       -1.0919  -18.1919  -56.1711 C.3       23 UNK        -0.0398 
    125 S125       -1.2932  -17.2548  -54.6130 S.3       23 UNK        -0.2404 
    126 C126       -0.5332  -18.3720  -53.3945 C.3       23 UNK        -0.0205 
    127 H127        1.2487   -9.5352  -50.5815 H         1 UNK         0.0600 
    128 H128        1.8952   -8.2171  -49.5997 H         1 UNK         0.0600 
    129 H129        0.3350   -8.9395  -49.1924 H         1 UNK         0.0600 
    130 H130        2.2507  -11.4829  -50.1633 H         1 UNK         0.3000 
    131 H131        4.0031  -11.9537  -48.0155 H         1 UNK         0.0600 
    132 H132        4.3701  -13.1055  -50.0842 H         1 UNK         0.0800 
    133 H133        4.0880  -14.3137  -48.8738 H         1 UNK         0.0800 
    134 H134        2.9765  -16.4894  -50.1720 H         1 UNK         0.0800 
    135 H135        2.1419  -15.8681  -48.7656 H         1 UNK         0.0800 
    136 H136        1.6338  -17.2006  -52.2050 H         1 UNK         0.1150 
    137 H137       -2.5251  -18.0328  -51.5706 H         1 UNK         0.1150 
    138 H138       -0.2606  -15.9774  -48.5643 H         1 UNK         0.1150 
    139 H139       -2.6000  -16.2055  -48.2575 H         1 UNK         0.0800 
    140 H140       -3.5479  -16.3434  -49.7158 H         1 UNK         0.0800 
    141 H141       -2.5213  -18.6938  -46.3492 H         1 UNK         0.0800 
    142 H142       -1.2739  -18.4274  -47.5338 H         1 UNK         0.0800 
    143 H143       -1.5987  -20.7388  -48.4372 H         1 UNK         0.0600 
    144 H144       -0.3325  -20.0808  -46.0390 H         1 UNK         0.3000 
    145 H145        0.9991  -23.3001  -45.1698 H         1 UNK         0.0600 
    146 H146        3.0622  -21.9254  -45.2065 H         1 UNK         0.0600 
    147 H147        2.5311  -22.2839  -46.8428 H         1 UNK         0.0600 
    148 H148        2.2501  -20.6873  -46.1622 H         1 UNK         0.0600 
    149 H149        1.2124  -20.7906  -43.8612 H         1 UNK         0.3000 
    150 H150       -1.6928  -21.1590  -41.7646 H         1 UNK         0.0600 
    151 H151        0.2089  -22.3571  -40.6819 H         1 UNK         0.0600 
    152 H152        0.0641  -20.7134  -40.0768 H         1 UNK         0.0600 
    153 H153        1.3262  -21.1169  -41.2372 H         1 UNK         0.0600 
    154 H154        0.1649  -19.0239  -41.9884 H         1 UNK         0.3000 
    155 H155       -1.5463  -17.1887  -44.5660 H         1 UNK         0.0600 
    156 H156       -1.2889  -15.4623  -42.7905 H         1 UNK         0.0600 
    157 H157       -1.0421  -16.7171  -41.5801 H         1 UNK         0.0600 
    158 H158       -2.5910  -16.5766  -42.4006 H         1 UNK         0.0600 
    159 H159        0.8901  -16.6381  -43.2317 H         1 UNK         0.3000 
    160 H160        3.0646  -18.4973  -45.4121 H         1 UNK         0.0600 
    161 H161        2.5773  -15.5133  -44.9947 H         1 UNK         0.0600 
    162 H162        2.6704  -16.3361  -46.5419 H         1 UNK         0.0600 
    163 H163        4.1006  -16.2293  -45.5268 H         1 UNK         0.0600 
    164 H164        3.4287  -16.8470  -43.0644 H         1 UNK         0.3000 
    165 H165        3.3878  -19.5211  -40.7155 H         1 UNK         0.0600 
    166 H166        5.6673  -18.6639  -40.2449 H         1 UNK         0.0600 
    167 H167        5.6757  -19.6259  -41.7144 H         1 UNK         0.0600 
    168 H168        5.7265  -17.8701  -41.8190 H         1 UNK         0.0600 
    169 H169        3.9668  -16.7216  -40.4990 H         1 UNK         0.3000 
    170 H170        0.6194  -15.6097  -40.0065 H         1 UNK         0.0600 
    171 H171        1.3236  -16.5330  -37.7921 H         1 UNK         0.0600 
    172 H172        2.9485  -15.9032  -38.0351 H         1 UNK         0.0600 
    173 H173        1.5823  -14.7984  -37.8780 H         1 UNK         0.0600 
    174 H174        3.0343  -14.1728  -39.8459 H         1 UNK         0.3000 
    175 H175        3.5134  -12.6205  -41.3669 H         1 UNK         0.0600 
    176 H176        4.2563  -14.2736  -43.8405 H         1 UNK         0.0600 
    177 H177        5.1219  -12.8713  -43.2250 H         1 UNK         0.0600 
    178 H178        5.0750  -14.3545  -42.2847 H         1 UNK         0.0600 
    179 H179        2.5239  -12.5979  -44.1350 H         1 UNK         0.3000 
    180 H180       -0.3056  -10.6186  -43.4505 H         1 UNK         0.0600 
    181 H181        2.3138   -9.5252  -44.6088 H         1 UNK         0.0600 
    182 H182        1.3828   -8.7892  -43.3091 H         1 UNK         0.0600 
    183 H183        0.7014   -8.8870  -44.9260 H         1 UNK         0.0600 
    184 H184        1.0929  -11.2505  -45.8789 H         1 UNK         0.3000 
    185 H185        0.2100  -14.5264  -46.2839 H         1 UNK         0.0600 
    186 H186       -2.1773  -13.9501  -46.5806 H         1 UNK         0.0600 
    187 H187       -1.7557  -12.4479  -47.3934 H         1 UNK         0.0600 
    188 H188       -1.4053  -13.9929  -48.1574 H         1 UNK         0.0600 
    189 H189        0.5905  -12.6554  -48.3507 H         1 UNK         0.3000 
    190 H190       -2.8455  -21.0314  -45.0822 H         1 UNK         0.3000 
    191 H191       -5.4019  -22.0953  -45.8105 H         1 UNK         0.0600 
    192 H192       -5.0313  -21.0185  -43.6382 H         1 UNK         0.0600 
    193 H193       -5.5203  -22.6861  -43.3770 H         1 UNK         0.0600 
    194 H194       -3.8337  -22.2228  -43.1812 H         1 UNK         0.0600 
    195 H195       -2.5662  -23.7812  -44.3264 H         1 UNK         0.3000 
    196 H196       -3.8908  -26.3416  -44.7036 H         1 UNK         0.0600 
    197 H197       -1.9804  -27.1844  -43.3432 H         1 UNK         0.0600 
    198 H198       -2.7722  -25.8122  -42.5848 H         1 UNK         0.0600 
    199 H199       -1.2254  -25.5959  -43.3963 H         1 UNK         0.0600 
    200 H200       -0.5971  -25.1785  -45.6025 H         1 UNK         0.3000 
    201 H201        0.0556  -27.5806  -46.9635 H         1 UNK         0.0600 
    202 H202        1.7370  -26.1036  -45.8664 H         1 UNK         0.0600 
    203 H203        1.4566  -24.8586  -47.0843 H         1 UNK         0.0600 
    204 H204        2.1493  -26.4042  -47.5470 H         1 UNK         0.0600 
    205 H205       -0.9025  -24.3715  -48.2086 H         1 UNK         0.3000 
    206 H206       -0.8117  -25.1723  -51.0088 H         1 UNK         0.0600 
    207 H207       -0.3835  -22.8238  -50.2280 H         1 UNK         0.0600 
    208 H208       -1.7056  -22.8967  -51.3828 H         1 UNK         0.0600 
    209 H209       -2.0514  -22.7166  -49.6730 H         1 UNK         0.0600 
    210 H210       -3.0566  -25.6841  -48.4906 H         1 UNK         0.3000 
    211 H211       -5.1298  -26.4228  -48.2741 H         1 UNK         0.0600 
    212 H212       -4.8174  -27.4451  -51.1481 H         1 UNK         0.0600 
    213 H213       -6.0211  -27.9794  -49.9846 H         1 UNK         0.0600 
    214 H214       -4.3178  -28.2907  -49.6848 H         1 UNK         0.0600 
    215 H215       -5.5873  -24.1245  -48.1057 H         1 UNK         0.3000 
    216 H216       -6.8382  -22.3183  -48.3256 H         1 UNK         0.0600 
    217 H217       -9.0877  -22.4716  -49.3304 H         1 UNK         0.0600 
    218 H218       -8.7517  -23.9048  -48.3717 H         1 UNK         0.0600 
    219 H219       -8.6762  -23.9792  -50.1313 H         1 UNK         0.0600 
    220 H220       -4.7661  -21.7706  -49.4413 H         1 UNK         0.3000 
    221 H221       -3.6823  -20.3773  -50.7311 H         1 UNK         0.0600 
    222 H222       -5.7633  -18.9576  -50.3564 H         1 UNK         0.0600 
    223 H223       -4.8943  -18.5480  -51.8243 H         1 UNK         0.0600 
    224 H224       -6.3705  -19.4943  -51.9184 H         1 UNK         0.0600 
    225 H225       -4.6771  -23.0858  -52.0151 H         1 UNK         0.3000 
    226 H226       -4.4510  -24.2635  -53.8786 H         1 UNK         0.0600 
    227 H227       -2.2300  -22.2593  -54.5558 H         1 UNK         0.0600 
    228 H228       -2.0495  -23.7160  -53.5809 H         1 UNK         0.0600 
    229 H229       -2.4342  -23.8461  -55.2840 H         1 UNK         0.0600 
    230 H230       -6.5542  -22.4795  -53.9416 H         1 UNK         0.3000 
    231 H231       -8.1171  -21.5173  -55.1910 H         1 UNK         0.0600 
    232 H232       -6.8902  -23.0319  -57.5577 H         1 UNK         0.0600 
    233 H233       -8.5128  -22.3603  -57.4793 H         1 UNK         0.0600 
    234 H234       -8.0670  -23.6891  -56.4215 H         1 UNK         0.0600 
    235 H235       -6.1927  -19.8537  -54.5470 H         1 UNK         0.3000 
    236 H236       -5.3658  -17.8324  -54.8113 H         1 UNK         0.0600 
    237 H237       -7.5056  -17.1818  -55.9236 H         1 UNK         0.0600 
    238 H238       -6.1320  -16.2855  -56.5515 H         1 UNK         0.0600 
    239 H239       -6.8217  -17.5944  -57.4957 H         1 UNK         0.0600 
    240 H240       -3.6634  -19.6887  -55.0416 H         1 UNK         0.3000 
    241 H241       -1.6037  -20.1714  -55.5531 H         1 UNK         0.0600 
    242 H242       -2.5549  -21.6186  -58.8832 H         1 UNK         0.3800 
    243 H243       -3.4284  -21.4273  -57.3841 H         1 UNK         0.3800 
    244 H244       -0.0381  -18.4552  -56.2755 H         1 UNK         0.0800 
    245 H245       -1.3111  -17.5083  -56.9926 H         1 UNK         0.0800 
    246 H246       -1.1241  -19.2864  -53.3200 H         1 UNK         0.0800 
    247 H247        0.4602  -18.6665  -53.7364 H         1 UNK         0.0800 
@<TRIPOS>BOND
     1    1    2 1    
     2    1  127 1    
     3    1  128 1    
     4    1  129 1    
     5    2    3 2    
     6    2    4 am   BACKBONE|DICT|INTERRES
     7    4    5 1    
     8    4  130 1    
     9    5    6 1    
    10    5   65 1    
    11    5  131 1    
    12    6    7 1    
    13    6  132 1    
    14    6  133 1    
    15    7    8 1    
    16    8    9 1    
    17    8  134 1    
    18    8  135 1    
    19    9   10 ar   
    20    9   14 ar   
    21   10   11 ar   
    22   10  136 1    
    23   11   12 ar   
    24   11  126 1    
    25   12   13 ar   
    26   12  137 1    
    27   13   14 ar   
    28   13   15 1    
    29   14  138 1    
    30   15   16 1    
    31   15  139 1    
    32   15  140 1    
    33   16   17 1    
    34   17   18 1    
    35   17  141 1    
    36   17  142 1    
    37   18   19 1    
    38   18   67 1    
    39   18  143 1    
    40   19   20 am   BACKBONE|DICT|INTERRES
    41   19  144 1    
    42   20   21 2    
    43   20   22 1    
    44   22   23 1    
    45   22   24 1    
    46   22  145 1    
    47   23  146 1    
    48   23  147 1    
    49   23  148 1    
    50   24   25 am   BACKBONE|DICT|INTERRES
    51   24  149 1    
    52   25   26 2    
    53   25   27 1    
    54   27   28 1    
    55   27   29 1    
    56   27  150 1    
    57   28  151 1    
    58   28  152 1    
    59   28  153 1    
    60   29   30 am   BACKBONE|DICT|INTERRES
    61   29  154 1    
    62   30   31 2    
    63   30   32 1    
    64   32   33 1    
    65   32   34 1    
    66   32  155 1    
    67   33  156 1    
    68   33  157 1    
    69   33  158 1    
    70   34   35 am   BACKBONE|DICT|INTERRES
    71   34  159 1    
    72   35   36 2    
    73   35   37 1    
    74   37   38 1    
    75   37   39 1    
    76   37  160 1    
    77   38  161 1    
    78   38  162 1    
    79   38  163 1    
    80   39   40 am   BACKBONE|DICT|INTERRES
    81   39  164 1    
    82   40   41 2    
    83   40   42 1    
    84   42   43 1    
    85   42   44 1    
    86   42  165 1    
    87   43  166 1    
    88   43  167 1    
    89   43  168 1    
    90   44   45 am   BACKBONE|DICT|INTERRES
    91   44  169 1    
    92   45   46 2    
    93   45   47 1    
    94   47   48 1    
    95   47   49 1    
    96   47  170 1    
    97   48  171 1    
    98   48  172 1    
    99   48  173 1    
   100   49   50 am   BACKBONE|DICT|INTERRES
   101   49  174 1    
   102   50   51 2    
   103   50   52 1    
   104   52   53 1    
   105   52   54 1    
   106   52  175 1    
   107   53  176 1    
   108   53  177 1    
   109   53  178 1    
   110   54   55 am   BACKBONE|DICT|INTERRES
   111   54  179 1    
   112   55   56 2    
   113   55   57 1    
   114   57   58 1    
   115   57   59 1    
   116   57  180 1    
   117   58  181 1    
   118   58  182 1    
   119   58  183 1    
   120   59   60 am   BACKBONE|DICT|INTERRES
   121   59  184 1    
   122   60   61 2    
   123   60   62 1    
   124   62   63 1    
   125   62   64 1    
   126   62  185 1    
   127   63  186 1    
   128   63  187 1    
   129   63  188 1    
   130   64   65 am   BACKBONE|DICT|INTERRES
   131   64  189 1    
   132   65   66 2    
   133   67   68 2    
   134   67   69 am   BACKBONE|DICT|INTERRES
   135   69   70 1    
   136   69  190 1    
   137   70   71 1    
   138   70   72 1    
   139   70  191 1    
   140   71  192 1    
   141   71  193 1    
   142   71  194 1    
   143   72   73 2    
   144   72   74 am   BACKBONE|DICT|INTERRES
   145   74   75 1    
   146   74  195 1    
   147   75   76 1    
   148   75   77 1    
   149   75  196 1    
   150   76  197 1    
   151   76  198 1    
   152   76  199 1    
   153   77   78 2    
   154   77   79 am   BACKBONE|DICT|INTERRES
   155   79   80 1    
   156   79  200 1    
   157   80   81 1    
   158   80   82 1    
   159   80  201 1    
   160   81  202 1    
   161   81  203 1    
   162   81  204 1    
   163   82   83 2    
   164   82   84 am   BACKBONE|DICT|INTERRES
   165   84   85 1    
   166   84  205 1    
   167   85   86 1    
   168   85   87 1    
   169   85  206 1    
   170   86  207 1    
   171   86  208 1    
   172   86  209 1    
   173   87   88 2    
   174   87   89 am   BACKBONE|DICT|INTERRES
   175   89   90 1    
   176   89  210 1    
   177   90   91 1    
   178   90   92 1    
   179   90  211 1    
   180   91  212 1    
   181   91  213 1    
   182   91  214 1    
   183   92   93 2    
   184   92   94 am   BACKBONE|DICT|INTERRES
   185   94   95 1    
   186   94  215 1    
   187   95   96 1    
   188   95   97 1    
   189   95  216 1    
   190   96  217 1    
   191   96  218 1    
   192   96  219 1    
   193   97   98 2    
   194   97   99 am   BACKBONE|DICT|INTERRES
   195   99  100 1    
   196   99  220 1    
   197  100  101 1    
   198  100  102 1    
   199  100  221 1    
   200  101  222 1    
   201  101  223 1    
   202  101  224 1    
   203  102  103 2    
   204  102  104 am   BACKBONE|DICT|INTERRES
   205  104  105 1    
   206  104  225 1    
   207  105  106 1    
   208  105  107 1    
   209  105  226 1    
   210  106  227 1    
   211  106  228 1    
   212  106  229 1    
   213  107  108 2    
   214  107  109 am   BACKBONE|DICT|INTERRES
   215  109  110 1    
   216  109  230 1    
   217  110  111 1    
   218  110  112 1    
   219  110  231 1    
   220  111  232 1    
   221  111  233 1    
   222  111  234 1    
   223  112  113 2    
   224  112  114 am   BACKBONE|DICT|INTERRES
   225  114  115 1    
   226  114  235 1    
   227  115  116 1    
   228  115  117 1    
   229  115  236 1    
   230  116  237 1    
   231  116  238 1    
   232  116  239 1    
   233  117  118 2    
   234  117  119 am   BACKBONE|DICT|INTERRES
   235  119  120 1    
   236  119  240 1    
   237  120  121 1    
   238  120  124 1    
   239  120  241 1    
   240  121  122 am   BACKBONE|DICT|INTERRES
   241  121  123 2    
   242  122  242 1    
   243  122  243 1    
   244  124  125 1    
   245  124  244 1    
   246  124  245 1    
   247  125  126 1    
   248  126  246 1    
   249  126  247 1    
@<TRIPOS>SUBSTRUCTURE
     1 UNK         1 GROUP             0       ****    0 ROOT    
