@<TRIPOS>MOLECULE
3R540
247   249    1
SMALL
USER_CHARGES


@<TRIPOS>ATOM
      1 CA          5.6830   -9.2470  -48.6038 C.3       0 UNK        -0.1800 
      2 C           4.8647  -10.3476  -49.2645 C.2       0 UNK         0.5000 
      3 O           5.1442  -10.7181  -50.4053 O.2       0 UNK        -0.5000 
      4 N           3.8519  -10.8638  -48.5568 N.am      1 UNK        -0.5000 
      5 CA          3.0029  -11.9753  -48.9960 C.3       1 UNK         0.1400 
      6 C6          1.7108  -12.0506  -48.1463 C.3       23 UNK        -0.0398 
      7 S7          0.3749  -12.9677  -48.9856 S.3       23 UNK        -0.2404 
      8 C8          0.0538  -14.2768  -47.7708 C.3       23 UNK        -0.0205 
      9 C9         -0.9012  -15.3225  -48.3221 C.ar      23 UNK        -0.0193 
     10 C10        -2.2803  -15.1767  -48.1515 C.ar      23 UNK        -0.1150 
     11 C11        -3.1587  -16.1602  -48.6133 C.ar      23 UNK        -0.0193 
     12 C12        -2.6524  -17.2889  -49.2641 C.ar      23 UNK        -0.1150 
     13 C13        -1.2771  -17.4353  -49.4584 C.ar      23 UNK        -0.0193 
     14 C14        -0.4063  -16.4501  -48.9833 C.ar      23 UNK        -0.1150 
     15 C15        -0.7254  -18.6449  -50.1949 C.3       23 UNK        -0.0205 
     16 S16         0.0959  -19.8023  -49.0628 S.3       23 UNK        -0.2404 
     17 C17        -1.2973  -20.8222  -48.4827 C.3       23 UNK        -0.0398 
     18 CA         -0.7767  -21.9617  -47.5748 C.3       11 UNK         0.1400 
     19 N          -0.4950  -21.5222  -46.2078 N.am      11 UNK        -0.5000 
     20 C           0.1767  -22.2600  -45.3132 C.2       10 UNK         0.5000 
     21 O           0.6680  -23.3607  -45.5639 O.2       10 UNK        -0.5000 
     22 CA          0.2717  -21.7036  -43.8847 C.3       10 UNK         0.1400 
     23 CB          1.3854  -20.6561  -43.7645 C.3       10 UNK        -0.1800 
     24 N          -0.9961  -21.1396  -43.4243 N.am      10 UNK        -0.5000 
     25 C          -2.0952  -21.8663  -43.1825 C.2       9 UNK         0.5000 
     26 O          -2.1466  -23.0915  -43.2899 O.2       9 UNK        -0.5000 
     27 CA         -3.3608  -21.0855  -42.7952 C.3       9 UNK         0.1400 
     28 CB         -3.3317  -20.6998  -41.3088 C.3       9 UNK        -0.1800 
     29 N          -3.5464  -19.8847  -43.6087 N.am      9 UNK        -0.5000 
     30 C          -3.8217  -19.8980  -44.9204 C.2       8 UNK         0.5000 
     31 O          -3.9165  -20.9205  -45.5953 O.2       8 UNK        -0.5000 
     32 CA         -3.9944  -18.5351  -45.6045 C.3       8 UNK         0.1400 
     33 CB         -5.3998  -17.9844  -45.3146 C.3       8 UNK        -0.1800 
     34 N          -3.0005  -17.5416  -45.2031 N.am      8 UNK        -0.5000 
     35 C          -1.6673  -17.6804  -45.2464 C.2       7 UNK         0.5000 
     36 O          -1.0917  -18.7142  -45.5916 O.2       7 UNK        -0.5000 
     37 CA         -0.8342  -16.4500  -44.8319 C.3       7 UNK         0.1400 
     38 CB         -1.6789  -15.1945  -44.5101 C.3       7 UNK        -0.1800 
     39 N           0.0745  -16.7015  -43.7159 N.am      7 UNK        -0.5000 
     40 C          -0.2323  -17.1924  -42.5065 C.2       6 UNK         0.5000 
     41 O          -1.2874  -17.7654  -42.2299 O.2       6 UNK        -0.5000 
     42 CA          0.7968  -16.9120  -41.3940 C.3       6 UNK         0.1400 
     43 CB          1.8643  -18.0107  -41.3198 C.3       6 UNK        -0.1800 
     44 N           1.4443  -15.6071  -41.5690 N.am      6 UNK        -0.5000 
     45 C           0.8277  -14.4295  -41.3784 C.2       5 UNK         0.5000 
     46 O          -0.3248  -14.3272  -40.9564 O.2       5 UNK        -0.5000 
     47 CA          1.6180  -13.1460  -41.7019 C.3       5 UNK         0.1400 
     48 CB          2.1359  -12.4954  -40.4096 C.3       5 UNK        -0.1800 
     49 N           2.7500  -13.3705  -42.6014 N.am      5 UNK        -0.5000 
     50 C           2.6577  -13.5456  -43.9260 C.2       4 UNK         0.5000 
     51 O           1.5950  -13.5015  -44.5487 O.2       4 UNK        -0.5000 
     52 CA          3.9731  -13.8164  -44.6912 C.3       4 UNK         0.1400 
     53 CB          5.1840  -14.1129  -43.7777 C.3       4 UNK        -0.1800 
     54 N           3.8418  -14.8790  -45.6918 N.am      4 UNK        -0.5000 
     55 C           3.3843  -16.1263  -45.4958 C.2       3 UNK         0.5000 
     56 O           2.9485  -16.5320  -44.4165 O.2       3 UNK        -0.5000 
     57 CA          3.4268  -17.0755  -46.7084 C.3       3 UNK         0.1400 
     58 CB          2.2982  -18.1174  -46.6947 C.3       3 UNK        -0.1800 
     59 N           3.3836  -16.3332  -47.9688 N.am      3 UNK        -0.5000 
     60 C           4.2690  -16.4486  -48.9644 C.2       2 UNK         0.5000 
     61 O           5.2064  -17.2473  -48.9625 O.2       2 UNK        -0.5000 
     62 CA          4.0912  -15.5003  -50.1679 C.3       2 UNK         0.1400 
     63 CB          3.3361  -16.2183  -51.2978 C.3       2 UNK        -0.1800 
     64 N           3.4121  -14.2287  -49.8843 N.am      2 UNK        -0.5000 
     65 C           3.7885  -13.3072  -48.9861 C.2       1 UNK         0.5000 
     66 O           4.6902  -13.4821  -48.1622 O.2       1 UNK        -0.5000 
     67 C          -1.6961  -23.1967  -47.5983 C.2       11 UNK         0.5000 
     68 O          -1.3659  -24.1596  -48.2901 O.2       11 UNK        -0.5000 
     69 N          -2.7895  -23.1907  -46.8211 N.am      12 UNK        -0.5000 
     70 CA         -3.7187  -24.3183  -46.6834 C.3       12 UNK         0.1400 
     71 CB         -4.9041  -23.9170  -45.7932 C.3       12 UNK        -0.1800 
     72 C          -3.0568  -25.5966  -46.1381 C.2       12 UNK         0.5000 
     73 O          -3.3663  -26.6874  -46.6184 O.2       12 UNK        -0.5000 
     74 N          -2.1429  -25.4386  -45.1702 N.am      13 UNK        -0.5000 
     75 CA         -1.3376  -26.5255  -44.6121 C.3       13 UNK         0.1400 
     76 CB         -0.6148  -26.0300  -43.3504 C.3       13 UNK        -0.1800 
     77 C          -0.3291  -27.1101  -45.6203 C.2       13 UNK         0.5000 
     78 O          -0.0390  -28.3053  -45.5542 O.2       13 UNK        -0.5000 
     79 N           0.1841  -26.2663  -46.5261 N.am      14 UNK        -0.5000 
     80 CA          1.1052  -26.6473  -47.5915 C.3       14 UNK         0.1400 
     81 CB          1.8813  -25.4101  -48.0785 C.3       14 UNK        -0.1800 
     82 C           0.3792  -27.3739  -48.7388 C.2       14 UNK         0.5000 
     83 O           0.5352  -28.5885  -48.8754 O.2       14 UNK        -0.5000 
     84 N          -0.3805  -26.6260  -49.5517 N.am      15 UNK        -0.5000 
     85 CA         -1.0203  -27.1215  -50.7784 C.3       15 UNK         0.1400 
     86 CB          0.0545  -27.4134  -51.8511 C.3       15 UNK        -0.1800 
     87 C          -2.1019  -26.1711  -51.3350 C.2       15 UNK         0.5000 
     88 O          -2.4915  -26.3206  -52.4934 O.2       15 UNK        -0.5000 
     89 N          -2.5326  -25.1739  -50.5492 N.am      16 UNK        -0.5000 
     90 CA         -3.4458  -24.0640  -50.8691 C.3       16 UNK         0.1400 
     91 CB         -4.8133  -24.5689  -51.3642 C.3       16 UNK        -0.1800 
     92 C          -2.8485  -23.0008  -51.8155 C.2       16 UNK         0.5000 
     93 O          -3.1886  -21.8236  -51.6800 O.2       16 UNK        -0.5000 
     94 N          -1.9508  -23.4199  -52.7175 N.am      17 UNK        -0.5000 
     95 CA         -1.2161  -22.6226  -53.7037 C.3       17 UNK         0.1400 
     96 CB         -0.3323  -21.5712  -52.9949 C.3       17 UNK        -0.1800 
     97 C          -2.1335  -21.9970  -54.7760 C.2       17 UNK         0.5000 
     98 O          -3.3289  -22.2957  -54.8329 O.2       17 UNK        -0.5000 
     99 N          -1.5584  -21.1249  -55.6161 N.am      18 UNK        -0.5000 
    100 CA        -2.2588  -20.3916  -56.6782 C.3       18 UNK         0.1400 
    101 CB        -1.2259  -19.6358  -57.5280 C.3       18 UNK        -0.1800 
    102 C         -3.3397  -19.4233  -56.1539 C.2       18 UNK         0.5000 
    103 O         -4.2784  -19.1045  -56.8842 O.2       18 UNK        -0.5000 
    104 N         -3.1999  -18.9970  -54.8913 N.am      19 UNK        -0.5000 
    105 CA        -4.1793  -18.1973  -54.1585 C.3       19 UNK         0.1400 
    106 CB        -3.4914  -17.5901  -52.9252 C.3       19 UNK        -0.1800 
    107 C         -5.4204  -18.9996  -53.7195 C.2       19 UNK         0.5000 
    108 O         -6.4139  -18.3812  -53.3392 O.2       19 UNK        -0.5000 
    109 N         -5.3372  -20.3417  -53.7259 N.am      20 UNK        -0.5000 
    110 CA        -6.3500  -21.2940  -53.2501 C.3       20 UNK         0.1400 
    111 CB        -7.5636  -21.3128  -54.2012 C.3       20 UNK        -0.1800 
    112 C         -6.7398  -21.0409  -51.7771 C.2       20 UNK         0.5000 
    113 O         -7.9244  -21.0195  -51.4349 O.2       20 UNK        -0.5000 
    114 N         -5.7170  -20.7696  -50.9505 N.am      21 UNK        -0.5000 
    115 CA        -5.7807  -20.3372  -49.5490 C.3       21 UNK         0.1400 
    116 CB        -6.2151  -21.5077  -48.6462 C.3       21 UNK        -0.1800 
    117 C         -6.6275  -19.0619  -49.3219 C.2       21 UNK         0.5000 
    118 O         -7.1124  -18.8410  -48.2124 O.2       21 UNK        -0.5000 
    119 N         -6.7909  -18.2491  -50.3758 N.am      22 UNK        -0.5000 
    120 CA        -7.6629  -17.0649  -50.4499 C.3       22 UNK         0.1400 
    121 C         -9.1857  -17.3896  -50.3425 C.2       22 UNK         0.5000 
    122 N         -9.6192  -18.6224  -50.5862 N.am      22 UNK        -0.7600 
    123 O         -9.9961  -16.5094  -50.0648 O.2       22 UNK        -0.5000 
    124 C124       -7.2131  -15.9005  -49.5221 C.3       23 UNK        -0.0398 
    125 S125       -5.4967  -15.3704  -49.8587 S.3       23 UNK        -0.2404 
    126 C126       -4.6530  -16.0225  -48.3889 C.3       23 UNK        -0.0205 
    127 H127        5.6403   -8.3367  -49.2018 H         1 UNK         0.0600 
    128 H128        6.7258   -9.5536  -48.5214 H         1 UNK         0.0600 
    129 H129        5.3173   -9.0140  -47.6034 H         1 UNK         0.0600 
    130 H130        3.6928  -10.5323  -47.6165 H         1 UNK         0.3000 
    131 H131        2.7177  -11.7624  -50.0290 H         1 UNK         0.0600 
    132 H132        1.9105  -12.4669  -47.1570 H         1 UNK         0.0800 
    133 H133        1.3259  -11.0451  -47.9695 H         1 UNK         0.0800 
    134 H134        0.9911  -14.7474  -47.4750 H         1 UNK         0.0800 
    135 H135       -0.3590  -13.8284  -46.8656 H         1 UNK         0.0800 
    136 H136       -2.6691  -14.3016  -47.6503 H         1 UNK         0.1150 
    137 H137       -3.3316  -18.0464  -49.6273 H         1 UNK         0.1150 
    138 H138        0.6579  -16.5694  -49.1254 H         1 UNK         0.1150 
    139 H139       -1.5099  -19.1653  -50.7450 H         1 UNK         0.0800 
    140 H140       -0.0018  -18.3089  -50.9388 H         1 UNK         0.0800 
    141 H141       -2.0239  -20.1978  -47.9599 H         1 UNK         0.0800 
    142 H142       -1.8007  -21.2178  -49.3665 H         1 UNK         0.0800 
    143 H143        0.1720  -22.3078  -47.9922 H         1 UNK         0.0600 
    144 H144       -0.8252  -20.5978  -45.9416 H         1 UNK         0.3000 
    145 H145        0.5298  -22.5404  -43.2320 H         1 UNK         0.0600 
    146 H146        2.2799  -20.9573  -44.3115 H         1 UNK         0.0600 
    147 H147        1.0693  -19.6865  -44.1480 H         1 UNK         0.0600 
    148 H148        1.6774  -20.5297  -42.7240 H         1 UNK         0.0600 
    149 H149       -1.0599  -20.1323  -43.3670 H         1 UNK         0.3000 
    150 H150       -4.2189  -21.7406  -42.9598 H         1 UNK         0.0600 
    151 H151       -3.2135  -21.5827  -40.6793 H         1 UNK         0.0600 
    152 H152       -4.2588  -20.2101  -41.0105 H         1 UNK         0.0600 
    153 H153       -2.5071  -20.0225  -41.0828 H         1 UNK         0.0600 
    154 H154       -3.4193  -18.9946  -43.1469 H         1 UNK         0.3000 
    155 H155       -3.8919  -18.6870  -46.6806 H         1 UNK         0.0600 
    156 H156       -5.5803  -17.0412  -45.8275 H         1 UNK         0.0600 
    157 H157       -5.5533  -17.8134  -44.2484 H         1 UNK         0.0600 
    158 H158       -6.1676  -18.6849  -45.6456 H         1 UNK         0.0600 
    159 H159       -3.3654  -16.6587  -44.8787 H         1 UNK         0.3000 
    160 H160       -0.2014  -16.2144  -45.6856 H         1 UNK         0.0600 
    161 H161       -2.3006  -15.3356  -43.6250 H         1 UNK         0.0600 
    162 H162       -2.3318  -14.9196  -45.3375 H         1 UNK         0.0600 
    163 H163       -1.0354  -14.3356  -44.3188 H         1 UNK         0.0600 
    164 H164        1.0200  -16.3566  -43.8456 H         1 UNK         0.3000 
    165 H165        0.2618  -16.9005  -40.4420 H         1 UNK         0.0600 
    166 H166        2.3939  -18.1279  -42.2658 H         1 UNK         0.0600 
    167 H167        2.6018  -17.7936  -40.5470 H         1 UNK         0.0600 
    168 H168        1.4080  -18.9679  -41.0676 H         1 UNK         0.0600 
    169 H169        2.3796  -15.6100  -41.9498 H         1 UNK         0.3000 
    170 H170        0.9268  -12.4487  -42.1804 H         1 UNK         0.0600 
    171 H171        1.3153  -12.2810  -39.7235 H         1 UNK         0.0600 
    172 H172        2.8400  -13.1436  -39.8863 H         1 UNK         0.0600 
    173 H173        2.6383  -11.5505  -40.6172 H         1 UNK         0.0600 
    174 H174        3.6624  -13.4208  -42.1716 H         1 UNK         0.3000 
    175 H175        4.1917  -12.9028  -45.2458 H         1 UNK         0.0600 
    176 H176        5.0197  -14.9941  -43.1560 H         1 UNK         0.0600 
    177 H177        6.0810  -14.2932  -44.3705 H         1 UNK         0.0600 
    178 H178        5.4067  -13.2714  -43.1208 H         1 UNK         0.0600 
    179 H179        4.1804  -14.6316  -46.6164 H         1 UNK         0.3000 
    180 H180        4.3728  -17.6128  -46.6192 H         1 UNK         0.0600 
    181 H181        1.3149  -17.6576  -46.7851 H         1 UNK         0.0600 
    182 H182        2.3119  -18.6989  -45.7748 H         1 UNK         0.0600 
    183 H183        2.4153  -18.8224  -47.5168 H         1 UNK         0.0600 
    184 H184        2.6608  -15.6361  -48.0575 H         1 UNK         0.3000 
    185 H185        5.0919  -15.2551  -50.5293 H         1 UNK         0.0600 
    186 H186        3.3048  -15.6100  -52.2019 H         1 UNK         0.0600 
    187 H187        3.8228  -17.1590  -51.5595 H         1 UNK         0.0600 
    188 H188        2.3092  -16.4497  -51.0123 H         1 UNK         0.0600 
    189 H189        2.6373  -14.0063  -50.4935 H         1 UNK         0.3000 
    190 H190       -3.0245  -22.3538  -46.2902 H         1 UNK         0.3000 
    191 H191       -4.1068  -24.5494  -47.6772 H         1 UNK         0.0600 
    192 H192       -5.6047  -24.7446  -45.6756 H         1 UNK         0.0600 
    193 H193       -5.4591  -23.0847  -46.2232 H         1 UNK         0.0600 
    194 H194       -4.5750  -23.6200  -44.7969 H         1 UNK         0.0600 
    195 H195       -1.9897  -24.5133  -44.7829 H         1 UNK         0.3000 
    196 H196       -2.0150  -27.3304  -44.3195 H         1 UNK         0.0600 
    197 H197       -0.0146  -26.8245  -42.9052 H         1 UNK         0.0600 
    198 H198       -1.3260  -25.6978  -42.5941 H         1 UNK         0.0600 
    199 H199        0.0532  -25.1968  -43.5706 H         1 UNK         0.0600 
    200 H200       -0.0914  -25.2927  -46.4916 H         1 UNK         0.3000 
    201 H201        1.8387  -27.3430  -47.1781 H         1 UNK         0.0600 
    202 H202        2.4821  -24.9867  -47.2734 H         1 UNK         0.0600 
    203 H203        1.2238  -24.6224  -48.4440 H         1 UNK         0.0600 
    204 H204        2.5628  -25.6716  -48.8889 H         1 UNK         0.0600 
    205 H205       -0.4968  -25.6429  -49.3313 H         1 UNK         0.3000 
    206 H206       -1.5348  -28.0544  -50.5400 H         1 UNK         0.0600 
    207 H207        0.7780  -28.1542  -51.5120 H         1 UNK         0.0600 
    208 H208       -0.3897  -27.8111  -52.7644 H         1 UNK         0.0600 
    209 H209        0.6035  -26.5099  -52.1184 H         1 UNK         0.0600 
    210 H210       -2.1208  -25.0889  -49.6237 H         1 UNK         0.3000 
    211 H211       -3.6214  -23.5547  -49.9215 H         1 UNK         0.0600 
    212 H212       -4.7598  -24.9702  -52.3765 H         1 UNK         0.0600 
    213 H213       -5.5435  -23.7610  -51.3721 H         1 UNK         0.0600 
    214 H214       -5.2058  -25.3488  -50.7118 H         1 UNK         0.0600 
    215 H215       -1.8321  -24.4237  -52.7915 H         1 UNK         0.3000 
    216 H216       -0.5596  -23.3208  -54.2245 H         1 UNK         0.0600 
    217 H217        0.3957  -21.1343  -53.6785 H         1 UNK         0.0600 
    218 H218        0.2315  -22.0182  -52.1757 H         1 UNK         0.0600 
    219 H219       -0.9238  -20.7544  -52.5812 H         1 UNK         0.0600 
    220 H220       -0.5708  -20.9364  -55.5215 H         1 UNK         0.3000 
    221 H221       -2.7591  -21.1230  -57.3163 H         1 UNK         0.0600 
    222 H222       -0.6762  -18.9031  -56.9358 H         1 UNK         0.0600 
    223 H223       -0.5033  -20.3201  -57.9728 H         1 UNK         0.0600 
    224 H224       -1.7095  -19.1002  -58.3461 H         1 UNK         0.0600 
    225 H225       -2.3899  -19.3040  -54.3743 H         1 UNK         0.3000 
    226 H226       -4.5192  -17.3834  -54.8023 H         1 UNK         0.0600 
    227 H227       -2.6268  -16.9886  -53.2060 H         1 UNK         0.0600 
    228 H228       -4.1726  -16.9391  -52.3750 H         1 UNK         0.0600 
    229 H229       -3.1547  -18.3648  -52.2366 H         1 UNK         0.0600 
    230 H230       -4.4784  -20.7703  -54.0544 H         1 UNK         0.3000 
    231 H231       -5.8853  -22.2799  -53.2859 H         1 UNK         0.0600 
    232 H232       -8.2688  -22.0953  -53.9188 H         1 UNK         0.0600 
    233 H233       -7.2547  -21.5094  -55.2279 H         1 UNK         0.0600 
    234 H234       -8.1036  -20.3655  -54.1890 H         1 UNK         0.0600 
    235 H235       -4.7776  -20.8684  -51.3296 H         1 UNK         0.3000 
    236 H236       -4.7606  -20.0718  -49.2685 H         1 UNK         0.0600 
    237 H237       -5.5737  -22.3767  -48.7904 H         1 UNK         0.0600 
    238 H238       -6.1514  -21.2316  -47.5930 H         1 UNK         0.0600 
    239 H239       -7.2434  -21.8106  -48.8450 H         1 UNK         0.0600 
    240 H240       -6.3971  -18.5263  -51.2666 H         1 UNK         0.3000 
    241 H241       -7.5509  -16.7025  -51.4721 H         1 UNK         0.0600 
    242 H242       -8.9743  -19.3651  -50.8353 H         1 UNK         0.3800 
    243 H243      -10.6051  -18.8204  -50.5247 H         1 UNK         0.3800 
    244 H244       -7.8496  -15.0279  -49.6759 H         1 UNK         0.0800 
    245 H245       -7.3298  -16.1725  -48.4723 H         1 UNK         0.0800 
    246 H246       -4.8572  -15.3709  -47.5381 H         1 UNK         0.0800 
    247 H247       -5.0602  -16.9991  -48.1352 H         1 UNK         0.0800 
@<TRIPOS>BOND
     1    1    2 1    
     2    1  127 1    
     3    1  128 1    
     4    1  129 1    
     5    2    3 2    
     6    2    4 am   BACKBONE|DICT|INTERRES
     7    4    5 1    
     8    4  130 1    
     9    5    6 1    
    10    5   65 1    
    11    5  131 1    
    12    6    7 1    
    13    6  132 1    
    14    6  133 1    
    15    7    8 1    
    16    8    9 1    
    17    8  134 1    
    18    8  135 1    
    19    9   10 ar   
    20    9   14 ar   
    21   10   11 ar   
    22   10  136 1    
    23   11   12 ar   
    24   11  126 1    
    25   12   13 ar   
    26   12  137 1    
    27   13   14 ar   
    28   13   15 1    
    29   14  138 1    
    30   15   16 1    
    31   15  139 1    
    32   15  140 1    
    33   16   17 1    
    34   17   18 1    
    35   17  141 1    
    36   17  142 1    
    37   18   19 1    
    38   18   67 1    
    39   18  143 1    
    40   19   20 am   BACKBONE|DICT|INTERRES
    41   19  144 1    
    42   20   21 2    
    43   20   22 1    
    44   22   23 1    
    45   22   24 1    
    46   22  145 1    
    47   23  146 1    
    48   23  147 1    
    49   23  148 1    
    50   24   25 am   BACKBONE|DICT|INTERRES
    51   24  149 1    
    52   25   26 2    
    53   25   27 1    
    54   27   28 1    
    55   27   29 1    
    56   27  150 1    
    57   28  151 1    
    58   28  152 1    
    59   28  153 1    
    60   29   30 am   BACKBONE|DICT|INTERRES
    61   29  154 1    
    62   30   31 2    
    63   30   32 1    
    64   32   33 1    
    65   32   34 1    
    66   32  155 1    
    67   33  156 1    
    68   33  157 1    
    69   33  158 1    
    70   34   35 am   BACKBONE|DICT|INTERRES
    71   34  159 1    
    72   35   36 2    
    73   35   37 1    
    74   37   38 1    
    75   37   39 1    
    76   37  160 1    
    77   38  161 1    
    78   38  162 1    
    79   38  163 1    
    80   39   40 am   BACKBONE|DICT|INTERRES
    81   39  164 1    
    82   40   41 2    
    83   40   42 1    
    84   42   43 1    
    85   42   44 1    
    86   42  165 1    
    87   43  166 1    
    88   43  167 1    
    89   43  168 1    
    90   44   45 am   BACKBONE|DICT|INTERRES
    91   44  169 1    
    92   45   46 2    
    93   45   47 1    
    94   47   48 1    
    95   47   49 1    
    96   47  170 1    
    97   48  171 1    
    98   48  172 1    
    99   48  173 1    
   100   49   50 am   BACKBONE|DICT|INTERRES
   101   49  174 1    
   102   50   51 2    
   103   50   52 1    
   104   52   53 1    
   105   52   54 1    
   106   52  175 1    
   107   53  176 1    
   108   53  177 1    
   109   53  178 1    
   110   54   55 am   BACKBONE|DICT|INTERRES
   111   54  179 1    
   112   55   56 2    
   113   55   57 1    
   114   57   58 1    
   115   57   59 1    
   116   57  180 1    
   117   58  181 1    
   118   58  182 1    
   119   58  183 1    
   120   59   60 am   BACKBONE|DICT|INTERRES
   121   59  184 1    
   122   60   61 2    
   123   60   62 1    
   124   62   63 1    
   125   62   64 1    
   126   62  185 1    
   127   63  186 1    
   128   63  187 1    
   129   63  188 1    
   130   64   65 am   BACKBONE|DICT|INTERRES
   131   64  189 1    
   132   65   66 2    
   133   67   68 2    
   134   67   69 am   BACKBONE|DICT|INTERRES
   135   69   70 1    
   136   69  190 1    
   137   70   71 1    
   138   70   72 1    
   139   70  191 1    
   140   71  192 1    
   141   71  193 1    
   142   71  194 1    
   143   72   73 2    
   144   72   74 am   BACKBONE|DICT|INTERRES
   145   74   75 1    
   146   74  195 1    
   147   75   76 1    
   148   75   77 1    
   149   75  196 1    
   150   76  197 1    
   151   76  198 1    
   152   76  199 1    
   153   77   78 2    
   154   77   79 am   BACKBONE|DICT|INTERRES
   155   79   80 1    
   156   79  200 1    
   157   80   81 1    
   158   80   82 1    
   159   80  201 1    
   160   81  202 1    
   161   81  203 1    
   162   81  204 1    
   163   82   83 2    
   164   82   84 am   BACKBONE|DICT|INTERRES
   165   84   85 1    
   166   84  205 1    
   167   85   86 1    
   168   85   87 1    
   169   85  206 1    
   170   86  207 1    
   171   86  208 1    
   172   86  209 1    
   173   87   88 2    
   174   87   89 am   BACKBONE|DICT|INTERRES
   175   89   90 1    
   176   89  210 1    
   177   90   91 1    
   178   90   92 1    
   179   90  211 1    
   180   91  212 1    
   181   91  213 1    
   182   91  214 1    
   183   92   93 2    
   184   92   94 am   BACKBONE|DICT|INTERRES
   185   94   95 1    
   186   94  215 1    
   187   95   96 1    
   188   95   97 1    
   189   95  216 1    
   190   96  217 1    
   191   96  218 1    
   192   96  219 1    
   193   97   98 2    
   194   97   99 am   BACKBONE|DICT|INTERRES
   195   99  100 1    
   196   99  220 1    
   197  100  101 1    
   198  100  102 1    
   199  100  221 1    
   200  101  222 1    
   201  101  223 1    
   202  101  224 1    
   203  102  103 2    
   204  102  104 am   BACKBONE|DICT|INTERRES
   205  104  105 1    
   206  104  225 1    
   207  105  106 1    
   208  105  107 1    
   209  105  226 1    
   210  106  227 1    
   211  106  228 1    
   212  106  229 1    
   213  107  108 2    
   214  107  109 am   BACKBONE|DICT|INTERRES
   215  109  110 1    
   216  109  230 1    
   217  110  111 1    
   218  110  112 1    
   219  110  231 1    
   220  111  232 1    
   221  111  233 1    
   222  111  234 1    
   223  112  113 2    
   224  112  114 am   BACKBONE|DICT|INTERRES
   225  114  115 1    
   226  114  235 1    
   227  115  116 1    
   228  115  117 1    
   229  115  236 1    
   230  116  237 1    
   231  116  238 1    
   232  116  239 1    
   233  117  118 2    
   234  117  119 am   BACKBONE|DICT|INTERRES
   235  119  120 1    
   236  119  240 1    
   237  120  121 1    
   238  120  124 1    
   239  120  241 1    
   240  121  122 am   BACKBONE|DICT|INTERRES
   241  121  123 2    
   242  122  242 1    
   243  122  243 1    
   244  124  125 1    
   245  124  244 1    
   246  124  245 1    
   247  125  126 1    
   248  126  246 1    
   249  126  247 1    
@<TRIPOS>SUBSTRUCTURE
     1 UNK         1 GROUP             0       ****    0 ROOT    
