@<TRIPOS>MOLECULE
3R540
247   249    1
SMALL
USER_CHARGES


@<TRIPOS>ATOM
      1 CA         -1.3396  -10.8441  -46.8928 C.3       0 UNK        -0.1800 
      2 C          -0.2064  -10.6906  -47.8974 C.2       0 UNK         0.5000 
      3 O           0.3802   -9.6142  -48.0067 O.2       0 UNK        -0.5000 
      4 N           0.1045  -11.7692  -48.6262 N.am      1 UNK        -0.5000 
      5 CA          1.1781  -11.8384  -49.6287 C.3       1 UNK         0.1400 
      6 C6          1.0176  -13.0879  -50.5298 C.3       23 UNK        -0.0398 
      7 S7         -0.4766  -13.0474  -51.5844 S.3       23 UNK        -0.2404 
      8 C8         -1.6790  -14.1128  -50.7012 C.3       23 UNK        -0.0205 
      9 C9         -1.2464  -15.5539  -50.4167 C.ar      23 UNK        -0.0193 
     10 C10        -0.1892  -16.1738  -51.0942 C.ar      23 UNK        -0.1150 
     11 C11         0.2179  -17.4693  -50.7622 C.ar      23 UNK        -0.0193 
     12 C12        -0.4497  -18.1532  -49.7409 C.ar      23 UNK        -0.1150 
     13 C13        -1.5234  -17.5609  -49.0687 C.ar      23 UNK        -0.0193 
     14 C14        -1.9254  -16.2706  -49.4246 C.ar      23 UNK        -0.1150 
     15 C15        -2.2088  -18.2964  -47.9248 C.3       23 UNK        -0.0205 
     16 S16        -3.3060  -19.6099  -48.5391 S.3       23 UNK        -0.2404 
     17 C17        -3.4663  -20.7091  -47.0892 C.3       23 UNK        -0.0398 
     18 CA         -2.3320  -21.7637  -47.0588 C.3       11 UNK         0.1400 
     19 N          -1.0903  -21.2319  -46.4984 N.am      11 UNK        -0.5000 
     20 C           0.1289  -21.7253  -46.7482 C.2       10 UNK         0.5000 
     21 O           0.3418  -22.6853  -47.4871 O.2       10 UNK        -0.5000 
     22 CA          1.3012  -21.0453  -46.0175 C.3       10 UNK         0.1400 
     23 CB          1.7823  -19.8142  -46.8018 C.3       10 UNK        -0.1800 
     24 N           0.9547  -20.6476  -44.6513 N.am      10 UNK        -0.5000 
     25 C           0.6468  -21.5071  -43.6690 C.2       9 UNK         0.5000 
     26 O           0.6557  -22.7308  -43.7993 O.2       9 UNK        -0.5000 
     27 CA          0.1946  -20.8905  -42.3353 C.3       9 UNK         0.1400 
     28 CB          1.4084  -20.4919  -41.4825 C.3       9 UNK        -0.1800 
     29 N          -0.6626  -19.7217  -42.5222 N.am      9 UNK        -0.5000 
     30 C          -1.8699  -19.7154  -43.1013 C.2       8 UNK         0.5000 
     31 O          -2.3989  -20.7251  -43.5652 O.2       8 UNK        -0.5000 
     32 CA         -2.5836  -18.3557  -43.2462 C.3       8 UNK         0.1400 
     33 CB         -4.0816  -18.4421  -42.8939 C.3       8 UNK        -0.1800 
     34 N          -1.9273  -17.2512  -42.5361 N.am      8 UNK        -0.5000 
     35 C          -1.7923  -17.0668  -41.2133 C.2       7 UNK         0.5000 
     36 O          -2.2625  -17.8230  -40.3635 O.2       7 UNK        -0.5000 
     37 CA         -0.9498  -15.8567  -40.7558 C.3       7 UNK         0.1400 
     38 CB          0.3841  -16.3394  -40.1634 C.3       7 UNK        -0.1800 
     39 N          -0.6638  -14.9044  -41.8314 N.am      7 UNK        -0.5000 
     40 C          -1.5527  -14.0510  -42.3588 C.2       6 UNK         0.5000 
     41 O          -2.6995  -13.9071  -41.9348 O.2       6 UNK        -0.5000 
     42 CA         -1.0938  -13.2656  -43.6014 C.3       6 UNK         0.1400 
     43 CB         -0.3076  -12.0116  -43.1898 C.3       6 UNK        -0.1800 
     44 N          -0.2749  -14.0731  -44.5087 N.am      6 UNK        -0.5000 
     45 C          -0.6936  -15.1606  -45.1713 C.2       5 UNK         0.5000 
     46 O          -1.8421  -15.5961  -45.1167 O.2       5 UNK        -0.5000 
     47 CA          0.3601  -15.9211  -45.9916 C.3       5 UNK         0.1400 
     48 CB          0.6177  -15.2380  -47.3391 C.3       5 UNK        -0.1800 
     49 N           1.6187  -16.0506  -45.2630 N.am      5 UNK        -0.5000 
     50 C           1.8354  -16.9295  -44.2777 C.2       4 UNK         0.5000 
     51 O           1.0231  -17.7913  -43.9430 O.2       4 UNK        -0.5000 
     52 CA          3.1822  -16.8300  -43.5385 C.3       4 UNK         0.1400 
     53 CB          4.1905  -17.8215  -44.1361 C.3       4 UNK        -0.1800 
     54 N           3.7543  -15.4799  -43.5606 N.am      4 UNK        -0.5000 
     55 C           3.2523  -14.4383  -42.8815 C.2       3 UNK         0.5000 
     56 O           2.2519  -14.5088  -42.1680 O.2       3 UNK        -0.5000 
     57 CA          3.9503  -13.0785  -43.0858 C.3       3 UNK         0.1400 
     58 CB          5.2288  -12.9906  -42.2391 C.3       3 UNK        -0.1800 
     59 N           4.2693  -12.7895  -44.4897 N.am      3 UNK        -0.5000 
     60 C           3.3556  -12.7059  -45.4648 C.2       2 UNK         0.5000 
     61 O           2.1497  -12.8896  -45.2751 O.2       2 UNK        -0.5000 
     62 CA          3.8571  -12.4148  -46.8890 C.3       2 UNK         0.1400 
     63 CB          4.6938  -13.5962  -47.4208 C.3       2 UNK        -0.1800 
     64 N           2.6727  -12.2192  -47.7173 N.am      2 UNK        -0.5000 
     65 C           2.5903  -11.8298  -48.9927 C.2       1 UNK         0.5000 
     66 O           3.5624  -11.4917  -49.6690 O.2       1 UNK        -0.5000 
     67 C          -2.7434  -23.0682  -46.3549 C.2       11 UNK         0.5000 
     68 O          -3.1697  -23.9997  -47.0364 O.2       11 UNK        -0.5000 
     69 N          -2.5549  -23.1493  -45.0307 N.am      12 UNK        -0.5000 
     70 CA         -2.7571  -24.3641  -44.2395 C.3       12 UNK         0.1400 
     71 CB         -2.5956  -24.0438  -42.7462 C.3       12 UNK        -0.1800 
     72 C          -1.8141  -25.5046  -44.6662 C.2       12 UNK         0.5000 
     73 O          -2.2748  -26.6300  -44.8601 O.2       12 UNK        -0.5000 
     74 N          -0.5277  -25.1816  -44.8678 N.am      13 UNK        -0.5000 
     75 CA          0.4988  -26.1020  -45.3665 C.3       13 UNK         0.1400 
     76 CB          1.8717  -25.4167  -45.2983 C.3       13 UNK        -0.1800 
     77 C           0.2208  -26.6118  -46.7946 C.2       13 UNK         0.5000 
     78 O           0.5285  -27.7641  -47.1002 O.2       13 UNK        -0.5000 
     79 N          -0.3845  -25.7572  -47.6290 N.am      14 UNK        -0.5000 
     80 CA         -0.8149  -26.0695  -48.9925 C.3       14 UNK         0.1400 
     81 CB         -0.8464  -24.7656  -49.8041 C.3       14 UNK        -0.1800 
     82 C          -2.1844  -26.7768  -49.0623 C.2       14 UNK         0.5000 
     83 O          -2.6589  -27.0365  -50.1682 O.2       14 UNK        -0.5000 
     84 N          -2.8206  -27.0401  -47.9096 N.am      15 UNK        -0.5000 
     85 CA         -4.1531  -27.6379  -47.7562 C.3       15 UNK         0.1400 
     86 CB         -4.1391  -29.1188  -48.1886 C.3       15 UNK        -0.1800 
     87 C          -5.2598  -26.8129  -48.4505 C.2       15 UNK         0.5000 
     88 O          -6.1615  -27.3753  -49.0734 O.2       15 UNK        -0.5000 
     89 N          -5.1397  -25.4825  -48.3412 N.am      16 UNK        -0.5000 
     90 CA         -5.9951  -24.4309  -48.8967 C.3       16 UNK         0.1400 
     91 CB         -7.4537  -24.5732  -48.4164 C.3       16 UNK        -0.1800 
     92 C          -5.8997  -24.2502  -50.4254 C.2       16 UNK         0.5000 
     93 O          -6.5906  -23.3815  -50.9566 O.2       16 UNK        -0.5000 
     94 N          -5.0324  -25.0061  -51.1181 N.am      17 UNK        -0.5000 
     95 CA         -4.8247  -24.8863  -52.5672 C.3       17 UNK         0.1400 
     96 CB         -3.9526  -26.0469  -53.0656 C.3       17 UNK        -0.1800 
     97 C          -4.2017  -23.5360  -52.9667 C.2       17 UNK         0.5000 
     98 O          -4.5751  -22.9601  -53.9904 O.2       17 UNK        -0.5000 
     99 N          -3.3029  -23.0239  -52.1142 N.am      18 UNK        -0.5000 
    100 CA        -2.6332  -21.7317  -52.2692 C.3       18 UNK         0.1400 
    101 CB        -1.5061  -21.6121  -51.2363 C.3       18 UNK        -0.1800 
    102 C         -3.5797  -20.5184  -52.2022 C.2       18 UNK         0.5000 
    103 O         -3.2059  -19.4525  -52.6856 O.2       18 UNK        -0.5000 
    104 N         -4.8039  -20.6889  -51.6818 N.am      19 UNK        -0.5000 
    105 CA        -5.8409  -19.6535  -51.7082 C.3       19 UNK         0.1400 
    106 CB        -7.0207  -20.0841  -50.8248 C.3       19 UNK        -0.1800 
    107 C         -6.3180  -19.3213  -53.1389 C.2       19 UNK         0.5000 
    108 O         -6.7953  -18.2099  -53.3700 O.2       19 UNK        -0.5000 
    109 N         -6.1583  -20.2750  -54.0681 N.am      20 UNK        -0.5000 
    110 CA        -6.4039  -20.1023  -55.4972 C.3       20 UNK         0.1400 
    111 CB        -7.2642  -21.2716  -56.0023 C.3       20 UNK        -0.1800 
    112 C         -5.0829  -20.0290  -56.2832 C.2       20 UNK         0.5000 
    113 O         -4.9573  -19.1902  -57.1757 O.2       20 UNK        -0.5000 
    114 N         -4.1287  -20.9138  -55.9585 N.am      21 UNK        -0.5000 
    115 CA        -2.8892  -21.1062  -56.7170 C.3       21 UNK         0.1400 
    116 CB        -2.3675  -22.5284  -56.4525 C.3       21 UNK        -0.1800 
    117 C         -1.7846  -20.0675  -56.4350 C.2       21 UNK         0.5000 
    118 O         -0.8248  -20.0034  -57.2047 O.2       21 UNK        -0.5000 
    119 N         -1.9093  -19.2978  -55.3488 N.am      22 UNK        -0.5000 
    120 CA        -0.9167  -18.3163  -54.8874 C.3       22 UNK         0.1400 
    121 C         -1.5906  -16.9628  -54.5367 C.2       22 UNK         0.5000 
    122 N         -2.6367  -16.9550  -53.7215 N.am      22 UNK        -0.7600 
    123 O         -1.1837  -15.9163  -55.0341 O.2       22 UNK        -0.5000 
    124 C124       -0.0856  -18.9027  -53.7173 C.3       23 UNK        -0.0398 
    125 S125        1.3963  -17.9356  -53.2825 S.3       23 UNK        -0.2404 
    126 C126        1.4106  -18.1157  -51.4634 C.3       23 UNK        -0.0205 
    127 H127       -1.5467  -11.8926  -46.6756 H         1 UNK         0.0600 
    128 H128       -1.0829  -10.3503  -45.9559 H         1 UNK         0.0600 
    129 H129       -2.2493  -10.3862  -47.2808 H         1 UNK         0.0600 
    130 H130       -0.4343  -12.6130  -48.5076 H         1 UNK         0.3000 
    131 H131        1.1096  -10.9500  -50.2602 H         1 UNK         0.0600 
    132 H132        1.0304  -13.9958  -49.9273 H         1 UNK         0.0800 
    133 H133        1.8675  -13.1745  -51.2095 H         1 UNK         0.0800 
    134 H134       -2.5943  -14.1481  -51.2931 H         1 UNK         0.0800 
    135 H135       -1.9433  -13.6217  -49.7642 H         1 UNK         0.0800 
    136 H136        0.3369  -15.6468  -51.8762 H         1 UNK         0.1150 
    137 H137       -0.1315  -19.1469  -49.4585 H         1 UNK         0.1150 
    138 H138       -2.7466  -15.8058  -48.8972 H         1 UNK         0.1150 
    139 H139       -1.4433  -18.7171  -47.2757 H         1 UNK         0.0800 
    140 H140       -2.7856  -17.6054  -47.3077 H         1 UNK         0.0800 
    141 H141       -4.4422  -21.1907  -47.1760 H         1 UNK         0.0800 
    142 H142       -3.4997  -20.1249  -46.1682 H         1 UNK         0.0800 
    143 H143       -2.1273  -22.0587  -48.0868 H         1 UNK         0.0600 
    144 H144       -1.1768  -20.4906  -45.8209 H         1 UNK         0.3000 
    145 H145        2.1221  -21.7635  -45.9650 H         1 UNK         0.0600 
    146 H146        2.6708  -19.3787  -46.3457 H         1 UNK         0.0600 
    147 H147        2.0426  -20.0804  -47.8272 H         1 UNK         0.0600 
    148 H148        1.0175  -19.0391  -46.8491 H         1 UNK         0.0600 
    149 H149        0.9232  -19.6524  -44.4473 H         1 UNK         0.3000 
    150 H150       -0.3780  -21.6443  -41.7919 H         1 UNK         0.0600 
    151 H151        2.0061  -19.7187  -41.9672 H         1 UNK         0.0600 
    152 H152        2.0596  -21.3490  -41.3058 H         1 UNK         0.0600 
    153 H153        1.0979  -20.1133  -40.5084 H         1 UNK         0.0600 
    154 H154       -0.2667  -18.8284  -42.2671 H         1 UNK         0.3000 
    155 H155       -2.5156  -18.1050  -44.3053 H         1 UNK         0.0600 
    156 H156       -4.2405  -18.7704  -41.8666 H         1 UNK         0.0600 
    157 H157       -4.5955  -19.1517  -43.5436 H         1 UNK         0.0600 
    158 H158       -4.5715  -17.4764  -43.0191 H         1 UNK         0.0600 
    159 H159       -1.5155  -16.5542  -43.1430 H         1 UNK         0.3000 
    160 H160       -1.5094  -15.3415  -39.9725 H         1 UNK         0.0600 
    161 H161        0.9872  -16.8628  -40.9063 H         1 UNK         0.0600 
    162 H162        0.2210  -17.0244  -39.3304 H         1 UNK         0.0600 
    163 H163        0.9724  -15.5034  -39.7843 H         1 UNK         0.0600 
    164 H164        0.2875  -14.8962  -42.1874 H         1 UNK         0.3000 
    165 H165       -1.9850  -12.9493  -44.1472 H         1 UNK         0.0600 
    166 H166       -0.0079  -11.4285  -44.0601 H         1 UNK         0.0600 
    167 H167       -0.9109  -11.3631  -42.5536 H         1 UNK         0.0600 
    168 H168        0.5965  -12.2677  -42.6365 H         1 UNK         0.0600 
    169 H169        0.6810  -13.7537  -44.6488 H         1 UNK         0.3000 
    170 H170       -0.0416  -16.9159  -46.1924 H         1 UNK         0.0600 
    171 H171        1.2601  -14.3703  -47.2342 H         1 UNK         0.0600 
    172 H172       -0.3111  -14.8937  -47.7899 H         1 UNK         0.0600 
    173 H173        1.0952  -15.9222  -48.0408 H         1 UNK         0.0600 
    174 H174        2.3264  -15.3566  -45.4490 H         1 UNK         0.3000 
    175 H175        3.0057  -17.1102  -42.4979 H         1 UNK         0.0600 
    176 H176        4.4118  -17.5930  -45.1794 H         1 UNK         0.0600 
    177 H177        5.1297  -17.8104  -43.5827 H         1 UNK         0.0600 
    178 H178        3.8049  -18.8414  -44.0968 H         1 UNK         0.0600 
    179 H179        4.5754  -15.3379  -44.1305 H         1 UNK         0.3000 
    180 H180        3.2620  -12.3048  -42.7388 H         1 UNK         0.0600 
    181 H181        5.6717  -11.9962  -42.2964 H         1 UNK         0.0600 
    182 H182        5.9797  -13.7120  -42.5637 H         1 UNK         0.0600 
    183 H183        5.0152  -13.1891  -41.1879 H         1 UNK         0.0600 
    184 H184        5.2425  -12.6343  -44.7103 H         1 UNK         0.3000 
    185 H185        4.4491  -11.4981  -46.8796 H         1 UNK         0.0600 
    186 H186        5.0599  -13.4054  -48.4293 H         1 UNK         0.0600 
    187 H187        5.5695  -13.7759  -46.7965 H         1 UNK         0.0600 
    188 H188        4.1130  -14.5193  -47.4476 H         1 UNK         0.0600 
    189 H189        1.8157  -12.4077  -47.2113 H         1 UNK         0.3000 
    190 H190       -2.2679  -22.3178  -44.5204 H         1 UNK         0.3000 
    191 H191       -3.7827  -24.7006  -44.4049 H         1 UNK         0.0600 
    192 H192       -2.7859  -24.9269  -42.1352 H         1 UNK         0.0600 
    193 H193       -3.2974  -23.2715  -42.4307 H         1 UNK         0.0600 
    194 H194       -1.5894  -23.6950  -42.5143 H         1 UNK         0.0600 
    195 H195       -0.2177  -24.2401  -44.6417 H         1 UNK         0.3000 
    196 H196        0.5171  -26.9701  -44.7044 H         1 UNK         0.0600 
    197 H197        1.9013  -24.5157  -45.9122 H         1 UNK         0.0600 
    198 H198        2.1195  -25.1322  -44.2755 H         1 UNK         0.0600 
    199 H199        2.6605  -26.0823  -45.6509 H         1 UNK         0.0600 
    200 H200       -0.5641  -24.8147  -47.3074 H         1 UNK         0.3000 
    201 H201       -0.0828  -26.7364  -49.4523 H         1 UNK         0.0600 
    202 H202       -1.5866  -24.0707  -49.4082 H         1 UNK         0.0600 
    203 H203       -1.0933  -24.9550  -50.8494 H         1 UNK         0.0600 
    204 H204        0.1232  -24.2677  -49.7880 H         1 UNK         0.0600 
    205 H205       -2.3714  -26.7629  -47.0453 H         1 UNK         0.3000 
    206 H206       -4.3782  -27.6086  -46.6892 H         1 UNK         0.0600 
    207 H207       -3.3570  -29.6726  -47.6692 H         1 UNK         0.0600 
    208 H208       -5.0880  -29.6030  -47.9551 H         1 UNK         0.0600 
    209 H209       -3.9719  -29.2278  -49.2605 H         1 UNK         0.0600 
    210 H210       -4.3370  -25.1252  -47.8236 H         1 UNK         0.3000 
    211 H211       -5.6109  -23.5014  -48.4744 H         1 UNK         0.0600 
    212 H212       -8.0408  -23.6946  -48.6865 H         1 UNK         0.0600 
    213 H213       -7.5045  -24.6741  -47.3323 H         1 UNK         0.0600 
    214 H214       -7.9465  -25.4388  -48.8595 H         1 UNK         0.0600 
    215 H215       -4.4914  -25.7111  -50.6327 H         1 UNK         0.3000 
    216 H216       -5.7991  -24.9595  -53.0547 H         1 UNK         0.0600 
    217 H217       -2.9473  -26.0065  -52.6448 H         1 UNK         0.0600 
    218 H218       -3.8532  -26.0200  -54.1515 H         1 UNK         0.0600 
    219 H219       -4.3879  -27.0108  -52.8016 H         1 UNK         0.0600 
    220 H220       -3.0751  -23.5584  -51.2900 H         1 UNK         0.3000 
    221 H221       -2.1748  -21.7109  -53.2590 H         1 UNK         0.0600 
    222 H222       -0.7348  -22.3630  -51.4046 H         1 UNK         0.0600 
    223 H223       -1.8841  -21.7326  -50.2253 H         1 UNK         0.0600 
    224 H224       -1.0205  -20.6387  -51.2830 H         1 UNK         0.0600 
    225 H225       -5.0757  -21.5970  -51.3318 H         1 UNK         0.3000 
    226 H226       -5.4135  -18.7434  -51.2813 H         1 UNK         0.0600 
    227 H227       -7.5419  -20.9461  -51.2416 H         1 UNK         0.0600 
    228 H228       -6.6898  -20.3418  -49.8185 H         1 UNK         0.0600 
    229 H229       -7.7491  -19.2778  -50.7322 H         1 UNK         0.0600 
    230 H230       -5.7524  -21.1585  -53.7856 H         1 UNK         0.3000 
    231 H231       -6.9528  -19.1770  -55.6838 H         1 UNK         0.0600 
    232 H232       -6.7770  -22.2338  -55.8387 H         1 UNK         0.0600 
    233 H233       -7.4610  -21.1791  -57.0712 H         1 UNK         0.0600 
    234 H234       -8.2288  -21.2958  -55.4951 H         1 UNK         0.0600 
    235 H235       -4.3179  -21.6030  -55.2354 H         1 UNK         0.3000 
    236 H236       -3.1262  -21.0357  -57.7808 H         1 UNK         0.0600 
    237 H237       -3.1192  -23.2774  -56.7027 H         1 UNK         0.0600 
    238 H238       -1.4853  -22.7414  -57.0575 H         1 UNK         0.0600 
    239 H239       -2.0894  -22.6708  -55.4086 H         1 UNK         0.0600 
    240 H240       -2.7368  -19.3822  -54.7725 H         1 UNK         0.3000 
    241 H241       -0.2236  -18.1034  -55.7037 H         1 UNK         0.0600 
    242 H242       -3.0837  -16.0822  -53.4965 H         1 UNK         0.3800 
    243 H243       -2.9361  -17.8140  -53.2622 H         1 UNK         0.3800 
    244 H244        0.2505  -19.9094  -53.9690 H         1 UNK         0.0800 
    245 H245       -0.7129  -19.0087  -52.8353 H         1 UNK         0.0800 
    246 H246        1.4692  -19.1779  -51.2206 H         1 UNK         0.0800 
    247 H247        2.3231  -17.6611  -51.0761 H         1 UNK         0.0800 
@<TRIPOS>BOND
     1    1    2 1    
     2    1  127 1    
     3    1  128 1    
     4    1  129 1    
     5    2    3 2    
     6    2    4 am   BACKBONE|DICT|INTERRES
     7    4    5 1    
     8    4  130 1    
     9    5    6 1    
    10    5   65 1    
    11    5  131 1    
    12    6    7 1    
    13    6  132 1    
    14    6  133 1    
    15    7    8 1    
    16    8    9 1    
    17    8  134 1    
    18    8  135 1    
    19    9   10 ar   
    20    9   14 ar   
    21   10   11 ar   
    22   10  136 1    
    23   11   12 ar   
    24   11  126 1    
    25   12   13 ar   
    26   12  137 1    
    27   13   14 ar   
    28   13   15 1    
    29   14  138 1    
    30   15   16 1    
    31   15  139 1    
    32   15  140 1    
    33   16   17 1    
    34   17   18 1    
    35   17  141 1    
    36   17  142 1    
    37   18   19 1    
    38   18   67 1    
    39   18  143 1    
    40   19   20 am   BACKBONE|DICT|INTERRES
    41   19  144 1    
    42   20   21 2    
    43   20   22 1    
    44   22   23 1    
    45   22   24 1    
    46   22  145 1    
    47   23  146 1    
    48   23  147 1    
    49   23  148 1    
    50   24   25 am   BACKBONE|DICT|INTERRES
    51   24  149 1    
    52   25   26 2    
    53   25   27 1    
    54   27   28 1    
    55   27   29 1    
    56   27  150 1    
    57   28  151 1    
    58   28  152 1    
    59   28  153 1    
    60   29   30 am   BACKBONE|DICT|INTERRES
    61   29  154 1    
    62   30   31 2    
    63   30   32 1    
    64   32   33 1    
    65   32   34 1    
    66   32  155 1    
    67   33  156 1    
    68   33  157 1    
    69   33  158 1    
    70   34   35 am   BACKBONE|DICT|INTERRES
    71   34  159 1    
    72   35   36 2    
    73   35   37 1    
    74   37   38 1    
    75   37   39 1    
    76   37  160 1    
    77   38  161 1    
    78   38  162 1    
    79   38  163 1    
    80   39   40 am   BACKBONE|DICT|INTERRES
    81   39  164 1    
    82   40   41 2    
    83   40   42 1    
    84   42   43 1    
    85   42   44 1    
    86   42  165 1    
    87   43  166 1    
    88   43  167 1    
    89   43  168 1    
    90   44   45 am   BACKBONE|DICT|INTERRES
    91   44  169 1    
    92   45   46 2    
    93   45   47 1    
    94   47   48 1    
    95   47   49 1    
    96   47  170 1    
    97   48  171 1    
    98   48  172 1    
    99   48  173 1    
   100   49   50 am   BACKBONE|DICT|INTERRES
   101   49  174 1    
   102   50   51 2    
   103   50   52 1    
   104   52   53 1    
   105   52   54 1    
   106   52  175 1    
   107   53  176 1    
   108   53  177 1    
   109   53  178 1    
   110   54   55 am   BACKBONE|DICT|INTERRES
   111   54  179 1    
   112   55   56 2    
   113   55   57 1    
   114   57   58 1    
   115   57   59 1    
   116   57  180 1    
   117   58  181 1    
   118   58  182 1    
   119   58  183 1    
   120   59   60 am   BACKBONE|DICT|INTERRES
   121   59  184 1    
   122   60   61 2    
   123   60   62 1    
   124   62   63 1    
   125   62   64 1    
   126   62  185 1    
   127   63  186 1    
   128   63  187 1    
   129   63  188 1    
   130   64   65 am   BACKBONE|DICT|INTERRES
   131   64  189 1    
   132   65   66 2    
   133   67   68 2    
   134   67   69 am   BACKBONE|DICT|INTERRES
   135   69   70 1    
   136   69  190 1    
   137   70   71 1    
   138   70   72 1    
   139   70  191 1    
   140   71  192 1    
   141   71  193 1    
   142   71  194 1    
   143   72   73 2    
   144   72   74 am   BACKBONE|DICT|INTERRES
   145   74   75 1    
   146   74  195 1    
   147   75   76 1    
   148   75   77 1    
   149   75  196 1    
   150   76  197 1    
   151   76  198 1    
   152   76  199 1    
   153   77   78 2    
   154   77   79 am   BACKBONE|DICT|INTERRES
   155   79   80 1    
   156   79  200 1    
   157   80   81 1    
   158   80   82 1    
   159   80  201 1    
   160   81  202 1    
   161   81  203 1    
   162   81  204 1    
   163   82   83 2    
   164   82   84 am   BACKBONE|DICT|INTERRES
   165   84   85 1    
   166   84  205 1    
   167   85   86 1    
   168   85   87 1    
   169   85  206 1    
   170   86  207 1    
   171   86  208 1    
   172   86  209 1    
   173   87   88 2    
   174   87   89 am   BACKBONE|DICT|INTERRES
   175   89   90 1    
   176   89  210 1    
   177   90   91 1    
   178   90   92 1    
   179   90  211 1    
   180   91  212 1    
   181   91  213 1    
   182   91  214 1    
   183   92   93 2    
   184   92   94 am   BACKBONE|DICT|INTERRES
   185   94   95 1    
   186   94  215 1    
   187   95   96 1    
   188   95   97 1    
   189   95  216 1    
   190   96  217 1    
   191   96  218 1    
   192   96  219 1    
   193   97   98 2    
   194   97   99 am   BACKBONE|DICT|INTERRES
   195   99  100 1    
   196   99  220 1    
   197  100  101 1    
   198  100  102 1    
   199  100  221 1    
   200  101  222 1    
   201  101  223 1    
   202  101  224 1    
   203  102  103 2    
   204  102  104 am   BACKBONE|DICT|INTERRES
   205  104  105 1    
   206  104  225 1    
   207  105  106 1    
   208  105  107 1    
   209  105  226 1    
   210  106  227 1    
   211  106  228 1    
   212  106  229 1    
   213  107  108 2    
   214  107  109 am   BACKBONE|DICT|INTERRES
   215  109  110 1    
   216  109  230 1    
   217  110  111 1    
   218  110  112 1    
   219  110  231 1    
   220  111  232 1    
   221  111  233 1    
   222  111  234 1    
   223  112  113 2    
   224  112  114 am   BACKBONE|DICT|INTERRES
   225  114  115 1    
   226  114  235 1    
   227  115  116 1    
   228  115  117 1    
   229  115  236 1    
   230  116  237 1    
   231  116  238 1    
   232  116  239 1    
   233  117  118 2    
   234  117  119 am   BACKBONE|DICT|INTERRES
   235  119  120 1    
   236  119  240 1    
   237  120  121 1    
   238  120  124 1    
   239  120  241 1    
   240  121  122 am   BACKBONE|DICT|INTERRES
   241  121  123 2    
   242  122  242 1    
   243  122  243 1    
   244  124  125 1    
   245  124  244 1    
   246  124  245 1    
   247  125  126 1    
   248  126  246 1    
   249  126  247 1    
@<TRIPOS>SUBSTRUCTURE
     1 UNK         1 GROUP             0       ****    0 ROOT    
