@<TRIPOS>MOLECULE
3R540
247   249    1
SMALL
USER_CHARGES


@<TRIPOS>ATOM
      1 CA         -1.9469  -18.1555  -50.6221 C.3       0 UNK        -0.1800 
      2 C          -2.0477  -16.6997  -50.1959 C.2       0 UNK         0.5000 
      3 O          -2.8922  -15.9730  -50.7176 O.2       0 UNK        -0.5000 
      4 N          -1.1938  -16.2812  -49.2545 N.am      1 UNK        -0.5000 
      5 CA         -1.1851  -14.9416  -48.6614 C.3       1 UNK         0.1400 
      6 C6          0.2539  -14.4899  -48.2867 C.3       23 UNK        -0.0398 
      7 S7          1.2381  -14.0917  -49.7688 S.3       23 UNK        -0.2404 
      8 C8          2.8645  -14.8172  -49.3772 C.3       23 UNK        -0.0205 
      9 C9          2.9802  -16.2869  -49.7638 C.ar      23 UNK        -0.0193 
     10 C10         2.6716  -16.7019  -51.0637 C.ar      23 UNK        -0.1150 
     11 C11         2.8266  -18.0377  -51.4410 C.ar      23 UNK        -0.0193 
     12 C12         3.3253  -18.9580  -50.5172 C.ar      23 UNK        -0.1150 
     13 C13         3.6191  -18.5653  -49.2067 C.ar      23 UNK        -0.0193 
     14 C14         3.4453  -17.2266  -48.8379 C.ar      23 UNK        -0.1150 
     15 C15         4.1125  -19.5837  -48.1820 C.3       23 UNK        -0.0205 
     16 S16         3.1014  -21.1036  -48.1256 S.3       23 UNK        -0.2404 
     17 C17         1.4218  -20.4037  -48.0328 C.3       23 UNK        -0.0398 
     18 CA          0.3870  -21.4079  -47.4837 C.3       11 UNK         0.1400 
     19 N           0.5692  -21.6949  -46.0576 N.am      11 UNK        -0.5000 
     20 C          -0.1271  -22.6132  -45.3719 C.2       10 UNK         0.5000 
     21 O          -0.9638  -23.3588  -45.8794 O.2       10 UNK        -0.5000 
     22 CA          0.0940  -22.6646  -43.8507 C.3       10 UNK         0.1400 
     23 CB          1.3896  -23.4105  -43.4985 C.3       10 UNK        -0.1800 
     24 N           0.1010  -21.3322  -43.2484 N.am      10 UNK        -0.5000 
     25 C          -0.9462  -20.4936  -43.2555 C.2       9 UNK         0.5000 
     26 O          -2.0475  -20.7736  -43.7305 O.2       9 UNK        -0.5000 
     27 CA         -0.7082  -19.0950  -42.6608 C.3       9 UNK         0.1400 
     28 CB         -0.7253  -19.1703  -41.1238 C.3       9 UNK        -0.1800 
     29 N           0.5521  -18.5056  -43.1182 N.am      9 UNK        -0.5000 
     30 C           0.8544  -18.2163  -44.3935 C.2       8 UNK         0.5000 
     31 O           0.0691  -18.3481  -45.3307 O.2       8 UNK        -0.5000 
     32 CA          2.3021  -17.7809  -44.6890 C.3       8 UNK         0.1400 
     33 CB          2.5022  -16.2718  -44.4977 C.3       8 UNK        -0.1800 
     34 N           3.2755  -18.5094  -43.8776 N.am      8 UNK        -0.5000 
     35 C           3.5317  -19.8181  -44.0063 C.2       7 UNK         0.5000 
     36 O           2.9779  -20.5429  -44.8305 O.2       7 UNK        -0.5000 
     37 CA          4.5428  -20.4206  -43.0160 C.3       7 UNK         0.1400 
     38 CB          5.9825  -20.1311  -43.4662 C.3       7 UNK        -0.1800 
     39 N           4.3441  -19.9193  -41.6553 N.am      7 UNK        -0.5000 
     40 C           3.2714  -20.2002  -40.9022 C.2       6 UNK         0.5000 
     41 O           2.3636  -20.9506  -41.2607 O.2       6 UNK        -0.5000 
     42 CA          3.1758  -19.4820  -39.5419 C.3       6 UNK         0.1400 
     43 CB          3.9581  -20.2518  -38.4675 C.3       6 UNK        -0.1800 
     44 N           3.6385  -18.0891  -39.5799 N.am      6 UNK        -0.5000 
     45 C           3.0787  -17.1300  -40.3276 C.2       5 UNK         0.5000 
     46 O           2.1342  -17.3311  -41.0964 O.2       5 UNK        -0.5000 
     47 CA          3.6828  -15.7220  -40.2326 C.3       5 UNK         0.1400 
     48 CB          5.0044  -15.6318  -41.0152 C.3       5 UNK        -0.1800 
     49 N           2.7104  -14.8014  -40.8034 N.am      5 UNK        -0.5000 
     50 C           2.5600  -13.5012  -40.5357 C.2       4 UNK         0.5000 
     51 O           3.3011  -12.8644  -39.7862 O.2       4 UNK        -0.5000 
     52 CA          1.3693  -12.7970  -41.2201 C.3       4 UNK         0.1400 
     53 CB          1.8440  -12.0220  -42.4588 C.3       4 UNK        -0.1800 
     54 N           0.3253  -13.7393  -41.6315 N.am      4 UNK        -0.5000 
     55 C          -0.5531  -14.3317  -40.8150 C.2       3 UNK         0.5000 
     56 O          -0.6652  -14.0443  -39.6222 O.2       3 UNK        -0.5000 
     57 CA         -1.4263  -15.4464  -41.4371 C.3       3 UNK         0.1400 
     58 CB         -2.4546  -16.0240  -40.4480 C.3       3 UNK        -0.1800 
     59 N          -2.1247  -15.0586  -42.6661 N.am      3 UNK        -0.5000 
     60 C          -1.5554  -14.8903  -43.8644 C.2       2 UNK         0.5000 
     61 O          -0.3393  -14.9688  -44.0566 O.2       2 UNK        -0.5000 
     62 CA         -2.4881  -14.5600  -45.0361 C.3       2 UNK         0.1400 
     63 CB         -3.0677  -13.1394  -44.9067 C.3       2 UNK        -0.1800 
     64 N          -1.7113  -14.6669  -46.2650 N.am      2 UNK        -0.5000 
     65 C          -2.1951  -14.8901  -47.4902 C.2       1 UNK         0.5000 
     66 O          -3.3974  -15.0410  -47.7147 O.2       1 UNK        -0.5000 
     67 C          -1.0376  -20.9148  -47.7988 C.2       11 UNK         0.5000 
     68 O          -1.6457  -21.4169  -48.7428 O.2       11 UNK        -0.5000 
     69 N          -1.5541  -19.9693  -46.9986 N.am      12 UNK        -0.5000 
     70 CA         -2.9077  -19.4236  -47.1177 C.3       12 UNK         0.1400 
     71 CB         -3.1253  -18.3187  -46.0741 C.3       12 UNK        -0.1800 
     72 C          -3.9982  -20.5016  -47.0141 C.2       12 UNK         0.5000 
     73 O          -4.9295  -20.4953  -47.8196 O.2       12 UNK        -0.5000 
     74 N          -3.8331  -21.4262  -46.0595 N.am      13 UNK        -0.5000 
     75 CA         -4.6956  -22.5898  -45.8782 C.3       13 UNK         0.1400 
     76 CB         -4.3837  -23.2514  -44.5268 C.3       13 UNK        -0.1800 
     77 C          -4.5736  -23.6022  -47.0324 C.2       13 UNK         0.5000 
     78 O          -5.5945  -24.0072  -47.5887 O.2       13 UNK        -0.5000 
     79 N          -3.3357  -23.9871  -47.3754 N.am      14 UNK        -0.5000 
     80 CA         -3.0275  -25.0076  -48.3807 C.3       14 UNK         0.1400 
     81 CB         -1.5325  -25.3564  -48.3201 C.3       14 UNK        -0.1800 
     82 C          -3.4267  -24.6091  -49.8117 C.2       14 UNK         0.5000 
     83 O          -3.9872  -25.4322  -50.5361 O.2       14 UNK        -0.5000 
     84 N          -3.1426  -23.3567  -50.1893 N.am      15 UNK        -0.5000 
     85 CA         -3.4610  -22.8012  -51.5050 C.3       15 UNK         0.1400 
     86 CB         -2.4258  -21.7218  -51.8503 C.3       15 UNK        -0.1800 
     87 C          -4.8874  -22.2264  -51.5829 C.2       15 UNK         0.5000 
     88 O          -5.2884  -21.7866  -52.6609 O.2       15 UNK        -0.5000 
     89 N          -5.6144  -22.2098  -50.4542 N.am      16 UNK        -0.5000 
     90 CA         -6.9783  -21.6984  -50.2791 C.3       16 UNK         0.1400 
     91 CB         -7.9860  -22.6010  -51.0218 C.3       16 UNK        -0.1800 
     92 C          -7.0905  -20.2145  -50.6822 C.2       16 UNK         0.5000 
     93 O          -7.9031  -19.8616  -51.5363 O.2       16 UNK        -0.5000 
     94 N          -6.2080  -19.3820  -50.1106 N.am      17 UNK        -0.5000 
     95 CA         -6.0063  -17.9618  -50.4369 C.3       17 UNK         0.1400 
     96 CB         -7.2087  -17.1194  -49.9641 C.3       17 UNK        -0.1800 
     97 C          -5.6571  -17.7367  -51.9282 C.2       17 UNK         0.5000 
     98 O          -6.1148  -16.7702  -52.5397 O.2       17 UNK        -0.5000 
     99 N          -4.8741  -18.6762  -52.4790 N.am      18 UNK        -0.5000 
    100 CA        -4.4168  -18.7964  -53.8663 C.3       18 UNK         0.1400 
    101 CB        -3.6607  -17.5363  -54.3355 C.3       18 UNK        -0.1800 
    102 C         -5.5046  -19.2370  -54.8680 C.2       18 UNK         0.5000 
    103 O         -5.2095  -19.3088  -56.0618 O.2       18 UNK        -0.5000 
    104 N         -6.7147  -19.5834  -54.4004 N.am      19 UNK        -0.5000 
    105 CA        -7.8063  -20.0851  -55.2431 C.3       19 UNK         0.1400 
    106 CB        -9.1218  -20.0861  -54.4516 C.3       19 UNK        -0.1800 
    107 C         -7.5321  -21.4852  -55.8267 C.2       19 UNK         0.5000 
    108 O         -8.0350  -21.7946  -56.9072 O.2       19 UNK        -0.5000 
    109 N         -6.7205  -22.2905  -55.1271 N.am      20 UNK        -0.5000 
    110 CA        -6.2477  -23.6028  -55.5764 C.3       20 UNK         0.1400 
    111 CB        -6.2447  -24.5667  -54.3768 C.3       20 UNK        -0.1800 
    112 C         -4.8545  -23.5231  -56.2398 C.2       20 UNK         0.5000 
    113 O         -4.2566  -24.5696  -56.4937 O.2       20 UNK        -0.5000 
    114 N         -4.3785  -22.2954  -56.5066 N.am      21 UNK        -0.5000 
    115 CA        -3.0550  -21.8879  -56.9897 C.3       21 UNK         0.1400 
    116 CB        -2.6369  -22.6309  -58.2734 C.3       21 UNK        -0.1800 
    117 C         -1.9793  -21.9902  -55.8922 C.2       21 UNK         0.5000 
    118 O         -1.9221  -22.9778  -55.1570 O.2       21 UNK        -0.5000 
    119 N         -1.1462  -20.9481  -55.7970 N.am      22 UNK        -0.5000 
    120 CA        -0.0310  -20.8595  -54.8433 C.3       22 UNK         0.1400 
    121 C          1.2072  -21.6928  -55.2778 C.2       22 UNK         0.5000 
    122 N          2.0397  -22.1102  -54.3342 N.am      22 UNK        -0.7600 
    123 O          1.4400  -21.9353  -56.4603 O.2       22 UNK        -0.5000 
    124 C124        0.3380  -19.3796  -54.5520 C.3       23 UNK        -0.0398 
    125 S125        0.7060  -19.1095  -52.7884 S.3       23 UNK        -0.2404 
    126 C126        2.4148  -18.4949  -52.8303 C.3       23 UNK        -0.0205 
    127 H127       -1.1004  -18.6626  -50.1578 H         1 UNK         0.0600 
    128 H128       -1.8332  -18.2198  -51.7028 H         1 UNK         0.0600 
    129 H129       -2.8571  -18.6875  -50.3522 H         1 UNK         0.0600 
    130 H130       -0.5226  -16.9307  -48.8729 H         1 UNK         0.3000 
    131 H131       -1.5631  -14.2265  -49.3957 H         1 UNK         0.0600 
    132 H132        0.7600  -15.2528  -47.6921 H         1 UNK         0.0800 
    133 H133        0.2379  -13.5794  -47.6851 H         1 UNK         0.0800 
    134 H134        3.0861  -14.6664  -48.3195 H         1 UNK         0.0800 
    135 H135        3.6266  -14.2638  -49.9273 H         1 UNK         0.0800 
    136 H136        2.2991  -15.9840  -51.7809 H         1 UNK         0.1150 
    137 H137        3.4466  -19.9920  -50.8081 H         1 UNK         0.1150 
    138 H138        3.6853  -16.9125  -47.8318 H         1 UNK         0.1150 
    139 H139        5.1420  -19.8535  -48.4196 H         1 UNK         0.0800 
    140 H140        4.1319  -19.1474  -47.1826 H         1 UNK         0.0800 
    141 H141        1.1516  -20.0898  -49.0434 H         1 UNK         0.0800 
    142 H142        1.4382  -19.4991  -47.4237 H         1 UNK         0.0800 
    143 H143        0.5160  -22.3508  -48.0194 H         1 UNK         0.0600 
    144 H144        1.2857  -21.1599  -45.5742 H         1 UNK         0.3000 
    145 H145       -0.7405  -23.2180  -43.4149 H         1 UNK         0.0600 
    146 H146        1.5123  -23.4975  -42.4187 H         1 UNK         0.0600 
    147 H147        2.2706  -22.9062  -43.8942 H         1 UNK         0.0600 
    148 H148        1.3796  -24.4213  -43.9079 H         1 UNK         0.0600 
    149 H149        0.9616  -21.0387  -42.7990 H         1 UNK         0.3000 
    150 H150       -1.5181  -18.4392  -42.9868 H         1 UNK         0.0600 
    151 H151       -1.7145  -19.4543  -40.7632 H         1 UNK         0.0600 
    152 H152       -0.4712  -18.2189  -40.6611 H         1 UNK         0.0600 
    153 H153       -0.0191  -19.9088  -40.7456 H         1 UNK         0.0600 
    154 H154        1.2454  -18.3055  -42.4020 H         1 UNK         0.3000 
    155 H155        2.5051  -18.0100  -45.7365 H         1 UNK         0.0600 
    156 H156        1.8890  -15.7110  -45.2031 H         1 UNK         0.0600 
    157 H157        3.5382  -15.9826  -44.6746 H         1 UNK         0.0600 
    158 H158        2.2297  -15.9504  -43.4928 H         1 UNK         0.0600 
    159 H159        3.7323  -17.9948  -43.1408 H         1 UNK         0.3000 
    160 H160        4.3984  -21.5032  -43.0080 H         1 UNK         0.0600 
    161 H161        6.1994  -19.0621  -43.4692 H         1 UNK         0.0600 
    162 H162        6.1569  -20.5044  -44.4764 H         1 UNK         0.0600 
    163 H163        6.7052  -20.6185  -42.8115 H         1 UNK         0.0600 
    164 H164        5.0460  -19.2957  -41.2854 H         1 UNK         0.3000 
    165 H165        2.1226  -19.4725  -39.2528 H         1 UNK         0.0600 
    166 H166        3.8170  -19.8070  -37.4823 H         1 UNK         0.0600 
    167 H167        3.6207  -21.2874  -38.4060 H         1 UNK         0.0600 
    168 H168        5.0278  -20.2668  -38.6798 H         1 UNK         0.0600 
    169 H169        4.4145  -17.8547  -38.9775 H         1 UNK         0.3000 
    170 H170        3.8476  -15.4793  -39.1810 H         1 UNK         0.0600 
    171 H171        4.8648  -15.8748  -42.0694 H         1 UNK         0.0600 
    172 H172        5.4274  -14.6287  -40.9588 H         1 UNK         0.0600 
    173 H173        5.7494  -16.3191  -40.6130 H         1 UNK         0.0600 
    174 H174        2.0196  -15.2619  -41.3820 H         1 UNK         0.3000 
    175 H175        0.9444  -12.0867  -40.5079 H         1 UNK         0.0600 
    176 H176        2.2698  -12.6880  -43.2106 H         1 UNK         0.0600 
    177 H177        1.0212  -11.4768  -42.9216 H         1 UNK         0.0600 
    178 H178        2.6097  -11.2917  -42.1938 H         1 UNK         0.0600 
    179 H179        0.3258  -14.0362  -42.6046 H         1 UNK         0.3000 
    180 H180       -0.7328  -16.2458  -41.6985 H         1 UNK         0.0600 
    181 H181       -3.1884  -15.2748  -40.1487 H         1 UNK         0.0600 
    182 H182       -1.9683  -16.3896  -39.5426 H         1 UNK         0.0600 
    183 H183       -2.9920  -16.8660  -40.8848 H         1 UNK         0.0600 
    184 H184       -3.1226  -14.9292  -42.5816 H         1 UNK         0.3000 
    185 H185       -3.2963  -15.2941  -45.0477 H         1 UNK         0.0600 
    186 H186       -2.2791  -12.3864  -44.8767 H         1 UNK         0.0600 
    187 H187       -3.7239  -12.9019  -45.7441 H         1 UNK         0.0600 
    188 H188       -3.6588  -13.0338  -43.9965 H         1 UNK         0.0600 
    189 H189       -0.7129  -14.6305  -46.1014 H         1 UNK         0.3000 
    190 H190       -0.9736  -19.5716  -46.2635 H         1 UNK         0.3000 
    191 H191       -2.9912  -18.9674  -48.1027 H         1 UNK         0.0600 
    192 H192       -2.3694  -17.5405  -46.1652 H         1 UNK         0.0600 
    193 H193       -3.0825  -18.7051  -45.0563 H         1 UNK         0.0600 
    194 H194       -4.0981  -17.8435  -46.2062 H         1 UNK         0.0600 
    195 H195       -3.0514  -21.3300  -45.4187 H         1 UNK         0.3000 
    196 H196       -5.7299  -22.2403  -45.8504 H         1 UNK         0.0600 
    197 H197       -4.5526  -22.5582  -43.7024 H         1 UNK         0.0600 
    198 H198       -3.3480  -23.5878  -44.4697 H         1 UNK         0.0600 
    199 H199       -5.0223  -24.1195  -44.3593 H         1 UNK         0.0600 
    200 H200       -2.5421  -23.6136  -46.8592 H         1 UNK         0.3000 
    201 H201       -3.5917  -25.9058  -48.1214 H         1 UNK         0.0600 
    202 H202       -1.2580  -25.7435  -47.3387 H         1 UNK         0.0600 
    203 H203       -0.9087  -24.4849  -48.5226 H         1 UNK         0.0600 
    204 H204       -1.2776  -26.1220  -49.0540 H         1 UNK         0.0600 
    205 H205       -2.6611  -22.7338  -49.5422 H         1 UNK         0.3000 
    206 H206       -3.3844  -23.5877  -52.2589 H         1 UNK         0.0600 
    207 H207       -1.4097  -22.1094  -51.7752 H         1 UNK         0.0600 
    208 H208       -2.5055  -20.8629  -51.1869 H         1 UNK         0.0600 
    209 H209       -2.5618  -21.3656  -52.8703 H         1 UNK         0.0600 
    210 H210       -5.1816  -22.5764  -49.6172 H         1 UNK         0.3000 
    211 H211       -7.2005  -21.7533  -49.2124 H         1 UNK         0.0600 
    212 H212       -7.8353  -22.5784  -52.1017 H         1 UNK         0.0600 
    213 H213       -9.0109  -22.2824  -50.8286 H         1 UNK         0.0600 
    214 H214       -7.8999  -23.6371  -50.6945 H         1 UNK         0.0600 
    215 H215       -5.6138  -19.7661  -49.3777 H         1 UNK         0.3000 
    216 H216       -5.1357  -17.6359  -49.8663 H         1 UNK         0.0600 
    217 H217       -7.0083  -16.0540  -50.0824 H         1 UNK         0.0600 
    218 H218       -7.4204  -17.2935  -48.9091 H         1 UNK         0.0600 
    219 H219       -8.1121  -17.3476  -50.5305 H         1 UNK         0.0600 
    220 H220       -4.6376  -19.4631  -51.8930 H         1 UNK         0.3000 
    221 H221       -3.6925  -19.6104  -53.8591 H         1 UNK         0.0600 
    222 H222       -4.3321  -16.6898  -54.4799 H         1 UNK         0.0600 
    223 H223       -2.8965  -17.2391  -53.6180 H         1 UNK         0.0600 
    224 H224       -3.1577  -17.7151  -55.2865 H         1 UNK         0.0600 
    225 H225       -6.8930  -19.5463  -53.4029 H         1 UNK         0.3000 
    226 H226       -7.9213  -19.3950  -56.0816 H         1 UNK         0.0600 
    227 H227       -9.3191  -19.1109  -54.0058 H         1 UNK         0.0600 
    228 H228       -9.9649  -20.3249  -55.1008 H         1 UNK         0.0600 
    229 H229       -9.1091  -20.8271  -53.6518 H         1 UNK         0.0600 
    230 H230       -6.3294  -21.9576  -54.2480 H         1 UNK         0.3000 
    231 H231       -6.9344  -24.0073  -56.3225 H         1 UNK         0.0600 
    232 H232       -6.0427  -25.5889  -54.6984 H         1 UNK         0.0600 
    233 H233       -7.2092  -24.5719  -53.8688 H         1 UNK         0.0600 
    234 H234       -5.4813  -24.3011  -53.6463 H         1 UNK         0.0600 
    235 H235       -4.9779  -21.5188  -56.2580 H         1 UNK         0.3000 
    236 H236       -3.1649  -20.8340  -57.2501 H         1 UNK         0.0600 
    237 H237       -2.4107  -23.6806  -58.0852 H         1 UNK         0.0600 
    238 H238       -3.4184  -22.5835  -59.0318 H         1 UNK         0.0600 
    239 H239       -1.7394  -22.1830  -58.7014 H         1 UNK         0.0600 
    240 H240       -1.2160  -20.1985  -56.4694 H         1 UNK         0.3000 
    241 H241       -0.3912  -21.3091  -53.9167 H         1 UNK         0.0600 
    242 H242        2.8538  -22.6427  -54.5989 H         1 UNK         0.3800 
    243 H243        1.8744  -21.9061  -53.3610 H         1 UNK         0.3800 
    244 H244       -0.5021  -18.7227  -54.7833 H         1 UNK         0.0800 
    245 H245        1.1606  -19.0309  -55.1795 H         1 UNK         0.0800 
    246 H246        2.4928  -17.6683  -53.5381 H         1 UNK         0.0800 
    247 H247        3.0820  -19.2810  -53.1870 H         1 UNK         0.0800 
@<TRIPOS>BOND
     1    1    2 1    
     2    1  127 1    
     3    1  128 1    
     4    1  129 1    
     5    2    3 2    
     6    2    4 am   BACKBONE|DICT|INTERRES
     7    4    5 1    
     8    4  130 1    
     9    5    6 1    
    10    5   65 1    
    11    5  131 1    
    12    6    7 1    
    13    6  132 1    
    14    6  133 1    
    15    7    8 1    
    16    8    9 1    
    17    8  134 1    
    18    8  135 1    
    19    9   10 ar   
    20    9   14 ar   
    21   10   11 ar   
    22   10  136 1    
    23   11   12 ar   
    24   11  126 1    
    25   12   13 ar   
    26   12  137 1    
    27   13   14 ar   
    28   13   15 1    
    29   14  138 1    
    30   15   16 1    
    31   15  139 1    
    32   15  140 1    
    33   16   17 1    
    34   17   18 1    
    35   17  141 1    
    36   17  142 1    
    37   18   19 1    
    38   18   67 1    
    39   18  143 1    
    40   19   20 am   BACKBONE|DICT|INTERRES
    41   19  144 1    
    42   20   21 2    
    43   20   22 1    
    44   22   23 1    
    45   22   24 1    
    46   22  145 1    
    47   23  146 1    
    48   23  147 1    
    49   23  148 1    
    50   24   25 am   BACKBONE|DICT|INTERRES
    51   24  149 1    
    52   25   26 2    
    53   25   27 1    
    54   27   28 1    
    55   27   29 1    
    56   27  150 1    
    57   28  151 1    
    58   28  152 1    
    59   28  153 1    
    60   29   30 am   BACKBONE|DICT|INTERRES
    61   29  154 1    
    62   30   31 2    
    63   30   32 1    
    64   32   33 1    
    65   32   34 1    
    66   32  155 1    
    67   33  156 1    
    68   33  157 1    
    69   33  158 1    
    70   34   35 am   BACKBONE|DICT|INTERRES
    71   34  159 1    
    72   35   36 2    
    73   35   37 1    
    74   37   38 1    
    75   37   39 1    
    76   37  160 1    
    77   38  161 1    
    78   38  162 1    
    79   38  163 1    
    80   39   40 am   BACKBONE|DICT|INTERRES
    81   39  164 1    
    82   40   41 2    
    83   40   42 1    
    84   42   43 1    
    85   42   44 1    
    86   42  165 1    
    87   43  166 1    
    88   43  167 1    
    89   43  168 1    
    90   44   45 am   BACKBONE|DICT|INTERRES
    91   44  169 1    
    92   45   46 2    
    93   45   47 1    
    94   47   48 1    
    95   47   49 1    
    96   47  170 1    
    97   48  171 1    
    98   48  172 1    
    99   48  173 1    
   100   49   50 am   BACKBONE|DICT|INTERRES
   101   49  174 1    
   102   50   51 2    
   103   50   52 1    
   104   52   53 1    
   105   52   54 1    
   106   52  175 1    
   107   53  176 1    
   108   53  177 1    
   109   53  178 1    
   110   54   55 am   BACKBONE|DICT|INTERRES
   111   54  179 1    
   112   55   56 2    
   113   55   57 1    
   114   57   58 1    
   115   57   59 1    
   116   57  180 1    
   117   58  181 1    
   118   58  182 1    
   119   58  183 1    
   120   59   60 am   BACKBONE|DICT|INTERRES
   121   59  184 1    
   122   60   61 2    
   123   60   62 1    
   124   62   63 1    
   125   62   64 1    
   126   62  185 1    
   127   63  186 1    
   128   63  187 1    
   129   63  188 1    
   130   64   65 am   BACKBONE|DICT|INTERRES
   131   64  189 1    
   132   65   66 2    
   133   67   68 2    
   134   67   69 am   BACKBONE|DICT|INTERRES
   135   69   70 1    
   136   69  190 1    
   137   70   71 1    
   138   70   72 1    
   139   70  191 1    
   140   71  192 1    
   141   71  193 1    
   142   71  194 1    
   143   72   73 2    
   144   72   74 am   BACKBONE|DICT|INTERRES
   145   74   75 1    
   146   74  195 1    
   147   75   76 1    
   148   75   77 1    
   149   75  196 1    
   150   76  197 1    
   151   76  198 1    
   152   76  199 1    
   153   77   78 2    
   154   77   79 am   BACKBONE|DICT|INTERRES
   155   79   80 1    
   156   79  200 1    
   157   80   81 1    
   158   80   82 1    
   159   80  201 1    
   160   81  202 1    
   161   81  203 1    
   162   81  204 1    
   163   82   83 2    
   164   82   84 am   BACKBONE|DICT|INTERRES
   165   84   85 1    
   166   84  205 1    
   167   85   86 1    
   168   85   87 1    
   169   85  206 1    
   170   86  207 1    
   171   86  208 1    
   172   86  209 1    
   173   87   88 2    
   174   87   89 am   BACKBONE|DICT|INTERRES
   175   89   90 1    
   176   89  210 1    
   177   90   91 1    
   178   90   92 1    
   179   90  211 1    
   180   91  212 1    
   181   91  213 1    
   182   91  214 1    
   183   92   93 2    
   184   92   94 am   BACKBONE|DICT|INTERRES
   185   94   95 1    
   186   94  215 1    
   187   95   96 1    
   188   95   97 1    
   189   95  216 1    
   190   96  217 1    
   191   96  218 1    
   192   96  219 1    
   193   97   98 2    
   194   97   99 am   BACKBONE|DICT|INTERRES
   195   99  100 1    
   196   99  220 1    
   197  100  101 1    
   198  100  102 1    
   199  100  221 1    
   200  101  222 1    
   201  101  223 1    
   202  101  224 1    
   203  102  103 2    
   204  102  104 am   BACKBONE|DICT|INTERRES
   205  104  105 1    
   206  104  225 1    
   207  105  106 1    
   208  105  107 1    
   209  105  226 1    
   210  106  227 1    
   211  106  228 1    
   212  106  229 1    
   213  107  108 2    
   214  107  109 am   BACKBONE|DICT|INTERRES
   215  109  110 1    
   216  109  230 1    
   217  110  111 1    
   218  110  112 1    
   219  110  231 1    
   220  111  232 1    
   221  111  233 1    
   222  111  234 1    
   223  112  113 2    
   224  112  114 am   BACKBONE|DICT|INTERRES
   225  114  115 1    
   226  114  235 1    
   227  115  116 1    
   228  115  117 1    
   229  115  236 1    
   230  116  237 1    
   231  116  238 1    
   232  116  239 1    
   233  117  118 2    
   234  117  119 am   BACKBONE|DICT|INTERRES
   235  119  120 1    
   236  119  240 1    
   237  120  121 1    
   238  120  124 1    
   239  120  241 1    
   240  121  122 am   BACKBONE|DICT|INTERRES
   241  121  123 2    
   242  122  242 1    
   243  122  243 1    
   244  124  125 1    
   245  124  244 1    
   246  124  245 1    
   247  125  126 1    
   248  126  246 1    
   249  126  247 1    
@<TRIPOS>SUBSTRUCTURE
     1 UNK         1 GROUP             0       ****    0 ROOT    
