@<TRIPOS>MOLECULE
3R540
247   249    1
SMALL
USER_CHARGES


@<TRIPOS>ATOM
      1 CA          0.2127  -12.3325  -46.4102 C.3       0 UNK        -0.1800 
      2 C           1.1223  -11.7210  -47.4637 C.2       0 UNK         0.5000 
      3 O           1.0333  -10.5218  -47.7262 O.2       0 UNK        -0.5000 
      4 N           1.9919  -12.5425  -48.0672 N.am      1 UNK        -0.5000 
      5 CA          2.9339  -12.1343  -49.1176 C.3       1 UNK         0.1400 
      6 C6          3.5517  -13.3351  -49.8807 C.3       23 UNK        -0.0398 
      7 S7          2.3068  -14.4729  -50.5830 S.3       23 UNK        -0.2404 
      8 C8          2.4382  -15.8571  -49.4071 C.3       23 UNK        -0.0205 
      9 C9          1.4576  -16.9831  -49.7002 C.ar      23 UNK        -0.0193 
     10 C10         0.0788  -16.7509  -49.6607 C.ar      23 UNK        -0.1150 
     11 C11        -0.8250  -17.8045  -49.8262 C.ar      23 UNK        -0.0193 
     12 C12        -0.3369  -19.0996  -50.0249 C.ar      23 UNK        -0.1150 
     13 C13         1.0369  -19.3435  -50.0864 C.ar      23 UNK        -0.0193 
     14 C14         1.9293  -18.2780  -49.9363 C.ar      23 UNK        -0.1150 
     15 C15         1.5471  -20.7675  -50.2688 C.3       23 UNK        -0.0205 
     16 S16         2.6227  -21.3272  -48.9026 S.3       23 UNK        -0.2404 
     17 C17         1.6461  -20.9111  -47.4147 C.3       23 UNK        -0.0398 
     18 CA          0.8947  -22.1054  -46.7875 C.3       11 UNK         0.1400 
     19 N           0.4332  -21.7790  -45.4380 N.am      11 UNK        -0.5000 
     20 C          -0.0949  -22.6482  -44.5676 C.2       10 UNK         0.5000 
     21 O          -0.2194  -23.8519  -44.7917 O.2       10 UNK        -0.5000 
     22 CA         -0.6111  -22.0633  -43.2401 C.3       10 UNK         0.1400 
     23 CB          0.5473  -21.8206  -42.2613 C.3       10 UNK        -0.1800 
     24 N          -1.3662  -20.8226  -43.4276 N.am      10 UNK        -0.5000 
     25 C          -2.5184  -20.7380  -44.1091 C.2       9 UNK         0.5000 
     26 O          -3.0842  -21.7052  -44.6181 O.2       9 UNK        -0.5000 
     27 CA         -3.1185  -19.3337  -44.2946 C.3       9 UNK         0.1400 
     28 CB         -3.8401  -18.8748  -43.0188 C.3       9 UNK        -0.1800 
     29 N          -2.1197  -18.3382  -44.6832 N.am      9 UNK        -0.5000 
     30 C          -1.4001  -18.3822  -45.8129 C.2       8 UNK         0.5000 
     31 O          -1.5234  -19.2570  -46.6678 O.2       8 UNK        -0.5000 
     32 CA         -0.3208  -17.3008  -45.9926 C.3       8 UNK         0.1400 
     33 CB         -0.9385  -15.9693  -46.4411 C.3       8 UNK        -0.1800 
     34 N           0.4747  -17.0960  -44.7817 N.am      8 UNK        -0.5000 
     35 C           1.2387  -18.0399  -44.2130 C.2       7 UNK         0.5000 
     36 O           1.3933  -19.1695  -44.6745 O.2       7 UNK        -0.5000 
     37 CA          1.9012  -17.6762  -42.8766 C.3       7 UNK         0.1400 
     38 CB          3.1827  -16.8673  -43.1110 C.3       7 UNK        -0.1800 
     39 N           0.9925  -16.9293  -42.0082 N.am      7 UNK        -0.5000 
     40 C          -0.0827  -17.4673  -41.4142 C.2       6 UNK         0.5000 
     41 O          -0.4000  -18.6529  -41.5172 O.2       6 UNK        -0.5000 
     42 CA         -0.9769  -16.5099  -40.6050 C.3       6 UNK         0.1400 
     43 CB         -0.3984  -16.2830  -39.2004 C.3       6 UNK        -0.1800 
     44 N          -1.1695  -15.2178  -41.2651 N.am      6 UNK        -0.5000 
     45 C          -1.7849  -15.0527  -42.4441 C.2       5 UNK         0.5000 
     46 O          -2.2796  -15.9754  -43.0893 O.2       5 UNK        -0.5000 
     47 CA         -1.8325  -13.6262  -43.0203 C.3       5 UNK         0.1400 
     48 CB         -3.1432  -12.9318  -42.6230 C.3       5 UNK        -0.1800 
     49 N          -0.7026  -12.7775  -42.6332 N.am      5 UNK        -0.5000 
     50 C           0.5839  -13.0211  -42.9172 C.2       4 UNK         0.5000 
     51 O           0.9725  -14.0493  -43.4789 O.2       4 UNK        -0.5000 
     52 CA          1.5662  -11.8947  -42.5328 C.3       4 UNK         0.1400 
     53 CB          1.5924  -11.6538  -41.0079 C.3       4 UNK        -0.1800 
     54 N           2.9207  -12.0804  -43.0686 N.am      4 UNK        -0.5000 
     55 C           3.8297  -13.0025  -42.7166 C.2       3 UNK         0.5000 
     56 O           3.6610  -13.8274  -41.8176 O.2       3 UNK        -0.5000 
     57 CA          5.1629  -12.9839  -43.4908 C.3       3 UNK         0.1400 
     58 CB          5.7563  -14.3914  -43.6929 C.3       3 UNK        -0.1800 
     59 N           5.0434  -12.3250  -44.7979 N.am      3 UNK        -0.5000 
     60 C           5.9428  -11.4621  -45.2984 C.2       2 UNK         0.5000 
     61 O           6.9134  -11.0514  -44.6560 O.2       2 UNK        -0.5000 
     62 CA          5.7600  -10.9867  -46.7558 C.3       2 UNK         0.1400 
     63 CB          7.0689  -11.1417  -47.5591 C.3       2 UNK        -0.1800 
     64 N           4.6688  -11.6803  -47.4474 N.am      2 UNK        -0.5000 
     65 C           4.0453  -11.2298  -48.5460 C.2       1 UNK         0.5000 
     66 O           4.3029  -10.1566  -49.0937 O.2       1 UNK        -0.5000 
     67 C          -0.2606  -22.6060  -47.6795 C.2       11 UNK         0.5000 
     68 O          -0.1137  -23.6396  -48.3307 O.2       11 UNK        -0.5000 
     69 N          -1.4033  -21.9039  -47.6600 N.am      12 UNK        -0.5000 
     70 CA         -2.6205  -22.2906  -48.3746 C.3       12 UNK         0.1400 
     71 CB         -3.6702  -21.1765  -48.2691 C.3       12 UNK        -0.1800 
     72 C          -3.1990  -23.6306  -47.8898 C.2       12 UNK         0.5000 
     73 O          -3.6147  -24.4377  -48.7205 O.2       12 UNK        -0.5000 
     74 N          -3.1818  -23.8630  -46.5695 N.am      13 UNK        -0.5000 
     75 CA         -3.5842  -25.1246  -45.9476 C.3       13 UNK         0.1400 
     76 CB         -3.6451  -24.9624  -44.4215 C.3       13 UNK        -0.1800 
     77 C          -2.6652  -26.2939  -46.3436 C.2       13 UNK         0.5000 
     78 O          -3.1676  -27.3585  -46.7037 O.2       13 UNK        -0.5000 
     79 N          -1.3438  -26.0642  -46.3251 N.am      14 UNK        -0.5000 
     80 CA         -0.3241  -27.0214  -46.7652 C.3       14 UNK         0.1400 
     81 CB          1.0717  -26.4814  -46.4191 C.3       14 UNK        -0.1800 
     82 C          -0.4236  -27.3587  -48.2660 C.2       14 UNK         0.5000 
     83 O          -0.2245  -28.5129  -48.6461 O.2       14 UNK        -0.5000 
     84 N          -0.7731  -26.3561  -49.0823 N.am      15 UNK        -0.5000 
     85 CA         -1.0521  -26.4859  -50.5130 C.3       15 UNK         0.1400 
     86 CB         -0.9333  -25.0984  -51.1675 C.3       15 UNK        -0.1800 
     87 C          -2.4310  -27.1052  -50.8234 C.2       15 UNK         0.5000 
     88 O          -2.7243  -27.3334  -51.9959 O.2       15 UNK        -0.5000 
     89 N          -3.2691  -27.3304  -49.7993 N.am      16 UNK        -0.5000 
     90 CA         -4.6490  -27.8260  -49.8758 C.3       16 UNK         0.1400 
     91 CB         -4.6736  -29.3002  -50.3299 C.3       16 UNK        -0.1800 
     92 C          -5.5646  -26.9141  -50.7230 C.2       16 UNK         0.5000 
     93 O          -6.4114  -27.4037  -51.4721 O.2       16 UNK        -0.5000 
     94 N          -5.3480  -25.5965  -50.5966 N.am      17 UNK        -0.5000 
     95 CA         -6.0163  -24.4919  -51.2912 C.3       17 UNK         0.1400 
     96 CB         -7.5209  -24.4534  -50.9544 C.3       17 UNK        -0.1800 
     97 C          -5.7525  -24.4271  -52.8119 C.2       17 UNK         0.5000 
     98 O          -6.4132  -23.6465  -53.4996 O.2       17 UNK        -0.5000 
     99 N          -4.7680  -25.1886  -53.3183 N.am      18 UNK        -0.5000 
    100 CA        -4.4014  -25.2574  -54.7403 C.3       18 UNK         0.1400 
    101 CB        -3.3921  -26.3946  -54.9538 C.3       18 UNK        -0.1800 
    102 C         -3.8531  -23.9393  -55.3248 C.2       18 UNK         0.5000 
    103 O         -3.8357  -23.7819  -56.5461 O.2       18 UNK        -0.5000 
    104 N         -3.4394  -23.0107  -54.4503 N.am      19 UNK        -0.5000 
    105 CA        -3.0497  -21.6417  -54.7906 C.3       19 UNK         0.1400 
    106 CB        -2.4655  -20.9690  -53.5387 C.3       19 UNK        -0.1800 
    107 C         -4.2100  -20.8007  -55.3651 C.2       19 UNK         0.5000 
    108 O         -3.9512  -19.8778  -56.1384 O.2       19 UNK        -0.5000 
    109 N         -5.4547  -21.1408  -54.9877 N.am      20 UNK        -0.5000 
    110 CA        -6.7493  -20.5968  -55.4231 C.3       20 UNK         0.1400 
    111 CB        -6.9712  -20.8343  -56.9284 C.3       20 UNK        -0.1800 
    112 C         -7.0051  -19.1229  -55.0497 C.2       20 UNK         0.5000 
    113 O         -8.0438  -18.8168  -54.4614 O.2       20 UNK        -0.5000 
    114 N         -6.0525  -18.2390  -55.3705 N.am      21 UNK        -0.5000 
    115 CA        -6.0909  -16.7914  -55.1386 C.3       21 UNK         0.1400 
    116 CB        -4.8637  -16.1536  -55.8074 C.3       21 UNK        -0.1800 
    117 C         -6.1612  -16.3937  -53.6510 C.2       21 UNK         0.5000 
    118 O         -6.6018  -15.2871  -53.3374 O.2       21 UNK        -0.5000 
    119 N         -5.7436  -17.3081  -52.7686 N.am      22 UNK        -0.5000 
    120 CA        -5.8436  -17.1963  -51.3067 C.3       22 UNK         0.1400 
    121 C         -7.2989  -17.2871  -50.7559 C.2       22 UNK         0.5000 
    122 N         -8.2850  -17.7242  -51.5328 N.am      22 UNK        -0.7600 
    123 O         -7.5370  -16.9514  -49.5993 O.2       22 UNK        -0.5000 
    124 C124       -4.9371  -18.2325  -50.5946 C.3       23 UNK        -0.0398 
    125 S125       -3.2098  -18.2078  -51.1867 S.3       23 UNK        -0.2404 
    126 C126       -2.3248  -17.5586  -49.7346 C.3       23 UNK        -0.0205 
    127 H127        0.0443  -11.6256  -45.5978 H         1 UNK         0.0600 
    128 H128        0.6531  -13.2342  -45.9878 H         1 UNK         0.0600 
    129 H129       -0.7528  -12.5890  -46.8458 H         1 UNK         0.0600 
    130 H130        1.9916  -13.5222  -47.8297 H         1 UNK         0.3000 
    131 H131        2.3742  -11.5406  -49.8441 H         1 UNK         0.0600 
    132 H132        4.1617  -12.9710  -50.7094 H         1 UNK         0.0800 
    133 H133        4.2322  -13.8981  -49.2395 H         1 UNK         0.0800 
    134 H134        2.2550  -15.4972  -48.3945 H         1 UNK         0.0800 
    135 H135        3.4629  -16.2323  -49.4200 H         1 UNK         0.0800 
    136 H136       -0.2868  -15.7507  -49.4755 H         1 UNK         0.1150 
    137 H137       -1.0337  -19.9203  -50.1221 H         1 UNK         0.1150 
    138 H138        2.9928  -18.4699  -49.9597 H         1 UNK         0.1150 
    139 H139        0.7153  -21.4671  -50.3666 H         1 UNK         0.0800 
    140 H140        2.1054  -20.8258  -51.2038 H         1 UNK         0.0800 
    141 H141        0.9647  -20.0812  -47.5984 H         1 UNK         0.0800 
    142 H142        2.3689  -20.5292  -46.6931 H         1 UNK         0.0800 
    143 H143        1.6042  -22.9292  -46.6843 H         1 UNK         0.0600 
    144 H144        0.5363  -20.8084  -45.1533 H         1 UNK         0.3000 
    145 H145       -1.2836  -22.7986  -42.7936 H         1 UNK         0.0600 
    146 H146        0.1791  -21.4847  -41.2918 H         1 UNK         0.0600 
    147 H147        1.1161  -22.7362  -42.0943 H         1 UNK         0.0600 
    148 H148        1.2399  -21.0658  -42.6344 H         1 UNK         0.0600 
    149 H149       -0.9787  -19.9839  -43.0087 H         1 UNK         0.3000 
    150 H150       -3.8554  -19.3928  -45.0982 H         1 UNK         0.0600 
    151 H151       -4.5938  -19.6012  -42.7125 H         1 UNK         0.0600 
    152 H152       -4.3497  -17.9240  -43.1759 H         1 UNK         0.0600 
    153 H153       -3.1467  -18.7479  -42.1868 H         1 UNK         0.0600 
    154 H154       -1.9936  -17.5528  -44.0492 H         1 UNK         0.3000 
    155 H155        0.3530  -17.6433  -46.7808 H         1 UNK         0.0600 
    156 H156       -1.5106  -15.4973  -45.6441 H         1 UNK         0.0600 
    157 H157       -1.6162  -16.1123  -47.2822 H         1 UNK         0.0600 
    158 H158       -0.1655  -15.2744  -46.7645 H         1 UNK         0.0600 
    159 H159        0.4091  -16.1926  -44.3307 H         1 UNK         0.3000 
    160 H160        2.1739  -18.6053  -42.3715 H         1 UNK         0.0600 
    161 H161        2.9724  -15.9238  -43.6150 H         1 UNK         0.0600 
    162 H162        3.8877  -17.4217  -43.7316 H         1 UNK         0.0600 
    163 H163        3.6846  -16.6407  -42.1703 H         1 UNK         0.0600 
    164 H164        1.1572  -15.9349  -41.9266 H         1 UNK         0.3000 
    165 H165       -1.9561  -16.9818  -40.4991 H         1 UNK         0.0600 
    166 H166       -1.0680  -15.6751  -38.5916 H         1 UNK         0.0600 
    167 H167       -0.2575  -17.2308  -38.6791 H         1 UNK         0.0600 
    168 H168        0.5696  -15.7817  -39.2384 H         1 UNK         0.0600 
    169 H169       -0.7867  -14.4051  -40.8054 H         1 UNK         0.3000 
    170 H170       -1.8141  -13.7140  -44.1079 H         1 UNK         0.0600 
    171 H171       -4.0071  -13.5280  -42.9203 H         1 UNK         0.0600 
    172 H172       -3.2062  -12.7773  -41.5451 H         1 UNK         0.0600 
    173 H173       -3.2391  -11.9606  -43.1088 H         1 UNK         0.0600 
    174 H174       -0.9408  -11.9117  -42.1714 H         1 UNK         0.3000 
    175 H175        1.1920  -10.9850  -43.0049 H         1 UNK         0.0600 
    176 H176        1.8296  -12.5621  -40.4532 H         1 UNK         0.0600 
    177 H177        2.3300  -10.8967  -40.7411 H         1 UNK         0.0600 
    178 H178        0.6268  -11.2994  -40.6465 H         1 UNK         0.0600 
    179 H179        3.1792  -11.4399  -43.8048 H         1 UNK         0.3000 
    180 H180        5.8480  -12.4239  -42.8513 H         1 UNK         0.0600 
    181 H181        5.1298  -14.9993  -44.3455 H         1 UNK         0.0600 
    182 H182        5.8628  -14.9218  -42.7459 H         1 UNK         0.0600 
    183 H183        6.7479  -14.3364  -44.1420 H         1 UNK         0.0600 
    184 H184        4.2383  -12.5864  -45.3485 H         1 UNK         0.3000 
    185 H185        5.5121   -9.9248  -46.6979 H         1 UNK         0.0600 
    186 H186        7.8949  -10.6158  -47.0786 H         1 UNK         0.0600 
    187 H187        7.3562  -12.1894  -47.6529 H         1 UNK         0.0600 
    188 H188        6.9750  -10.7298  -48.5638 H         1 UNK         0.0600 
    189 H189        4.4189  -12.5892  -47.0896 H         1 UNK         0.3000 
    190 H190       -1.4446  -21.0337  -47.1327 H         1 UNK         0.3000 
    191 H191       -2.3604  -22.4064  -49.4286 H         1 UNK         0.0600 
    192 H192       -3.9286  -20.9624  -47.2316 H         1 UNK         0.0600 
    193 H193       -4.5883  -21.4500  -48.7904 H         1 UNK         0.0600 
    194 H194       -3.3045  -20.2562  -48.7199 H         1 UNK         0.0600 
    195 H195       -2.8804  -23.1218  -45.9433 H         1 UNK         0.3000 
    196 H196       -4.5903  -25.3614  -46.3002 H         1 UNK         0.0600 
    197 H197       -3.9574  -25.8909  -43.9420 H         1 UNK         0.0600 
    198 H198       -4.3622  -24.1923  -44.1367 H         1 UNK         0.0600 
    199 H199       -2.6767  -24.6866  -44.0044 H         1 UNK         0.0600 
    200 H200       -1.0064  -25.1712  -45.9753 H         1 UNK         0.3000 
    201 H201       -0.4769  -27.9479  -46.2082 H         1 UNK         0.0600 
    202 H202        1.1746  -26.3148  -45.3467 H         1 UNK         0.0600 
    203 H203        1.2754  -25.5372  -46.9245 H         1 UNK         0.0600 
    204 H204        1.8487  -27.1873  -46.7150 H         1 UNK         0.0600 
    205 H205       -0.8353  -25.4183  -48.6958 H         1 UNK         0.3000 
    206 H206       -0.2966  -27.1373  -50.9565 H         1 UNK         0.0600 
    207 H207        0.0513  -24.6635  -50.9948 H         1 UNK         0.0600 
    208 H208       -1.0761  -25.1569  -52.2473 H         1 UNK         0.0600 
    209 H209       -1.6779  -24.4054  -50.7753 H         1 UNK         0.0600 
    210 H210       -2.9508  -27.0918  -48.8683 H         1 UNK         0.3000 
    211 H211       -5.0421  -27.7878  -48.8591 H         1 UNK         0.0600 
    212 H212       -4.3449  -29.4123  -51.3635 H         1 UNK         0.0600 
    213 H213       -5.6802  -29.7139  -50.2602 H         1 UNK         0.0600 
    214 H214       -4.0271  -29.9149  -49.7036 H         1 UNK         0.0600 
    215 H215       -4.6275  -25.3024  -49.9371 H         1 UNK         0.3000 
    216 H216       -5.5719  -23.5840  -50.8808 H         1 UNK         0.0600 
    217 H217       -7.9835  -23.5399  -51.3297 H         1 UNK         0.0600 
    218 H218       -7.6843  -24.4777  -49.8770 H         1 UNK         0.0600 
    219 H219       -8.0576  -25.2935  -51.3955 H         1 UNK         0.0600 
    220 H220       -4.2673  -25.8130  -52.6978 H         1 UNK         0.3000 
    221 H221       -5.3074  -25.5014  -55.2987 H         1 UNK         0.0600 
    222 H222       -2.4535  -26.2000  -54.4338 H         1 UNK         0.0600 
    223 H223       -3.7861  -27.3459  -54.5956 H         1 UNK         0.0600 
    224 H224       -3.1596  -26.5188  -56.0122 H         1 UNK         0.0600 
    225 H225       -3.4720  -23.2426  -53.4694 H         1 UNK         0.3000 
    226 H226       -2.2692  -21.6913  -55.5525 H         1 UNK         0.0600 
    227 H227       -2.1523  -19.9462  -53.7531 H         1 UNK         0.0600 
    228 H228       -3.1941  -20.9253  -52.7283 H         1 UNK         0.0600 
    229 H229       -1.5893  -21.5048  -53.1728 H         1 UNK         0.0600 
    230 H230       -5.5415  -21.9292  -54.3555 H         1 UNK         0.3000 
    231 H231       -7.5000  -21.1838  -54.8912 H         1 UNK         0.0600 
    232 H232       -6.8794  -21.8920  -57.1760 H         1 UNK         0.0600 
    233 H233       -6.2551  -20.2846  -57.5398 H         1 UNK         0.0600 
    234 H234       -7.9696  -20.5150  -57.2299 H         1 UNK         0.0600 
    235 H235       -5.2144  -18.6110  -55.8129 H         1 UNK         0.3000 
    236 H236       -6.9891  -16.4020  -55.6218 H         1 UNK         0.0600 
    237 H237       -4.8669  -15.0700  -55.6821 H         1 UNK         0.0600 
    238 H238       -3.9337  -16.5320  -55.3808 H         1 UNK         0.0600 
    239 H239       -4.8482  -16.3561  -56.8785 H         1 UNK         0.0600 
    240 H240       -5.3770  -18.1777  -53.1239 H         1 UNK         0.3000 
    241 H241       -5.4795  -16.2032  -51.0365 H         1 UNK         0.0600 
    242 H242       -8.1133  -18.0073  -52.4902 H         1 UNK         0.3800 
    243 H243       -9.2205  -17.7728  -51.1614 H         1 UNK         0.3800 
    244 H244       -4.9536  -18.0725  -49.5153 H         1 UNK         0.0800 
    245 H245       -5.3223  -19.2414  -50.7527 H         1 UNK         0.0800 
    246 H246       -2.5416  -16.4935  -49.6418 H         1 UNK         0.0800 
    247 H247       -2.6945  -18.0325  -48.8257 H         1 UNK         0.0800 
@<TRIPOS>BOND
     1    1    2 1    
     2    1  127 1    
     3    1  128 1    
     4    1  129 1    
     5    2    3 2    
     6    2    4 am   BACKBONE|DICT|INTERRES
     7    4    5 1    
     8    4  130 1    
     9    5    6 1    
    10    5   65 1    
    11    5  131 1    
    12    6    7 1    
    13    6  132 1    
    14    6  133 1    
    15    7    8 1    
    16    8    9 1    
    17    8  134 1    
    18    8  135 1    
    19    9   10 ar   
    20    9   14 ar   
    21   10   11 ar   
    22   10  136 1    
    23   11   12 ar   
    24   11  126 1    
    25   12   13 ar   
    26   12  137 1    
    27   13   14 ar   
    28   13   15 1    
    29   14  138 1    
    30   15   16 1    
    31   15  139 1    
    32   15  140 1    
    33   16   17 1    
    34   17   18 1    
    35   17  141 1    
    36   17  142 1    
    37   18   19 1    
    38   18   67 1    
    39   18  143 1    
    40   19   20 am   BACKBONE|DICT|INTERRES
    41   19  144 1    
    42   20   21 2    
    43   20   22 1    
    44   22   23 1    
    45   22   24 1    
    46   22  145 1    
    47   23  146 1    
    48   23  147 1    
    49   23  148 1    
    50   24   25 am   BACKBONE|DICT|INTERRES
    51   24  149 1    
    52   25   26 2    
    53   25   27 1    
    54   27   28 1    
    55   27   29 1    
    56   27  150 1    
    57   28  151 1    
    58   28  152 1    
    59   28  153 1    
    60   29   30 am   BACKBONE|DICT|INTERRES
    61   29  154 1    
    62   30   31 2    
    63   30   32 1    
    64   32   33 1    
    65   32   34 1    
    66   32  155 1    
    67   33  156 1    
    68   33  157 1    
    69   33  158 1    
    70   34   35 am   BACKBONE|DICT|INTERRES
    71   34  159 1    
    72   35   36 2    
    73   35   37 1    
    74   37   38 1    
    75   37   39 1    
    76   37  160 1    
    77   38  161 1    
    78   38  162 1    
    79   38  163 1    
    80   39   40 am   BACKBONE|DICT|INTERRES
    81   39  164 1    
    82   40   41 2    
    83   40   42 1    
    84   42   43 1    
    85   42   44 1    
    86   42  165 1    
    87   43  166 1    
    88   43  167 1    
    89   43  168 1    
    90   44   45 am   BACKBONE|DICT|INTERRES
    91   44  169 1    
    92   45   46 2    
    93   45   47 1    
    94   47   48 1    
    95   47   49 1    
    96   47  170 1    
    97   48  171 1    
    98   48  172 1    
    99   48  173 1    
   100   49   50 am   BACKBONE|DICT|INTERRES
   101   49  174 1    
   102   50   51 2    
   103   50   52 1    
   104   52   53 1    
   105   52   54 1    
   106   52  175 1    
   107   53  176 1    
   108   53  177 1    
   109   53  178 1    
   110   54   55 am   BACKBONE|DICT|INTERRES
   111   54  179 1    
   112   55   56 2    
   113   55   57 1    
   114   57   58 1    
   115   57   59 1    
   116   57  180 1    
   117   58  181 1    
   118   58  182 1    
   119   58  183 1    
   120   59   60 am   BACKBONE|DICT|INTERRES
   121   59  184 1    
   122   60   61 2    
   123   60   62 1    
   124   62   63 1    
   125   62   64 1    
   126   62  185 1    
   127   63  186 1    
   128   63  187 1    
   129   63  188 1    
   130   64   65 am   BACKBONE|DICT|INTERRES
   131   64  189 1    
   132   65   66 2    
   133   67   68 2    
   134   67   69 am   BACKBONE|DICT|INTERRES
   135   69   70 1    
   136   69  190 1    
   137   70   71 1    
   138   70   72 1    
   139   70  191 1    
   140   71  192 1    
   141   71  193 1    
   142   71  194 1    
   143   72   73 2    
   144   72   74 am   BACKBONE|DICT|INTERRES
   145   74   75 1    
   146   74  195 1    
   147   75   76 1    
   148   75   77 1    
   149   75  196 1    
   150   76  197 1    
   151   76  198 1    
   152   76  199 1    
   153   77   78 2    
   154   77   79 am   BACKBONE|DICT|INTERRES
   155   79   80 1    
   156   79  200 1    
   157   80   81 1    
   158   80   82 1    
   159   80  201 1    
   160   81  202 1    
   161   81  203 1    
   162   81  204 1    
   163   82   83 2    
   164   82   84 am   BACKBONE|DICT|INTERRES
   165   84   85 1    
   166   84  205 1    
   167   85   86 1    
   168   85   87 1    
   169   85  206 1    
   170   86  207 1    
   171   86  208 1    
   172   86  209 1    
   173   87   88 2    
   174   87   89 am   BACKBONE|DICT|INTERRES
   175   89   90 1    
   176   89  210 1    
   177   90   91 1    
   178   90   92 1    
   179   90  211 1    
   180   91  212 1    
   181   91  213 1    
   182   91  214 1    
   183   92   93 2    
   184   92   94 am   BACKBONE|DICT|INTERRES
   185   94   95 1    
   186   94  215 1    
   187   95   96 1    
   188   95   97 1    
   189   95  216 1    
   190   96  217 1    
   191   96  218 1    
   192   96  219 1    
   193   97   98 2    
   194   97   99 am   BACKBONE|DICT|INTERRES
   195   99  100 1    
   196   99  220 1    
   197  100  101 1    
   198  100  102 1    
   199  100  221 1    
   200  101  222 1    
   201  101  223 1    
   202  101  224 1    
   203  102  103 2    
   204  102  104 am   BACKBONE|DICT|INTERRES
   205  104  105 1    
   206  104  225 1    
   207  105  106 1    
   208  105  107 1    
   209  105  226 1    
   210  106  227 1    
   211  106  228 1    
   212  106  229 1    
   213  107  108 2    
   214  107  109 am   BACKBONE|DICT|INTERRES
   215  109  110 1    
   216  109  230 1    
   217  110  111 1    
   218  110  112 1    
   219  110  231 1    
   220  111  232 1    
   221  111  233 1    
   222  111  234 1    
   223  112  113 2    
   224  112  114 am   BACKBONE|DICT|INTERRES
   225  114  115 1    
   226  114  235 1    
   227  115  116 1    
   228  115  117 1    
   229  115  236 1    
   230  116  237 1    
   231  116  238 1    
   232  116  239 1    
   233  117  118 2    
   234  117  119 am   BACKBONE|DICT|INTERRES
   235  119  120 1    
   236  119  240 1    
   237  120  121 1    
   238  120  124 1    
   239  120  241 1    
   240  121  122 am   BACKBONE|DICT|INTERRES
   241  121  123 2    
   242  122  242 1    
   243  122  243 1    
   244  124  125 1    
   245  124  244 1    
   246  124  245 1    
   247  125  126 1    
   248  126  246 1    
   249  126  247 1    
@<TRIPOS>SUBSTRUCTURE
     1 UNK         1 GROUP             0       ****    0 ROOT    
