@<TRIPOS>MOLECULE
3R540
247   249    1
SMALL
USER_CHARGES


@<TRIPOS>ATOM
      1 CA          2.1779  -16.2805  -50.9586 C.3       0 UNK        -0.1800 
      2 C           1.3854  -15.8117  -49.7496 C.2       0 UNK         0.5000 
      3 O           1.9761  -15.3735  -48.7620 O.2       0 UNK        -0.5000 
      4 N           0.0493  -15.8881  -49.8147 N.am      1 UNK        -0.5000 
      5 CA         -0.8529  -15.5120  -48.7191 C.3       1 UNK         0.1400 
      6 C6         -2.3253  -15.9085  -48.9850 C.3       23 UNK        -0.0398 
      7 S7         -2.7062  -17.6894  -49.1548 S.3       23 UNK        -0.2404 
      8 C8         -1.6228  -18.5748  -47.9805 C.3       23 UNK        -0.0205 
      9 C9         -0.2934  -18.9859  -48.5966 C.ar      23 UNK        -0.0193 
     10 C10        -0.2639  -19.6878  -49.8039 C.ar      23 UNK        -0.1150 
     11 C11         0.9509  -20.0216  -50.4062 C.ar      23 UNK        -0.0193 
     12 C12         2.1485  -19.6829  -49.7694 C.ar      23 UNK        -0.1150 
     13 C13         2.1342  -19.0108  -48.5435 C.ar      23 UNK        -0.0193 
     14 C14         0.9094  -18.6689  -47.9607 C.ar      23 UNK        -0.1150 
     15 C15         3.4396  -18.6028  -47.8742 C.3       23 UNK        -0.0205 
     16 S16         4.3174  -19.9982  -47.0983 S.3       23 UNK        -0.2404 
     17 C17         3.1102  -20.5816  -45.8573 C.3       23 UNK        -0.0398 
     18 CA          2.8718  -22.1105  -45.9016 C.3       11 UNK         0.1400 
     19 N           2.0570  -22.5514  -44.7674 N.am      11 UNK        -0.5000 
     20 C           2.0495  -23.7981  -44.2741 C.2       10 UNK         0.5000 
     21 O           2.8022  -24.6923  -44.6598 O.2       10 UNK        -0.5000 
     22 CA          1.0079  -24.1055  -43.1799 C.3       10 UNK         0.1400 
     23 CB          1.5924  -23.8265  -41.7871 C.3       10 UNK        -0.1800 
     24 N          -0.2316  -23.3425  -43.3412 N.am      10 UNK        -0.5000 
     25 C          -1.0990  -23.4995  -44.3518 C.2       9 UNK         0.5000 
     26 O          -0.9749  -24.3564  -45.2249 O.2       9 UNK        -0.5000 
     27 CA         -2.2740  -22.5041  -44.4254 C.3       9 UNK         0.1400 
     28 CB         -3.5173  -23.0919  -43.7439 C.3       9 UNK        -0.1800 
     29 N          -1.9677  -21.1988  -43.8321 N.am      9 UNK        -0.5000 
     30 C          -1.0314  -20.3539  -44.2829 C.2       8 UNK         0.5000 
     31 O          -0.3334  -20.5759  -45.2749 O.2       8 UNK        -0.5000 
     32 CA         -0.7959  -19.0812  -43.4466 C.3       8 UNK         0.1400 
     33 CB          0.6995  -18.9019  -43.1354 C.3       8 UNK        -0.1800 
     34 N          -1.2884  -17.8668  -44.0929 N.am      8 UNK        -0.5000 
     35 C          -2.5642  -17.6094  -44.4107 C.2       7 UNK         0.5000 
     36 O          -3.4949  -18.3906  -44.2124 O.2       7 UNK        -0.5000 
     37 CA         -2.8213  -16.2105  -45.0079 C.3       7 UNK         0.1400 
     38 CB         -4.2748  -16.0020  -45.4796 C.3       7 UNK        -0.1800 
     39 N          -2.4008  -15.1461  -44.0905 N.am      7 UNK        -0.5000 
     40 C          -2.8604  -14.9051  -42.8507 C.2       6 UNK         0.5000 
     41 O          -3.7746  -15.5367  -42.3203 O.2       6 UNK        -0.5000 
     42 CA         -2.1718  -13.7811  -42.0476 C.3       6 UNK         0.1400 
     43 CB         -1.4218  -14.3675  -40.8403 C.3       6 UNK        -0.1800 
     44 N          -1.2215  -13.0025  -42.8413 N.am      6 UNK        -0.5000 
     45 C          -1.5296  -12.0318  -43.7077 C.2       5 UNK         0.5000 
     46 O          -2.6770  -11.6283  -43.8976 O.2       5 UNK        -0.5000 
     47 CA         -0.3689  -11.4415  -44.5314 C.3       5 UNK         0.1400 
     48 CB          0.3298  -10.2929  -43.7808 C.3       5 UNK        -0.1800 
     49 N           0.5954  -12.4423  -45.0092 N.am      5 UNK        -0.5000 
     50 C           1.4819  -13.1821  -44.3260 C.2       4 UNK         0.5000 
     51 O           1.6087  -13.1499  -43.1019 O.2       4 UNK        -0.5000 
     52 CA          2.3492  -14.1517  -45.1514 C.3       4 UNK         0.1400 
     53 CB          1.6683  -15.5274  -45.2346 C.3       4 UNK        -0.1800 
     54 N           2.6184  -13.6614  -46.5048 N.am      4 UNK        -0.5000 
     55 C           3.3722  -12.5893  -46.7916 C.2       3 UNK         0.5000 
     56 O           4.0069  -11.9513  -45.9507 O.2       3 UNK        -0.5000 
     57 CA          3.3849  -12.1295  -48.2595 C.3       3 UNK         0.1400 
     58 CB          4.4118  -12.9245  -49.0813 C.3       3 UNK        -0.1800 
     59 N           2.0599  -12.2500  -48.8700 N.am      3 UNK        -0.5000 
     60 C           1.0473  -11.3974  -48.6533 C.2       2 UNK         0.5000 
     61 O           1.1433  -10.3840  -47.9613 O.2       2 UNK        -0.5000 
     62 CA         -0.3083  -11.7400  -49.3011 C.3       2 UNK         0.1400 
     63 CB         -0.4205  -11.0942  -50.6902 C.3       2 UNK        -0.1800 
     64 N          -0.5320  -13.1803  -49.4243 N.am      2 UNK        -0.5000 
     65 C          -0.7654  -14.0068  -48.3950 C.2       1 UNK         0.5000 
     66 O          -0.8695  -13.6335  -47.2266 O.2       1 UNK        -0.5000 
     67 C           2.2429  -22.5877  -47.2290 C.2       11 UNK         0.5000 
     68 O           2.9684  -23.0297  -48.1213 O.2       11 UNK        -0.5000 
     69 N           0.9044  -22.5387  -47.3115 N.am      12 UNK        -0.5000 
     70 CA          0.1185  -23.0220  -48.4488 C.3       12 UNK         0.1400 
     71 CB         -1.3452  -22.6103  -48.2527 C.3       12 UNK        -0.1800 
     72 C           0.2426  -24.5419  -48.6762 C.2       12 UNK         0.5000 
     73 O           0.2267  -24.9830  -49.8266 O.2       12 UNK        -0.5000 
     74 N           0.4001  -25.2969  -47.5786 N.am      13 UNK        -0.5000 
     75 CA          0.7184  -26.7227  -47.4928 C.3       13 UNK         0.1400 
     76 CB          2.1638  -26.9787  -47.9712 C.3       13 UNK        -0.1800 
     77 C          -0.3290  -27.6023  -48.1989 C.2       13 UNK         0.5000 
     78 O          -1.3473  -27.9302  -47.5903 O.2       13 UNK        -0.5000 
     79 N          -0.0714  -27.9575  -49.4655 N.am      14 UNK        -0.5000 
     80 CA         -0.9857  -28.7012  -50.3335 C.3       14 UNK         0.1400 
     81 CB         -0.2506  -29.0920  -51.6241 C.3       14 UNK        -0.1800 
     82 C          -2.2723  -27.9179  -50.6576 C.2       14 UNK         0.5000 
     83 O          -3.3352  -28.5253  -50.7902 O.2       14 UNK        -0.5000 
     84 N          -2.1717  -26.5831  -50.7234 N.am      15 UNK        -0.5000 
     85 CA         -3.2978  -25.6603  -50.8619 C.3       15 UNK         0.1400 
     86 CB         -2.8395  -24.4311  -51.6681 C.3       15 UNK        -0.1800 
     87 C          -3.8543  -25.2912  -49.4721 C.2       15 UNK         0.5000 
     88 O          -3.9571  -24.1103  -49.1409 O.2       15 UNK        -0.5000 
     89 N          -4.1914  -26.3154  -48.6748 N.am      16 UNK        -0.5000 
     90 CA         -4.5418  -26.2561  -47.2485 C.3       16 UNK         0.1400 
     91 CB         -4.8279  -27.6835  -46.7568 C.3       16 UNK        -0.1800 
     92 C          -5.7132  -25.3239  -46.8744 C.2       16 UNK         0.5000 
     93 O          -5.8371  -24.9478  -45.7090 O.2       16 UNK        -0.5000 
     94 N          -6.5371  -24.9496  -47.8607 N.am      17 UNK        -0.5000 
     95 CA         -7.5887  -23.9388  -47.7443 C.3       17 UNK         0.1400 
     96 CB         -8.5174  -24.0655  -48.9630 C.3       17 UNK        -0.1800 
     97 C          -7.0547  -22.4928  -47.6236 C.2       17 UNK         0.5000 
     98 O          -7.8463  -21.5987  -47.3236 O.2       17 UNK        -0.5000 
     99 N          -5.7504  -22.2887  -47.8770 N.am      18 UNK        -0.5000 
    100 CA        -5.0400  -21.0103  -47.9721 C.3       18 UNK         0.1400 
    101 CB        -5.0672  -20.2317  -46.6408 C.3       18 UNK        -0.1800 
    102 C         -5.5554  -20.2026  -49.1756 C.2       18 UNK         0.5000 
    103 O         -6.1618  -19.1425  -49.0116 O.2       18 UNK        -0.5000 
    104 N         -5.3468  -20.7752  -50.3694 N.am      19 UNK        -0.5000 
    105 CA        -5.7551  -20.2284  -51.6615 C.3       19 UNK         0.1400 
    106 CB        -5.4471  -21.2605  -52.7590 C.3       19 UNK        -0.1800 
    107 C         -5.0717  -18.8806  -51.9585 C.2       19 UNK         0.5000 
    108 O         -3.8790  -18.8541  -52.2673 O.2       19 UNK        -0.5000 
    109 N         -5.8495  -17.7926  -51.8774 N.am      20 UNK        -0.5000 
    110 CA        -5.4056  -16.3996  -52.0089 C.3       20 UNK         0.1400 
    111 CB        -6.5764  -15.4746  -51.6416 C.3       20 UNK        -0.1800 
    112 C         -4.8221  -16.0200  -53.3862 C.2       20 UNK         0.5000 
    113 O         -4.2163  -14.9554  -53.5113 O.2       20 UNK        -0.5000 
    114 N         -4.9944  -16.8935  -54.3881 N.am      21 UNK        -0.5000 
    115 CA        -4.3293  -16.8225  -55.6896 C.3       21 UNK         0.1400 
    116 CB        -4.9578  -17.8659  -56.6260 C.3       21 UNK        -0.1800 
    117 C         -2.8016  -17.0272  -55.5982 C.2       21 UNK         0.5000 
    118 O         -2.0789  -16.5525  -56.4754 O.2       21 UNK        -0.5000 
    119 N         -2.3369  -17.7162  -54.5462 N.am      22 UNK        -0.5000 
    120 CA        -0.9220  -17.8392  -54.1857 C.3       22 UNK         0.1400 
    121 C         -0.3907  -16.4988  -53.6064 C.2       22 UNK         0.5000 
    122 N          0.5995  -15.8840  -54.2386 N.am      22 UNK        -0.7600 
    123 O         -0.8536  -16.0289  -52.5690 O.2       22 UNK        -0.5000 
    124 C124       -0.7148  -19.0137  -53.1983 C.3       23 UNK        -0.0398 
    125 S125        1.0120  -19.6047  -53.1503 S.3       23 UNK        -0.2404 
    126 C126        0.9656  -20.7552  -51.7387 C.3       23 UNK        -0.0205 
    127 H127        1.6439  -17.0637  -51.4956 H         1 UNK         0.0600 
    128 H128        3.1393  -16.6876  -50.6464 H         1 UNK         0.0600 
    129 H129        2.3596  -15.4493  -51.6391 H         1 UNK         0.0600 
    130 H130       -0.3906  -16.2011  -50.6764 H         1 UNK         0.3000 
    131 H131       -0.5090  -16.0308  -47.8248 H         1 UNK         0.0600 
    132 H132       -2.6773  -15.4185  -49.8946 H         1 UNK         0.0800 
    133 H133       -2.9663  -15.5337  -48.1854 H         1 UNK         0.0800 
    134 H134       -1.4693  -17.9768  -47.0862 H         1 UNK         0.0800 
    135 H135       -2.1410  -19.4730  -47.6483 H         1 UNK         0.0800 
    136 H136       -1.1941  -19.9563  -50.2841 H         1 UNK         0.1150 
    137 H137        3.0929  -19.9375  -50.2290 H         1 UNK         0.1150 
    138 H138        0.8940  -18.1346  -47.0218 H         1 UNK         0.1150 
    139 H139        4.0933  -18.1476  -48.6193 H         1 UNK         0.0800 
    140 H140        3.2627  -17.8326  -47.1240 H         1 UNK         0.0800 
    141 H141        2.1680  -20.0464  -45.9618 H         1 UNK         0.0800 
    142 H142        3.4985  -20.3024  -44.8771 H         1 UNK         0.0800 
    143 H143        3.8487  -22.5923  -45.8176 H         1 UNK         0.0600 
    144 H144        1.3704  -21.8924  -44.4291 H         1 UNK         0.3000 
    145 H145        0.7635  -25.1681  -43.2435 H         1 UNK         0.0600 
    146 H146        0.8917  -24.1094  -41.0013 H         1 UNK         0.0600 
    147 H147        2.5072  -24.3986  -41.6262 H         1 UNK         0.0600 
    148 H148        1.8374  -22.7718  -41.6560 H         1 UNK         0.0600 
    149 H149       -0.4192  -22.6272  -42.6547 H         1 UNK         0.3000 
    150 H150       -2.5073  -22.3451  -45.4795 H         1 UNK         0.0600 
    151 H151       -3.3667  -23.2220  -42.6716 H         1 UNK         0.0600 
    152 H152       -3.7640  -24.0691  -44.1606 H         1 UNK         0.0600 
    153 H153       -4.3876  -22.4513  -43.8874 H         1 UNK         0.0600 
    154 H154       -2.5226  -20.9281  -43.0328 H         1 UNK         0.3000 
    155 H155       -1.3232  -19.1874  -42.4963 H         1 UNK         0.0600 
    156 H156        1.2796  -18.7048  -44.0378 H         1 UNK         0.0600 
    157 H157        1.1141  -19.7952  -42.6665 H         1 UNK         0.0600 
    158 H158        0.8617  -18.0717  -42.4476 H         1 UNK         0.0600 
    159 H159       -0.5962  -17.1583  -44.2777 H         1 UNK         0.3000 
    160 H160       -2.1812  -16.1189  -45.8846 H         1 UNK         0.0600 
    161 H161       -4.9889  -16.1012  -44.6618 H         1 UNK         0.0600 
    162 H162       -4.5449  -16.7372  -46.2389 H         1 UNK         0.0600 
    163 H163       -4.4067  -15.0146  -45.9218 H         1 UNK         0.0600 
    164 H164       -1.6633  -14.5439  -44.4263 H         1 UNK         0.3000 
    165 H165       -2.9532  -13.1141  -41.6779 H         1 UNK         0.0600 
    166 H166       -0.9701  -13.5801  -40.2365 H         1 UNK         0.0600 
    167 H167       -2.0971  -14.9256  -40.1904 H         1 UNK         0.0600 
    168 H168       -0.6283  -15.0479  -41.1523 H         1 UNK         0.0600 
    169 H169       -0.2365  -13.2319  -42.7369 H         1 UNK         0.3000 
    170 H170       -0.8129  -11.0179  -45.4339 H         1 UNK         0.0600 
    171 H171       -0.3799   -9.5015  -43.5368 H         1 UNK         0.0600 
    172 H172        0.7775  -10.6270  -42.8446 H         1 UNK         0.0600 
    173 H173        1.1168   -9.8480  -44.3901 H         1 UNK         0.0600 
    174 H174        0.5081  -12.6509  -45.9970 H         1 UNK         0.3000 
    175 H175        3.3037  -14.2694  -44.6344 H         1 UNK         0.0600 
    176 H176        0.7122  -15.4737  -45.7550 H         1 UNK         0.0600 
    177 H177        2.2965  -16.2427  -45.7626 H         1 UNK         0.0600 
    178 H178        1.4832  -15.9319  -44.2388 H         1 UNK         0.0600 
    179 H179        2.2045  -14.1811  -47.2743 H         1 UNK         0.3000 
    180 H180        3.6830  -11.0789  -48.2791 H         1 UNK         0.0600 
    181 H181        4.1917  -13.9920  -49.0899 H         1 UNK         0.0600 
    182 H182        5.4145  -12.8026  -48.6699 H         1 UNK         0.0600 
    183 H183        4.4410  -12.5800  -50.1151 H         1 UNK         0.0600 
    184 H184        1.8853  -13.0885  -49.4048 H         1 UNK         0.3000 
    185 H185       -1.0940  -11.3246  -48.6661 H         1 UNK         0.0600 
    186 H186       -0.2824  -10.0137  -50.6306 H         1 UNK         0.0600 
    187 H187        0.3309  -11.4840  -51.3781 H         1 UNK         0.0600 
    188 H188       -1.4024  -11.2714  -51.1294 H         1 UNK         0.0600 
    189 H189       -0.4563  -13.5781  -50.3499 H         1 UNK         0.3000 
    190 H190        0.3896  -22.1047  -46.5550 H         1 UNK         0.3000 
    191 H191        0.5015  -22.5246  -49.3397 H         1 UNK         0.0600 
    192 H192       -1.4271  -21.6166  -47.8183 H         1 UNK         0.0600 
    193 H193       -1.8644  -22.5859  -49.2095 H         1 UNK         0.0600 
    194 H194       -1.8793  -23.3010  -47.5999 H         1 UNK         0.0600 
    195 H195        0.2480  -24.8401  -46.6847 H         1 UNK         0.3000 
    196 H196        0.6748  -26.9810  -46.4336 H         1 UNK         0.0600 
    197 H197        2.4151  -28.0385  -47.9129 H         1 UNK         0.0600 
    198 H198        2.8766  -26.4433  -47.3434 H         1 UNK         0.0600 
    199 H199        2.3273  -26.6535  -48.9990 H         1 UNK         0.0600 
    200 H200        0.7728  -27.6055  -49.8936 H         1 UNK         0.3000 
    201 H201       -1.2764  -29.6158  -49.8126 H         1 UNK         0.0600 
    202 H202       -0.9005  -29.6683  -52.2841 H         1 UNK         0.0600 
    203 H203        0.6224  -29.7088  -51.4098 H         1 UNK         0.0600 
    204 H204        0.0850  -28.2142  -52.1778 H         1 UNK         0.0600 
    205 H205       -1.2687  -26.1571  -50.5360 H         1 UNK         0.3000 
    206 H206       -4.1056  -26.1389  -51.4191 H         1 UNK         0.0600 
    207 H207       -2.5025  -24.7195  -52.6637 H         1 UNK         0.0600 
    208 H208       -3.6551  -23.7190  -51.7966 H         1 UNK         0.0600 
    209 H209       -2.0175  -23.9088  -51.1787 H         1 UNK         0.0600 
    210 H210       -4.0762  -27.2457  -49.0558 H         1 UNK         0.3000 
    211 H211       -3.6608  -25.8835  -46.7215 H         1 UNK         0.0600 
    212 H212       -5.6820  -28.1217  -47.2745 H         1 UNK         0.0600 
    213 H213       -5.0491  -27.6947  -45.6886 H         1 UNK         0.0600 
    214 H214       -3.9695  -28.3366  -46.9137 H         1 UNK         0.0600 
    215 H215       -6.3556  -25.3086  -48.7861 H         1 UNK         0.3000 
    216 H216       -8.1707  -24.1488  -46.8446 H         1 UNK         0.0600 
    217 H217       -9.3470  -23.3602  -48.8990 H         1 UNK         0.0600 
    218 H218       -8.9483  -25.0648  -49.0295 H         1 UNK         0.0600 
    219 H219       -7.9870  -23.8641  -49.8946 H         1 UNK         0.0600 
    220 H220       -5.1997  -23.0931  -48.1674 H         1 UNK         0.3000 
    221 H221       -3.9972  -21.2519  -48.1812 H         1 UNK         0.0600 
    222 H222       -6.0754  -19.9333  -46.3542 H         1 UNK         0.0600 
    223 H223       -4.6483  -20.8239  -45.8279 H         1 UNK         0.0600 
    224 H224       -4.4735  -19.3204  -46.7162 H         1 UNK         0.0600 
    225 H225       -4.8441  -21.6503  -50.3963 H         1 UNK         0.3000 
    226 H226       -6.8364  -20.0789  -51.6346 H         1 UNK         0.0600 
    227 H227       -5.9795  -22.1955  -52.5832 H         1 UNK         0.0600 
    228 H228       -5.7535  -20.8915  -53.7386 H         1 UNK         0.0600 
    229 H229       -4.3813  -21.4868  -52.8136 H         1 UNK         0.0600 
    230 H230       -6.8120  -17.9179  -51.5988 H         1 UNK         0.3000 
    231 H231       -4.6088  -16.2449  -51.2791 H         1 UNK         0.0600 
    232 H232       -7.4185  -15.6038  -52.3226 H         1 UNK         0.0600 
    233 H233       -6.2777  -14.4263  -51.6835 H         1 UNK         0.0600 
    234 H234       -6.9290  -15.6682  -50.6282 H         1 UNK         0.0600 
    235 H235       -5.5185  -17.7331  -54.1934 H         1 UNK         0.3000 
    236 H236       -4.5063  -15.8301  -56.1092 H         1 UNK         0.0600 
    237 H237       -6.0264  -17.6909  -56.7522 H         1 UNK         0.0600 
    238 H238       -4.5037  -17.8247  -57.6170 H         1 UNK         0.0600 
    239 H239       -4.8248  -18.8796  -56.2457 H         1 UNK         0.0600 
    240 H240       -2.9936  -18.0436  -53.8440 H         1 UNK         0.3000 
    241 H241       -0.3749  -18.0708  -55.1020 H         1 UNK         0.0600 
    242 H242        0.9493  -15.0136  -53.8730 H         1 UNK         0.3800 
    243 H243        0.9866  -16.2538  -55.0927 H         1 UNK         0.3800 
    244 H244       -1.0486  -18.7290  -52.2008 H         1 UNK         0.0800 
    245 H245       -1.3352  -19.8623  -53.4905 H         1 UNK         0.0800 
    246 H246        0.0963  -21.4093  -51.8242 H         1 UNK         0.0800 
    247 H247        1.8397  -21.4062  -51.7866 H         1 UNK         0.0800 
@<TRIPOS>BOND
     1    1    2 1    
     2    1  127 1    
     3    1  128 1    
     4    1  129 1    
     5    2    3 2    
     6    2    4 am   BACKBONE|DICT|INTERRES
     7    4    5 1    
     8    4  130 1    
     9    5    6 1    
    10    5   65 1    
    11    5  131 1    
    12    6    7 1    
    13    6  132 1    
    14    6  133 1    
    15    7    8 1    
    16    8    9 1    
    17    8  134 1    
    18    8  135 1    
    19    9   10 ar   
    20    9   14 ar   
    21   10   11 ar   
    22   10  136 1    
    23   11   12 ar   
    24   11  126 1    
    25   12   13 ar   
    26   12  137 1    
    27   13   14 ar   
    28   13   15 1    
    29   14  138 1    
    30   15   16 1    
    31   15  139 1    
    32   15  140 1    
    33   16   17 1    
    34   17   18 1    
    35   17  141 1    
    36   17  142 1    
    37   18   19 1    
    38   18   67 1    
    39   18  143 1    
    40   19   20 am   BACKBONE|DICT|INTERRES
    41   19  144 1    
    42   20   21 2    
    43   20   22 1    
    44   22   23 1    
    45   22   24 1    
    46   22  145 1    
    47   23  146 1    
    48   23  147 1    
    49   23  148 1    
    50   24   25 am   BACKBONE|DICT|INTERRES
    51   24  149 1    
    52   25   26 2    
    53   25   27 1    
    54   27   28 1    
    55   27   29 1    
    56   27  150 1    
    57   28  151 1    
    58   28  152 1    
    59   28  153 1    
    60   29   30 am   BACKBONE|DICT|INTERRES
    61   29  154 1    
    62   30   31 2    
    63   30   32 1    
    64   32   33 1    
    65   32   34 1    
    66   32  155 1    
    67   33  156 1    
    68   33  157 1    
    69   33  158 1    
    70   34   35 am   BACKBONE|DICT|INTERRES
    71   34  159 1    
    72   35   36 2    
    73   35   37 1    
    74   37   38 1    
    75   37   39 1    
    76   37  160 1    
    77   38  161 1    
    78   38  162 1    
    79   38  163 1    
    80   39   40 am   BACKBONE|DICT|INTERRES
    81   39  164 1    
    82   40   41 2    
    83   40   42 1    
    84   42   43 1    
    85   42   44 1    
    86   42  165 1    
    87   43  166 1    
    88   43  167 1    
    89   43  168 1    
    90   44   45 am   BACKBONE|DICT|INTERRES
    91   44  169 1    
    92   45   46 2    
    93   45   47 1    
    94   47   48 1    
    95   47   49 1    
    96   47  170 1    
    97   48  171 1    
    98   48  172 1    
    99   48  173 1    
   100   49   50 am   BACKBONE|DICT|INTERRES
   101   49  174 1    
   102   50   51 2    
   103   50   52 1    
   104   52   53 1    
   105   52   54 1    
   106   52  175 1    
   107   53  176 1    
   108   53  177 1    
   109   53  178 1    
   110   54   55 am   BACKBONE|DICT|INTERRES
   111   54  179 1    
   112   55   56 2    
   113   55   57 1    
   114   57   58 1    
   115   57   59 1    
   116   57  180 1    
   117   58  181 1    
   118   58  182 1    
   119   58  183 1    
   120   59   60 am   BACKBONE|DICT|INTERRES
   121   59  184 1    
   122   60   61 2    
   123   60   62 1    
   124   62   63 1    
   125   62   64 1    
   126   62  185 1    
   127   63  186 1    
   128   63  187 1    
   129   63  188 1    
   130   64   65 am   BACKBONE|DICT|INTERRES
   131   64  189 1    
   132   65   66 2    
   133   67   68 2    
   134   67   69 am   BACKBONE|DICT|INTERRES
   135   69   70 1    
   136   69  190 1    
   137   70   71 1    
   138   70   72 1    
   139   70  191 1    
   140   71  192 1    
   141   71  193 1    
   142   71  194 1    
   143   72   73 2    
   144   72   74 am   BACKBONE|DICT|INTERRES
   145   74   75 1    
   146   74  195 1    
   147   75   76 1    
   148   75   77 1    
   149   75  196 1    
   150   76  197 1    
   151   76  198 1    
   152   76  199 1    
   153   77   78 2    
   154   77   79 am   BACKBONE|DICT|INTERRES
   155   79   80 1    
   156   79  200 1    
   157   80   81 1    
   158   80   82 1    
   159   80  201 1    
   160   81  202 1    
   161   81  203 1    
   162   81  204 1    
   163   82   83 2    
   164   82   84 am   BACKBONE|DICT|INTERRES
   165   84   85 1    
   166   84  205 1    
   167   85   86 1    
   168   85   87 1    
   169   85  206 1    
   170   86  207 1    
   171   86  208 1    
   172   86  209 1    
   173   87   88 2    
   174   87   89 am   BACKBONE|DICT|INTERRES
   175   89   90 1    
   176   89  210 1    
   177   90   91 1    
   178   90   92 1    
   179   90  211 1    
   180   91  212 1    
   181   91  213 1    
   182   91  214 1    
   183   92   93 2    
   184   92   94 am   BACKBONE|DICT|INTERRES
   185   94   95 1    
   186   94  215 1    
   187   95   96 1    
   188   95   97 1    
   189   95  216 1    
   190   96  217 1    
   191   96  218 1    
   192   96  219 1    
   193   97   98 2    
   194   97   99 am   BACKBONE|DICT|INTERRES
   195   99  100 1    
   196   99  220 1    
   197  100  101 1    
   198  100  102 1    
   199  100  221 1    
   200  101  222 1    
   201  101  223 1    
   202  101  224 1    
   203  102  103 2    
   204  102  104 am   BACKBONE|DICT|INTERRES
   205  104  105 1    
   206  104  225 1    
   207  105  106 1    
   208  105  107 1    
   209  105  226 1    
   210  106  227 1    
   211  106  228 1    
   212  106  229 1    
   213  107  108 2    
   214  107  109 am   BACKBONE|DICT|INTERRES
   215  109  110 1    
   216  109  230 1    
   217  110  111 1    
   218  110  112 1    
   219  110  231 1    
   220  111  232 1    
   221  111  233 1    
   222  111  234 1    
   223  112  113 2    
   224  112  114 am   BACKBONE|DICT|INTERRES
   225  114  115 1    
   226  114  235 1    
   227  115  116 1    
   228  115  117 1    
   229  115  236 1    
   230  116  237 1    
   231  116  238 1    
   232  116  239 1    
   233  117  118 2    
   234  117  119 am   BACKBONE|DICT|INTERRES
   235  119  120 1    
   236  119  240 1    
   237  120  121 1    
   238  120  124 1    
   239  120  241 1    
   240  121  122 am   BACKBONE|DICT|INTERRES
   241  121  123 2    
   242  122  242 1    
   243  122  243 1    
   244  124  125 1    
   245  124  244 1    
   246  124  245 1    
   247  125  126 1    
   248  126  246 1    
   249  126  247 1    
@<TRIPOS>SUBSTRUCTURE
     1 UNK         1 GROUP             0       ****    0 ROOT    
