@<TRIPOS>MOLECULE
3R540
247   249    1
SMALL
USER_CHARGES


@<TRIPOS>ATOM
      1 CA          7.3363  -13.5802  -50.2160 C.3       0 UNK        -0.1800 
      2 C           6.5959  -14.4426  -49.2042 C.2       0 UNK         0.5000 
      3 O           7.0185  -14.5393  -48.0513 O.2       0 UNK        -0.5000 
      4 N           5.4845  -15.0604  -49.6212 N.am      1 UNK        -0.5000 
      5 CA          4.6185  -15.9353  -48.8200 C.3       1 UNK         0.1400 
      6 C6          3.8475  -16.9541  -49.7020 C.3       23 UNK        -0.0398 
      7 S7          2.9724  -16.2230  -51.1361 S.3       23 UNK        -0.2404 
      8 C8          3.2697  -17.4737  -52.4292 C.3       23 UNK        -0.0205 
      9 C9          2.2997  -18.6440  -52.3285 C.ar      23 UNK        -0.0193 
     10 C10         1.2566  -18.7770  -53.2502 C.ar      23 UNK        -0.1150 
     11 C11         0.3781  -19.8619  -53.1762 C.ar      23 UNK        -0.0193 
     12 C12         0.5341  -20.8046  -52.1555 C.ar      23 UNK        -0.1150 
     13 C13         1.5611  -20.6776  -51.2155 C.ar      23 UNK        -0.0193 
     14 C14         2.4552  -19.6082  -51.3284 C.ar      23 UNK        -0.1150 
     15 C15         1.7294  -21.7260  -50.1192 C.3       23 UNK        -0.0205 
     16 S16         2.1080  -21.0226  -48.4768 S.3       23 UNK        -0.2404 
     17 C17         0.4661  -20.5102  -47.8680 C.3       23 UNK        -0.0398 
     18 CA         -0.0841  -21.4771  -46.7810 C.3       11 UNK         0.1400 
     19 N          -0.5114  -20.7689  -45.5648 N.am      11 UNK        -0.5000 
     20 C          -0.6823  -21.3454  -44.3642 C.2       10 UNK         0.5000 
     21 O          -0.5326  -22.5514  -44.1622 O.2       10 UNK        -0.5000 
     22 CA         -1.1617  -20.4395  -43.2210 C.3       10 UNK         0.1400 
     23 CB         -0.0057  -19.6079  -42.6503 C.3       10 UNK        -0.1800 
     24 N          -2.2348  -19.5540  -43.6715 N.am      10 UNK        -0.5000 
     25 C          -3.5365  -19.8725  -43.6393 C.2       9 UNK         0.5000 
     26 O          -3.9730  -20.9123  -43.1463 O.2       9 UNK        -0.5000 
     27 CA         -4.5193  -18.8768  -44.2850 C.3       9 UNK         0.1400 
     28 CB         -5.0805  -17.9076  -43.2342 C.3       9 UNK        -0.1800 
     29 N          -3.9151  -18.1216  -45.3855 N.am      9 UNK        -0.5000 
     30 C          -3.6283  -18.6634  -46.5790 C.2       8 UNK         0.5000 
     31 O          -3.8856  -19.8298  -46.8679 O.2       8 UNK        -0.5000 
     32 CA         -2.9076  -17.7886  -47.6220 C.3       8 UNK         0.1400 
     33 CB         -3.9133  -17.2216  -48.6347 C.3       8 UNK        -0.1800 
     34 N          -2.1220  -16.6907  -47.0628 N.am      8 UNK        -0.5000 
     35 C          -1.0889  -16.8188  -46.2207 C.2       7 UNK         0.5000 
     36 O          -0.6992  -17.9032  -45.7803 O.2       7 UNK        -0.5000 
     37 CA         -0.4002  -15.5193  -45.7575 C.3       7 UNK         0.1400 
     38 CB         -0.8745  -14.2468  -46.4920 C.3       7 UNK        -0.1800 
     39 N          -0.5000  -15.3162  -44.3116 N.am      7 UNK        -0.5000 
     40 C          -1.6028  -15.3676  -43.5485 C.2       6 UNK         0.5000 
     41 O          -2.7251  -15.6359  -43.9801 O.2       6 UNK        -0.5000 
     42 CA         -1.4298  -15.0556  -42.0505 C.3       6 UNK         0.1400 
     43 CB         -1.3510  -16.3512  -41.2321 C.3       6 UNK        -0.1800 
     44 N          -0.2370  -14.2469  -41.7894 N.am      6 UNK        -0.5000 
     45 C          -0.2050  -12.9090  -41.8750 C.2       5 UNK         0.5000 
     46 O          -1.2055  -12.2280  -42.1068 O.2       5 UNK        -0.5000 
     47 CA          1.1574  -12.1994  -41.7166 C.3       5 UNK         0.1400 
     48 CB          1.0836  -10.9862  -40.7659 C.3       5 UNK        -0.1800 
     49 N           2.2718  -13.0906  -41.3754 N.am      5 UNK        -0.5000 
     50 C           2.5263  -13.7143  -40.2160 C.2       4 UNK         0.5000 
     51 O           1.8445  -13.5830  -39.1988 O.2       4 UNK        -0.5000 
     52 CA          3.7519  -14.6581  -40.2154 C.3       4 UNK         0.1400 
     53 CB          3.6806  -15.7277  -39.1050 C.3       4 UNK        -0.1800 
     54 N           4.0122  -15.2837  -41.5221 N.am      4 UNK        -0.5000 
     55 C           3.1819  -16.0881  -42.2028 C.2       3 UNK         0.5000 
     56 O           2.0524  -16.3909  -41.8161 O.2       3 UNK        -0.5000 
     57 CA          3.6858  -16.5615  -43.5826 C.3       3 UNK         0.1400 
     58 CB          2.7304  -17.5661  -44.2548 C.3       3 UNK        -0.1800 
     59 N           3.9722  -15.4623  -44.5138 N.am      3 UNK        -0.5000 
     60 C           3.2048  -14.3978  -44.8022 C.2       2 UNK         0.5000 
     61 O           2.1656  -14.1087  -44.2112 O.2       2 UNK        -0.5000 
     62 CA          3.6723  -13.5103  -45.9693 C.3       2 UNK         0.1400 
     63 CB          4.6250  -12.4158  -45.4669 C.3       2 UNK        -0.1800 
     64 N           4.3287  -14.2790  -47.0283 N.am      2 UNK        -0.5000 
     65 C           3.7128  -15.1463  -47.8436 C.2       1 UNK         0.5000 
     66 O           2.4953  -15.3319  -47.8310 O.2       1 UNK        -0.5000 
     67 C          -1.1476  -22.4667  -47.3226 C.2       11 UNK         0.5000 
     68 O          -0.8464  -23.2666  -48.2106 O.2       11 UNK        -0.5000 
     69 N          -2.3550  -22.4562  -46.7376 N.am      12 UNK        -0.5000 
     70 CA         -3.3951  -23.4753  -46.8785 C.3       12 UNK         0.1400 
     71 CB         -4.6021  -23.0976  -46.0093 C.3       12 UNK        -0.1800 
     72 C          -2.9096  -24.8909  -46.5198 C.2       12 UNK         0.5000 
     73 O          -3.2788  -25.8466  -47.2009 O.2       12 UNK        -0.5000 
     74 N          -2.0561  -24.9931  -45.4918 N.am      13 UNK        -0.5000 
     75 CA         -1.4360  -26.2478  -45.0663 C.3       13 UNK         0.1400 
     76 CB         -0.8858  -26.0703  -43.6429 C.3       13 UNK        -0.1800 
     77 C          -0.3208  -26.7232  -46.0186 C.2       13 UNK         0.5000 
     78 O          -0.0047  -27.9134  -46.0264 O.2       13 UNK        -0.5000 
     79 N           0.2642  -25.7929  -46.7849 N.am      14 UNK        -0.5000 
     80 CA          1.3722  -26.0520  -47.6981 C.3       14 UNK         0.1400 
     81 CB          2.2903  -24.8214  -47.7476 C.3       14 UNK        -0.1800 
     82 C           0.8854  -26.4253  -49.1065 C.2       14 UNK         0.5000 
     83 O           1.3688  -27.4142  -49.6599 O.2       14 UNK        -0.5000 
     84 N          -0.0354  -25.6308  -49.6731 N.am      15 UNK        -0.5000 
     85 CA         -0.4391  -25.7482  -51.0783 C.3       15 UNK         0.1400 
     86 CB          0.5826  -25.0193  -51.9762 C.3       15 UNK        -0.1800 
     87 C          -1.8862  -25.2922  -51.3417 C.2       15 UNK         0.5000 
     88 O          -2.1885  -24.8788  -52.4619 O.2       15 UNK        -0.5000 
     89 N          -2.7630  -25.3858  -50.3283 N.am      16 UNK        -0.5000 
     90 CA         -4.2072  -25.1018  -50.4000 C.3       16 UNK         0.1400 
     91 CB         -4.9245  -26.1445  -51.2828 C.3       16 UNK        -0.1800 
     92 C          -4.5425  -23.6508  -50.8120 C.2       16 UNK         0.5000 
     93 O          -5.5650  -23.4085  -51.4561 O.2       16 UNK        -0.5000 
     94 N          -3.6785  -22.7045  -50.4190 N.am      17 UNK        -0.5000 
     95 CA         -3.7271  -21.2909  -50.7968 C.3       17 UNK         0.1400 
     96 CB         -2.5517  -20.5639  -50.1429 C.3       17 UNK        -0.1800 
     97 C          -5.0459  -20.5664  -50.4760 C.2       17 UNK         0.5000 
     98 O          -5.4527  -19.6936  -51.2395 O.2       17 UNK        -0.5000 
     99 N          -5.7134  -20.9569  -49.3826 N.am      18 UNK        -0.5000 
    100 CA        -7.0221  -20.4288  -48.9905 C.3       18 UNK         0.1400 
    101 CB        -7.3564  -20.9018  -47.5683 C.3       18 UNK        -0.1800 
    102 C         -8.1551  -20.8001  -49.9704 C.2       18 UNK         0.5000 
    103 O         -9.1230  -20.0468  -50.0801 O.2       18 UNK        -0.5000 
    104 N         -8.0141  -21.9357  -50.6686 N.am      19 UNK        -0.5000 
    105 CA        -8.9373  -22.3882  -51.7085 C.3       19 UNK         0.1400 
    106 CB        -9.0215  -23.9227  -51.6823 C.3       19 UNK        -0.1800 
    107 C         -8.4978  -21.8919  -53.0966 C.2       19 UNK         0.5000 
    108 O         -9.3468  -21.4946  -53.8951 O.2       19 UNK        -0.5000 
    109 N         -7.1829  -21.9178  -53.3588 N.am      20 UNK        -0.5000 
    110 CA        -6.5747  -21.5025  -54.6258 C.3       20 UNK         0.1400 
    111 CB        -5.1429  -22.0547  -54.6937 C.3       20 UNK        -0.1800 
    112 C         -6.5745  -19.9768  -54.8526 C.2       20 UNK         0.5000 
    113 O         -6.4314  -19.5407  -55.9955 O.2       20 UNK        -0.5000 
    114 N         -6.7026  -19.1973  -53.7699 N.am      21 UNK        -0.5000 
    115 CA        -6.7009  -17.7326  -53.6598 C.3       21 UNK         0.1400 
    116 CB        -7.7890  -17.0854  -54.5375 C.3       21 UNK        -0.1800 
    117 C         -5.3216  -17.0864  -53.8938 C.2       21 UNK         0.5000 
    118 O         -4.9535  -16.1765  -53.1499 O.2       21 UNK        -0.5000 
    119 N         -4.5812  -17.5754  -54.8962 N.am      22 UNK        -0.5000 
    120 CA        -3.1836  -17.2251  -55.2145 C.3       22 UNK         0.1400 
    121 C         -2.9677  -15.7697  -55.7331 C.2       22 UNK         0.5000 
    122 N         -4.0048  -15.0577  -56.1571 N.am      22 UNK        -0.7600 
    123 O         -1.8404  -15.2853  -55.7889 O.2       22 UNK        -0.5000 
    124 C124       -2.1922  -17.6100  -54.0774 C.3       23 UNK        -0.0398 
    125 S125       -2.3116  -19.3773  -53.6320 S.3       23 UNK        -0.2404 
    126 C126       -0.7219  -20.0403  -54.2122 C.3       23 UNK        -0.0205 
    127 H127        8.3554  -13.9447  -50.3447 H         1 UNK         0.0600 
    128 H128        7.3831  -12.5489  -49.8666 H         1 UNK         0.0600 
    129 H129        6.8466  -13.5879  -51.1901 H         1 UNK         0.0600 
    130 H130        5.1666  -14.9141  -50.5694 H         1 UNK         0.3000 
    131 H131        5.2686  -16.5315  -48.1757 H         1 UNK         0.0600 
    132 H132        4.5700  -17.6812  -50.0730 H         1 UNK         0.0800 
    133 H133        3.1359  -17.5327  -49.1096 H         1 UNK         0.0800 
    134 H134        3.1694  -16.9888  -53.4014 H         1 UNK         0.0800 
    135 H135        4.2981  -17.8345  -52.3822 H         1 UNK         0.0800 
    136 H136        1.1391  -18.0447  -54.0362 H         1 UNK         0.1150 
    137 H137       -0.1442  -21.6444  -52.1040 H         1 UNK         0.1150 
    138 H138        3.2727  -19.5267  -50.6286 H         1 UNK         0.1150 
    139 H139        0.8385  -22.3489  -50.0390 H         1 UNK         0.0800 
    140 H140        2.5441  -22.3917  -50.4064 H         1 UNK         0.0800 
    141 H141        0.6012  -19.5088  -47.4584 H         1 UNK         0.0800 
    142 H142       -0.2179  -20.3807  -48.7040 H         1 UNK         0.0800 
    143 H143        0.7395  -22.1171  -46.4567 H         1 UNK         0.0600 
    144 H144       -0.6344  -19.7619  -45.6451 H         1 UNK         0.3000 
    145 H145       -1.5253  -21.0884  -42.4211 H         1 UNK         0.0600 
    146 H146        0.8881  -20.2154  -42.5017 H         1 UNK         0.0600 
    147 H147        0.2588  -18.7800  -43.3072 H         1 UNK         0.0600 
    148 H148       -0.2739  -19.1947  -41.6790 H         1 UNK         0.0600 
    149 H149       -1.9542  -18.7031  -44.1422 H         1 UNK         0.3000 
    150 H150       -5.3555  -19.4532  -44.6872 H         1 UNK         0.0600 
    151 H151       -5.6237  -18.4494  -42.4589 H         1 UNK         0.0600 
    152 H152       -5.7750  -17.1966  -43.6817 H         1 UNK         0.0600 
    153 H153       -4.2907  -17.3419  -42.7411 H         1 UNK         0.0600 
    154 H154       -3.6387  -17.1657  -45.1887 H         1 UNK         0.3000 
    155 H155       -2.2110  -18.4359  -48.1561 H         1 UNK         0.0600 
    156 H156       -3.4053  -16.7190  -49.4582 H         1 UNK         0.0600 
    157 H157       -4.5923  -16.5063  -48.1692 H         1 UNK         0.0600 
    158 H158       -4.5233  -18.0135  -49.0692 H         1 UNK         0.0600 
    159 H159       -2.3938  -15.7590  -47.3406 H         1 UNK         0.3000 
    160 H160        0.6578  -15.6519  -45.9786 H         1 UNK         0.0600 
    161 H161       -1.9225  -14.0212  -46.2911 H         1 UNK         0.0600 
    162 H162       -0.7455  -14.3410  -47.5712 H         1 UNK         0.0600 
    163 H163       -0.2875  -13.3832  -46.1784 H         1 UNK         0.0600 
    164 H164        0.3750  -15.0640  -43.8654 H         1 UNK         0.3000 
    165 H165       -2.3185  -14.5112  -41.7245 H         1 UNK         0.0600 
    166 H166       -0.4642  -16.9272  -41.4884 H         1 UNK         0.0600 
    167 H167       -1.3141  -16.1402  -40.1633 H         1 UNK         0.0600 
    168 H168       -2.2192  -16.9865  -41.4106 H         1 UNK         0.0600 
    169 H169        0.6257  -14.7521  -41.6225 H         1 UNK         0.3000 
    170 H170        1.3964  -11.8128  -42.7084 H         1 UNK         0.0600 
    171 H171        0.3830  -10.2395  -41.1414 H         1 UNK         0.0600 
    172 H172        0.7479  -11.2691  -39.7682 H         1 UNK         0.0600 
    173 H173        2.0538  -10.4987  -40.6705 H         1 UNK         0.0600 
    174 H174        2.8534  -13.3401  -42.1642 H         1 UNK         0.3000 
    175 H175        4.6147  -14.0250  -40.0041 H         1 UNK         0.0600 
    176 H176        2.7990  -16.3612  -39.2081 H         1 UNK         0.0600 
    177 H177        4.5599  -16.3715  -39.1205 H         1 UNK         0.0600 
    178 H178        3.6367  -15.2659  -38.1180 H         1 UNK         0.0600 
    179 H179        4.9041  -15.0605  -41.9421 H         1 UNK         0.3000 
    180 H180        4.6313  -17.0767  -43.4071 H         1 UNK         0.0600 
    181 H181        1.7412  -17.1394  -44.4142 H         1 UNK         0.0600 
    182 H182        2.6114  -18.4570  -43.6380 H         1 UNK         0.0600 
    183 H183        3.1116  -17.8918  -45.2227 H         1 UNK         0.0600 
    184 H184        4.8212  -15.5672  -45.0505 H         1 UNK         0.3000 
    185 H185        2.7887  -13.0284  -46.3933 H         1 UNK         0.0600 
    186 H186        4.9050  -11.7379  -46.2734 H         1 UNK         0.0600 
    187 H187        4.1538  -11.8155  -44.6873 H         1 UNK         0.0600 
    188 H188        5.5408  -12.8371  -45.0503 H         1 UNK         0.0600 
    189 H189        5.3351  -14.1798  -47.1241 H         1 UNK         0.3000 
    190 H190       -2.5469  -21.7200  -46.0729 H         1 UNK         0.3000 
    191 H191       -3.7151  -23.4850  -47.9162 H         1 UNK         0.0600 
    192 H192       -5.4125  -23.8178  -46.1286 H         1 UNK         0.0600 
    193 H193       -4.9958  -22.1204  -46.2802 H         1 UNK         0.0600 
    194 H194       -4.3417  -23.0674  -44.9505 H         1 UNK         0.0600 
    195 H195       -1.7714  -24.1554  -44.9967 H         1 UNK         0.3000 
    196 H196       -2.2031  -27.0248  -45.0408 H         1 UNK         0.0600 
    197 H197       -0.4480  -26.9987  -43.2738 H         1 UNK         0.0600 
    198 H198       -1.6750  -25.7845  -42.9474 H         1 UNK         0.0600 
    199 H199       -0.1109  -25.3035  -43.6043 H         1 UNK         0.0600 
    200 H200       -0.0936  -24.8495  -46.7599 H         1 UNK         0.3000 
    201 H201        1.9669  -26.8859  -47.3183 H         1 UNK         0.0600 
    202 H202        2.6846  -24.5821  -46.7600 H         1 UNK         0.0600 
    203 H203        1.7659  -23.9430  -48.1193 H         1 UNK         0.0600 
    204 H204        3.1425  -24.9954  -48.4057 H         1 UNK         0.0600 
    205 H205       -0.3749  -24.8177  -49.1639 H         1 UNK         0.3000 
    206 H206       -0.4304  -26.8037  -51.3575 H         1 UNK         0.0600 
    207 H207        1.5956  -25.3858  -51.8099 H         1 UNK         0.0600 
    208 H208        0.3601  -25.1705  -53.0331 H         1 UNK         0.0600 
    209 H209        0.5807  -23.9462  -51.7919 H         1 UNK         0.0600 
    210 H210       -2.4356  -25.7476  -49.4417 H         1 UNK         0.3000 
    211 H211       -4.5990  -25.2206  -49.3903 H         1 UNK         0.0600 
    212 H212       -4.6474  -26.0467  -52.3328 H         1 UNK         0.0600 
    213 H213       -6.0076  -26.0323  -51.2205 H         1 UNK         0.0600 
    214 H214       -4.6873  -27.1598  -50.9653 H         1 UNK         0.0600 
    215 H215       -2.8544  -23.0016  -49.9167 H         1 UNK         0.3000 
    216 H216       -3.5907  -21.2541  -51.8762 H         1 UNK         0.0600 
    217 H217       -2.5033  -19.5222  -50.4630 H         1 UNK         0.0600 
    218 H218       -1.6092  -21.0342  -50.4125 H         1 UNK         0.0600 
    219 H219       -2.6369  -20.5787  -49.0583 H         1 UNK         0.0600 
    220 H220       -5.2982  -21.6511  -48.7810 H         1 UNK         0.3000 
    221 H221       -6.9522  -19.3390  -48.9743 H         1 UNK         0.0600 
    222 H222       -7.3572  -21.9898  -47.4940 H         1 UNK         0.0600 
    223 H223       -6.6383  -20.5110  -46.8476 H         1 UNK         0.0600 
    224 H224       -8.3419  -20.5504  -47.2599 H         1 UNK         0.0600 
    225 H225       -7.1605  -22.4717  -50.5654 H         1 UNK         0.3000 
    226 H226       -9.9378  -21.9969  -51.5119 H         1 UNK         0.0600 
    227 H227       -9.3650  -24.2810  -50.7118 H         1 UNK         0.0600 
    228 H228       -9.7261  -24.2863  -52.4312 H         1 UNK         0.0600 
    229 H229       -8.0568  -24.3876  -51.8880 H         1 UNK         0.0600 
    230 H230       -6.5581  -22.3164  -52.6635 H         1 UNK         0.3000 
    231 H231       -7.1482  -21.9514  -55.4394 H         1 UNK         0.0600 
    232 H232       -4.6802  -21.8273  -55.6549 H         1 UNK         0.0600 
    233 H233       -5.1285  -23.1382  -54.5727 H         1 UNK         0.0600 
    234 H234       -4.5112  -21.6235  -53.9188 H         1 UNK         0.0600 
    235 H235       -6.6716  -19.6671  -52.8715 H         1 UNK         0.3000 
    236 H236       -6.9621  -17.5289  -52.6200 H         1 UNK         0.0600 
    237 H237       -8.7681  -17.5192  -54.3341 H         1 UNK         0.0600 
    238 H238       -7.8592  -16.0154  -54.3386 H         1 UNK         0.0600 
    239 H239       -7.5833  -17.2033  -55.6015 H         1 UNK         0.0600 
    240 H240       -5.0008  -18.3026  -55.4661 H         1 UNK         0.3000 
    241 H241       -2.9297  -17.8475  -56.0731 H         1 UNK         0.0600 
    242 H242       -4.9350  -15.4432  -56.1261 H         1 UNK         0.3800 
    243 H243       -3.8587  -14.1221  -56.5026 H         1 UNK         0.3800 
    244 H244       -1.1661  -17.3861  -54.3697 H         1 UNK         0.0800 
    245 H245       -2.3831  -17.0162  -53.1828 H         1 UNK         0.0800 
    246 H246       -0.4443  -19.5763  -55.1599 H         1 UNK         0.0800 
    247 H247       -0.8482  -21.1031  -54.4244 H         1 UNK         0.0800 
@<TRIPOS>BOND
     1    1    2 1    
     2    1  127 1    
     3    1  128 1    
     4    1  129 1    
     5    2    3 2    
     6    2    4 am   BACKBONE|DICT|INTERRES
     7    4    5 1    
     8    4  130 1    
     9    5    6 1    
    10    5   65 1    
    11    5  131 1    
    12    6    7 1    
    13    6  132 1    
    14    6  133 1    
    15    7    8 1    
    16    8    9 1    
    17    8  134 1    
    18    8  135 1    
    19    9   10 ar   
    20    9   14 ar   
    21   10   11 ar   
    22   10  136 1    
    23   11   12 ar   
    24   11  126 1    
    25   12   13 ar   
    26   12  137 1    
    27   13   14 ar   
    28   13   15 1    
    29   14  138 1    
    30   15   16 1    
    31   15  139 1    
    32   15  140 1    
    33   16   17 1    
    34   17   18 1    
    35   17  141 1    
    36   17  142 1    
    37   18   19 1    
    38   18   67 1    
    39   18  143 1    
    40   19   20 am   BACKBONE|DICT|INTERRES
    41   19  144 1    
    42   20   21 2    
    43   20   22 1    
    44   22   23 1    
    45   22   24 1    
    46   22  145 1    
    47   23  146 1    
    48   23  147 1    
    49   23  148 1    
    50   24   25 am   BACKBONE|DICT|INTERRES
    51   24  149 1    
    52   25   26 2    
    53   25   27 1    
    54   27   28 1    
    55   27   29 1    
    56   27  150 1    
    57   28  151 1    
    58   28  152 1    
    59   28  153 1    
    60   29   30 am   BACKBONE|DICT|INTERRES
    61   29  154 1    
    62   30   31 2    
    63   30   32 1    
    64   32   33 1    
    65   32   34 1    
    66   32  155 1    
    67   33  156 1    
    68   33  157 1    
    69   33  158 1    
    70   34   35 am   BACKBONE|DICT|INTERRES
    71   34  159 1    
    72   35   36 2    
    73   35   37 1    
    74   37   38 1    
    75   37   39 1    
    76   37  160 1    
    77   38  161 1    
    78   38  162 1    
    79   38  163 1    
    80   39   40 am   BACKBONE|DICT|INTERRES
    81   39  164 1    
    82   40   41 2    
    83   40   42 1    
    84   42   43 1    
    85   42   44 1    
    86   42  165 1    
    87   43  166 1    
    88   43  167 1    
    89   43  168 1    
    90   44   45 am   BACKBONE|DICT|INTERRES
    91   44  169 1    
    92   45   46 2    
    93   45   47 1    
    94   47   48 1    
    95   47   49 1    
    96   47  170 1    
    97   48  171 1    
    98   48  172 1    
    99   48  173 1    
   100   49   50 am   BACKBONE|DICT|INTERRES
   101   49  174 1    
   102   50   51 2    
   103   50   52 1    
   104   52   53 1    
   105   52   54 1    
   106   52  175 1    
   107   53  176 1    
   108   53  177 1    
   109   53  178 1    
   110   54   55 am   BACKBONE|DICT|INTERRES
   111   54  179 1    
   112   55   56 2    
   113   55   57 1    
   114   57   58 1    
   115   57   59 1    
   116   57  180 1    
   117   58  181 1    
   118   58  182 1    
   119   58  183 1    
   120   59   60 am   BACKBONE|DICT|INTERRES
   121   59  184 1    
   122   60   61 2    
   123   60   62 1    
   124   62   63 1    
   125   62   64 1    
   126   62  185 1    
   127   63  186 1    
   128   63  187 1    
   129   63  188 1    
   130   64   65 am   BACKBONE|DICT|INTERRES
   131   64  189 1    
   132   65   66 2    
   133   67   68 2    
   134   67   69 am   BACKBONE|DICT|INTERRES
   135   69   70 1    
   136   69  190 1    
   137   70   71 1    
   138   70   72 1    
   139   70  191 1    
   140   71  192 1    
   141   71  193 1    
   142   71  194 1    
   143   72   73 2    
   144   72   74 am   BACKBONE|DICT|INTERRES
   145   74   75 1    
   146   74  195 1    
   147   75   76 1    
   148   75   77 1    
   149   75  196 1    
   150   76  197 1    
   151   76  198 1    
   152   76  199 1    
   153   77   78 2    
   154   77   79 am   BACKBONE|DICT|INTERRES
   155   79   80 1    
   156   79  200 1    
   157   80   81 1    
   158   80   82 1    
   159   80  201 1    
   160   81  202 1    
   161   81  203 1    
   162   81  204 1    
   163   82   83 2    
   164   82   84 am   BACKBONE|DICT|INTERRES
   165   84   85 1    
   166   84  205 1    
   167   85   86 1    
   168   85   87 1    
   169   85  206 1    
   170   86  207 1    
   171   86  208 1    
   172   86  209 1    
   173   87   88 2    
   174   87   89 am   BACKBONE|DICT|INTERRES
   175   89   90 1    
   176   89  210 1    
   177   90   91 1    
   178   90   92 1    
   179   90  211 1    
   180   91  212 1    
   181   91  213 1    
   182   91  214 1    
   183   92   93 2    
   184   92   94 am   BACKBONE|DICT|INTERRES
   185   94   95 1    
   186   94  215 1    
   187   95   96 1    
   188   95   97 1    
   189   95  216 1    
   190   96  217 1    
   191   96  218 1    
   192   96  219 1    
   193   97   98 2    
   194   97   99 am   BACKBONE|DICT|INTERRES
   195   99  100 1    
   196   99  220 1    
   197  100  101 1    
   198  100  102 1    
   199  100  221 1    
   200  101  222 1    
   201  101  223 1    
   202  101  224 1    
   203  102  103 2    
   204  102  104 am   BACKBONE|DICT|INTERRES
   205  104  105 1    
   206  104  225 1    
   207  105  106 1    
   208  105  107 1    
   209  105  226 1    
   210  106  227 1    
   211  106  228 1    
   212  106  229 1    
   213  107  108 2    
   214  107  109 am   BACKBONE|DICT|INTERRES
   215  109  110 1    
   216  109  230 1    
   217  110  111 1    
   218  110  112 1    
   219  110  231 1    
   220  111  232 1    
   221  111  233 1    
   222  111  234 1    
   223  112  113 2    
   224  112  114 am   BACKBONE|DICT|INTERRES
   225  114  115 1    
   226  114  235 1    
   227  115  116 1    
   228  115  117 1    
   229  115  236 1    
   230  116  237 1    
   231  116  238 1    
   232  116  239 1    
   233  117  118 2    
   234  117  119 am   BACKBONE|DICT|INTERRES
   235  119  120 1    
   236  119  240 1    
   237  120  121 1    
   238  120  124 1    
   239  120  241 1    
   240  121  122 am   BACKBONE|DICT|INTERRES
   241  121  123 2    
   242  122  242 1    
   243  122  243 1    
   244  124  125 1    
   245  124  244 1    
   246  124  245 1    
   247  125  126 1    
   248  126  246 1    
   249  126  247 1    
@<TRIPOS>SUBSTRUCTURE
     1 UNK         1 GROUP             0       ****    0 ROOT    
