@<TRIPOS>MOLECULE
3R540
247   249    1
SMALL
USER_CHARGES


@<TRIPOS>ATOM
      1 CA          5.8178  -13.5631  -49.2158 C.3       0 UNK        -0.1800 
      2 C           4.4151  -14.0741  -49.5081 C.2       0 UNK         0.5000 
      3 O           3.4354  -13.3972  -49.1894 O.2       0 UNK        -0.5000 
      4 N           4.3074  -15.2606  -50.1219 N.am      1 UNK        -0.5000 
      5 CA          3.0620  -15.9599  -50.4773 C.3       1 UNK         0.1400 
      6 C6          3.2918  -17.4860  -50.6502 C.3       23 UNK        -0.0398 
      7 S7          3.2573  -18.3420  -49.0387 S.3       23 UNK        -0.2404 
      8 C8          1.7002  -19.2874  -49.1423 C.3       23 UNK        -0.0205 
      9 C9          0.4453  -18.4289  -49.0050 C.ar      23 UNK        -0.0193 
     10 C10        -0.1466  -17.8442  -50.1313 C.ar      23 UNK        -0.1150 
     11 C11        -1.3533  -17.1466  -50.0222 C.ar      23 UNK        -0.0193 
     12 C12        -1.9765  -17.0462  -48.7780 C.ar      23 UNK        -0.1150 
     13 C13        -1.4015  -17.6242  -47.6448 C.ar      23 UNK        -0.0193 
     14 C14        -0.1775  -18.2914  -47.7595 C.ar      23 UNK        -0.1150 
     15 C15        -2.1180  -17.5285  -46.3070 C.3       23 UNK        -0.0205 
     16 S16        -3.0085  -19.0632  -45.8991 S.3       23 UNK        -0.2404 
     17 C17        -1.7376  -19.9937  -44.9800 C.3       23 UNK        -0.0398 
     18 CA         -1.0933  -21.1267  -45.8123 C.3       11 UNK         0.1400 
     19 N           0.2504  -21.4477  -45.3365 N.am      11 UNK        -0.5000 
     20 C           1.0916  -22.3156  -45.9128 C.2       10 UNK         0.5000 
     21 O           0.8550  -22.9109  -46.9636 O.2       10 UNK        -0.5000 
     22 CA          2.3956  -22.6026  -45.1523 C.3       10 UNK         0.1400 
     23 CB          3.4552  -21.5389  -45.4772 C.3       10 UNK        -0.1800 
     24 N           2.1774  -22.6652  -43.7047 N.am      10 UNK        -0.5000 
     25 C           1.4855  -23.6340  -43.0867 C.2       9 UNK         0.5000 
     26 O           0.9912  -24.5985  -43.6692 O.2       9 UNK        -0.5000 
     27 CA          1.2648  -23.4706  -41.5719 C.3       9 UNK         0.1400 
     28 CB          2.5336  -23.8434  -40.7905 C.3       9 UNK        -0.1800 
     29 N           0.8469  -22.1158  -41.2092 N.am      9 UNK        -0.5000 
     30 C          -0.3140  -21.5566  -41.5791 C.2       8 UNK         0.5000 
     31 O          -1.1752  -22.1410  -42.2359 O.2       8 UNK        -0.5000 
     32 CA         -0.5321  -20.0805  -41.1942 C.3       8 UNK         0.1400 
     33 CB         -1.1817  -19.9741  -39.8072 C.3       8 UNK        -0.1800 
     34 N           0.6830  -19.2610  -41.2217 N.am      8 UNK        -0.5000 
     35 C           1.4903  -19.1015  -42.2791 C.2       7 UNK         0.5000 
     36 O           1.3408  -19.7008  -43.3449 O.2       7 UNK        -0.5000 
     37 CA          2.6327  -18.0877  -42.1072 C.3       7 UNK         0.1400 
     38 CB          3.5738  -18.0432  -43.3247 C.3       7 UNK        -0.1800 
     39 N           2.0606  -16.7603  -41.8987 N.am      7 UNK        -0.5000 
     40 C           1.8737  -16.1736  -40.7087 C.2       6 UNK         0.5000 
     41 O           2.1891  -16.6975  -39.6397 O.2       6 UNK        -0.5000 
     42 CA          1.2171  -14.7774  -40.6972 C.3       6 UNK         0.1400 
     43 CB          2.2901  -13.6837  -40.5847 C.3       6 UNK        -0.1800 
     44 N           0.3947  -14.5121  -41.8783 N.am      6 UNK        -0.5000 
     45 C          -0.7944  -15.0782  -42.1259 C.2       5 UNK         0.5000 
     46 O          -1.3676  -15.8335  -41.3403 O.2       5 UNK        -0.5000 
     47 CA         -1.4422  -14.7692  -43.4921 C.3       5 UNK         0.1400 
     48 CB         -2.4513  -13.6187  -43.3635 C.3       5 UNK        -0.1800 
     49 N          -0.4922  -14.4488  -44.5651 N.am      5 UNK        -0.5000 
     50 C           0.4953  -15.2415  -44.9998 C.2       4 UNK         0.5000 
     51 O           0.7565  -16.3282  -44.4845 O.2       4 UNK        -0.5000 
     52 CA          1.3173  -14.7397  -46.2047 C.3       4 UNK         0.1400 
     53 CB          2.4275  -15.7333  -46.5853 C.3       4 UNK        -0.1800 
     54 N           0.4859  -14.4597  -47.3831 N.am      4 UNK        -0.5000 
     55 C          -0.2655  -13.3611  -47.5448 C.2       3 UNK         0.5000 
     56 O          -0.3556  -12.4807  -46.6862 O.2       3 UNK        -0.5000 
     57 CA         -0.9954  -13.2069  -48.8921 C.3       3 UNK         0.1400 
     58 CB         -1.8690  -11.9325  -48.9391 C.3       3 UNK        -0.1800 
     59 N           0.0047  -13.2076  -49.9597 N.am      3 UNK        -0.5000 
     60 C          -0.2239  -13.2085  -51.2838 C.2       2 UNK         0.5000 
     61 O          -1.3454  -13.1950  -51.7892 O.2       2 UNK        -0.5000 
     62 CA          1.0123  -13.2605  -52.2038 C.3       2 UNK         0.1400 
     63 CB          1.4975  -11.8423  -52.5399 C.3       2 UNK        -0.1800 
     64 N           2.0879  -13.9909  -51.5424 N.am      2 UNK        -0.5000 
     65 C           2.3083  -15.3026  -51.6584 C.2       1 UNK         0.5000 
     66 O           1.9054  -15.9771  -52.6061 O.2       1 UNK        -0.5000 
     67 C          -1.9923  -22.3757  -45.8792 C.2       11 UNK         0.5000 
     68 O          -2.6260  -22.6109  -46.9062 O.2       11 UNK        -0.5000 
     69 N          -2.0026  -23.1780  -44.8080 N.am      12 UNK        -0.5000 
     70 CA         -2.7324  -24.4413  -44.7414 C.3       12 UNK         0.1400 
     71 CB         -2.7401  -24.9493  -43.2919 C.3       12 UNK        -0.1800 
     72 C          -2.1647  -25.5106  -45.6931 C.2       12 UNK         0.5000 
     73 O          -2.9390  -26.1770  -46.3798 O.2       12 UNK        -0.5000 
     74 N          -0.8336  -25.6624  -45.7090 N.am      13 UNK        -0.5000 
     75 CA         -0.1377  -26.7061  -46.4591 C.3       13 UNK         0.1400 
     76 CB          1.2915  -26.8661  -45.9164 C.3       13 UNK        -0.1800 
     77 C          -0.1141  -26.4695  -47.9785 C.2       13 UNK         0.5000 
     78 O          -0.4891  -27.3678  -48.7333 O.2       13 UNK        -0.5000 
     79 N           0.3647  -25.2934  -48.4028 N.am      14 UNK        -0.5000 
     80 CA          0.6566  -24.9960  -49.8048 C.3       14 UNK         0.1400 
     81 CB          1.9400  -24.1533  -49.8928 C.3       14 UNK        -0.1800 
     82 C          -0.5056  -24.2760  -50.4994 C.2       14 UNK         0.5000 
     83 O          -0.8446  -24.6297  -51.6292 O.2       14 UNK        -0.5000 
     84 N          -1.0862  -23.2741  -49.8263 N.am      15 UNK        -0.5000 
     85 CA         -2.1280  -22.4149  -50.3958 C.3       15 UNK         0.1400 
     86 CB         -1.9620  -20.9913  -49.8458 C.3       15 UNK        -0.1800 
     87 C          -3.5546  -22.9384  -50.1551 C.2       15 UNK         0.5000 
     88 O          -4.4959  -22.3388  -50.6715 O.2       15 UNK        -0.5000 
     89 N          -3.6992  -24.0150  -49.3674 N.am      16 UNK        -0.5000 
     90 CA         -4.9581  -24.6548  -48.9662 C.3       16 UNK         0.1400 
     91 CB         -5.5988  -25.3826  -50.1655 C.3       16 UNK        -0.1800 
     92 C          -5.9243  -23.6813  -48.2547 C.2       16 UNK         0.5000 
     93 O          -7.1205  -23.6663  -48.5485 O.2       16 UNK        -0.5000 
     94 N          -5.3626  -22.8765  -47.3411 N.am      17 UNK        -0.5000 
     95 CA         -5.9937  -21.7840  -46.5965 C.3       17 UNK         0.1400 
     96 CB         -7.1413  -22.2946  -45.6999 C.3       17 UNK        -0.1800 
     97 C          -6.3938  -20.6155  -47.5203 C.2       17 UNK         0.5000 
     98 O          -7.5200  -20.1202  -47.4477 O.2       17 UNK        -0.5000 
     99 N          -5.4370  -20.2007  -48.3642 N.am      18 UNK        -0.5000 
    100 CA        -5.5083  -19.0922  -49.3224 C.3       18 UNK         0.1400 
    101 CB        -5.6436  -17.7414  -48.5883 C.3       18 UNK        -0.1800 
    102 C         -6.5853  -19.2990  -50.4079 C.2       18 UNK         0.5000 
    103 O         -7.3516  -18.3809  -50.7085 O.2       18 UNK        -0.5000 
    104 N         -6.6356  -20.5118  -50.9696 N.am      19 UNK        -0.5000 
    105 CA        -7.5327  -20.8776  -52.0592 C.3       19 UNK         0.1400 
    106 CB        -7.7537  -22.3973  -52.0369 C.3       19 UNK        -0.1800 
    107 C         -6.9441  -20.4408  -53.4110 C.2       19 UNK         0.5000 
    108 O         -5.7490  -20.6342  -53.6493 O.2       19 UNK        -0.5000 
    109 N         -7.8127  -19.9070  -54.2814 N.am      20 UNK        -0.5000 
    110 CA        -7.5319  -19.4657  -55.6523 C.3       20 UNK         0.1400 
    111 CB        -7.2719  -20.6913  -56.5583 C.3       20 UNK        -0.1800 
    112 C         -6.4245  -18.3882  -55.7301 C.2       20 UNK         0.5000 
    113 O         -6.2869  -17.5785  -54.8099 O.2       20 UNK        -0.5000 
    114 N         -5.6658  -18.3775  -56.8323 N.am      21 UNK        -0.5000 
    115 CA        -4.5374  -17.4813  -57.0756 C.3       21 UNK         0.1400 
    116 CB        -4.4076  -17.2542  -58.5930 C.3       21 UNK        -0.1800 
    117 C         -3.2506  -18.0488  -56.4445 C.2       21 UNK         0.5000 
    118 O         -2.3254  -18.4357  -57.1620 O.2       21 UNK        -0.5000 
    119 N         -3.2316  -18.1228  -55.1093 N.am      22 UNK        -0.5000 
    120 CA        -2.0703  -18.5253  -54.3028 C.3       22 UNK         0.1400 
    121 C         -0.8630  -17.5471  -54.3974 C.2       22 UNK         0.5000 
    122 N          0.3219  -17.9899  -54.0002 N.am      22 UNK        -0.7600 
    123 O         -0.9939  -16.3821  -54.7683 O.2       22 UNK        -0.5000 
    124 C124       -2.4623  -18.8083  -52.8259 C.3       23 UNK        -0.0398 
    125 S125       -3.3354  -17.4419  -51.9797 S.3       23 UNK        -0.2404 
    126 C126       -1.9797  -16.4751  -51.2348 C.3       23 UNK        -0.0205 
    127 H127        5.9811  -12.6092  -49.7171 H         1 UNK         0.0600 
    128 H128        6.5830  -14.2620  -49.5544 H         1 UNK         0.0600 
    129 H129        5.9445  -13.4126  -48.1437 H         1 UNK         0.0600 
    130 H130        5.1553  -15.7495  -50.3711 H         1 UNK         0.3000 
    131 H131        2.3718  -15.8347  -49.6408 H         1 UNK         0.0600 
    132 H132        2.5505  -17.9571  -51.2940 H         1 UNK         0.0800 
    133 H133        4.2492  -17.6800  -51.1354 H         1 UNK         0.0800 
    134 H134        1.7081  -20.0436  -48.3554 H         1 UNK         0.0800 
    135 H135        1.6709  -19.8439  -50.0803 H         1 UNK         0.0800 
    136 H136        0.3169  -17.9460  -51.1009 H         1 UNK         0.1150 
    137 H137       -2.9154  -16.5178  -48.6963 H         1 UNK         0.1150 
    138 H138        0.2735  -18.7351  -46.8831 H         1 UNK         0.1150 
    139 H139       -1.4100  -17.2881  -45.5183 H         1 UNK         0.0800 
    140 H140       -2.8348  -16.7063  -46.3237 H         1 UNK         0.0800 
    141 H141       -2.1895  -20.3814  -44.0661 H         1 UNK         0.0800 
    142 H142       -0.9712  -19.2945  -44.6447 H         1 UNK         0.0800 
    143 H143       -0.9652  -20.7742  -46.8355 H         1 UNK         0.0600 
    144 H144        0.5682  -20.9600  -44.5024 H         1 UNK         0.3000 
    145 H145        2.7718  -23.5726  -45.4838 H         1 UNK         0.0600 
    146 H146        4.3921  -21.7415  -44.9584 H         1 UNK         0.0600 
    147 H147        3.6717  -21.5213  -46.5462 H         1 UNK         0.0600 
    148 H148        3.1246  -20.5383  -45.1976 H         1 UNK         0.0600 
    149 H149        2.4860  -21.8689  -43.1666 H         1 UNK         0.3000 
    150 H150        0.4696  -24.1588  -41.2770 H         1 UNK         0.0600 
    151 H151        2.8591  -24.8552  -41.0361 H         1 UNK         0.0600 
    152 H152        2.3571  -23.8123  -39.7152 H         1 UNK         0.0600 
    153 H153        3.3609  -23.1688  -41.0146 H         1 UNK         0.0600 
    154 H154        1.4987  -21.5611  -40.6745 H         1 UNK         0.3000 
    155 H155       -1.2229  -19.6528  -41.9227 H         1 UNK         0.0600 
    156 H156       -0.5198  -20.3434  -39.0229 H         1 UNK         0.0600 
    157 H157       -2.1034  -20.5559  -39.7612 H         1 UNK         0.0600 
    158 H158       -1.4393  -18.9411  -39.5715 H         1 UNK         0.0600 
    159 H159        0.8771  -18.7165  -40.3925 H         1 UNK         0.3000 
    160 H160        3.2233  -18.3914  -41.2406 H         1 UNK         0.0600 
    161 H161        3.0353  -17.8193  -44.2460 H         1 UNK         0.0600 
    162 H162        4.0744  -19.0020  -43.4630 H         1 UNK         0.0600 
    163 H163        4.3489  -17.2875  -43.1977 H         1 UNK         0.0600 
    164 H164        1.6707  -16.3270  -42.7300 H         1 UNK         0.3000 
    165 H165        0.5782  -14.7212  -39.8133 H         1 UNK         0.0600 
    166 H166        1.8388  -12.6946  -40.5043 H         1 UNK         0.0600 
    167 H167        2.9067  -13.8310  -39.6970 H         1 UNK         0.0600 
    168 H168        2.9550  -13.6815  -41.4494 H         1 UNK         0.0600 
    169 H169        0.7859  -13.8989  -42.5779 H         1 UNK         0.3000 
    170 H170       -1.9875  -15.6648  -43.7948 H         1 UNK         0.0600 
    171 H171       -3.1935  -13.8323  -42.5931 H         1 UNK         0.0600 
    172 H172       -1.9599  -12.6822  -43.0969 H         1 UNK         0.0600 
    173 H173       -2.9906  -13.4609  -44.2978 H         1 UNK         0.0600 
    174 H174       -0.6352  -13.5738  -45.0603 H         1 UNK         0.3000 
    175 H175        1.8050  -13.8130  -45.8951 H         1 UNK         0.0600 
    176 H176        2.0191  -16.6974  -46.8856 H         1 UNK         0.0600 
    177 H177        3.0386  -15.3570  -47.4000 H         1 UNK         0.0600 
    178 H178        3.0997  -15.9092  -45.7452 H         1 UNK         0.0600 
    179 H179        0.4721  -15.1726  -48.0975 H         1 UNK         0.3000 
    180 H180       -1.6413  -14.0773  -49.0156 H         1 UNK         0.0600 
    181 H181       -1.2604  -11.0285  -48.8988 H         1 UNK         0.0600 
    182 H182       -2.5618  -11.9016  -48.0972 H         1 UNK         0.0600 
    183 H183       -2.4753  -11.8875  -49.8430 H         1 UNK         0.0600 
    184 H184        0.9625  -13.2052  -49.6344 H         1 UNK         0.3000 
    185 H185        0.7279  -13.7613  -53.1320 H         1 UNK         0.0600 
    186 H186        0.7139  -11.2707  -53.0389 H         1 UNK         0.0600 
    187 H187        1.7882  -11.2914  -51.6445 H         1 UNK         0.0600 
    188 H188        2.3571  -11.8703  -53.2098 H         1 UNK         0.0600 
    189 H189        2.5272  -13.5315  -50.7481 H         1 UNK         0.3000 
    190 H190       -1.4916  -22.9017  -43.9739 H         1 UNK         0.3000 
    191 H191       -3.7666  -24.2496  -45.0358 H         1 UNK         0.0600 
    192 H192       -1.7293  -25.1196  -42.9190 H         1 UNK         0.0600 
    193 H193       -3.2858  -25.8900  -43.2090 H         1 UNK         0.0600 
    194 H194       -3.2231  -24.2327  -42.6273 H         1 UNK         0.0600 
    195 H195       -0.2644  -25.0969  -45.0856 H         1 UNK         0.3000 
    196 H196       -0.6604  -27.6489  -46.2834 H         1 UNK         0.0600 
    197 H197        1.8311  -27.6454  -46.4559 H         1 UNK         0.0600 
    198 H198        1.2826  -27.1476  -44.8633 H         1 UNK         0.0600 
    199 H199        1.8651  -25.9434  -46.0101 H         1 UNK         0.0600 
    200 H200        0.5998  -24.5682  -47.7286 H         1 UNK         0.3000 
    201 H201        0.8435  -25.9257  -50.3470 H         1 UNK         0.0600 
    202 H202        2.7787  -24.6621  -49.4173 H         1 UNK         0.0600 
    203 H203        1.8250  -23.1801  -49.4148 H         1 UNK         0.0600 
    204 H204        2.2159  -23.9738  -50.9326 H         1 UNK         0.0600 
    205 H205       -0.7683  -23.0563  -48.8909 H         1 UNK         0.3000 
    206 H206       -1.9943  -22.3558  -51.4781 H         1 UNK         0.0600 
    207 H207       -0.9486  -20.6306  -50.0107 H         1 UNK         0.0600 
    208 H208       -2.6360  -20.2986  -50.3468 H         1 UNK         0.0600 
    209 H209       -2.1742  -20.9285  -48.7812 H         1 UNK         0.0600 
    210 H210       -2.8614  -24.3941  -48.9497 H         1 UNK         0.3000 
    211 H211       -4.6979  -25.4133  -48.2280 H         1 UNK         0.0600 
    212 H212       -5.9093  -24.6858  -50.9430 H         1 UNK         0.0600 
    213 H213       -6.4812  -25.9445  -49.8573 H         1 UNK         0.0600 
    214 H214       -4.9024  -26.0924  -50.6116 H         1 UNK         0.0600 
    215 H215       -4.3521  -22.9407  -47.2226 H         1 UNK         0.3000 
    216 H216       -5.2218  -21.3912  -45.9330 H         1 UNK         0.0600 
    217 H217       -7.5038  -21.5004  -45.0464 H         1 UNK         0.0600 
    218 H218       -6.8082  -23.1131  -45.0618 H         1 UNK         0.0600 
    219 H219       -7.9921  -22.6471  -46.2832 H         1 UNK         0.0600 
    220 H220       -4.5638  -20.7067  -48.3560 H         1 UNK         0.3000 
    221 H221       -4.5508  -19.0830  -49.8411 H         1 UNK         0.0600 
    222 H222       -6.6168  -17.6352  -48.1085 H         1 UNK         0.0600 
    223 H223       -4.8805  -17.6305  -47.8195 H         1 UNK         0.0600 
    224 H224       -5.5279  -16.9094  -49.2837 H         1 UNK         0.0600 
    225 H225       -5.9183  -21.1964  -50.7364 H         1 UNK         0.3000 
    226 H226       -8.4983  -20.3909  -51.9060 H         1 UNK         0.0600 
    227 H227       -8.1390  -22.7281  -51.0721 H         1 UNK         0.0600 
    228 H228       -8.4735  -22.6985  -52.7987 H         1 UNK         0.0600 
    229 H229       -6.8262  -22.9368  -52.2306 H         1 UNK         0.0600 
    230 H230       -8.7642  -19.7634  -53.9739 H         1 UNK         0.3000 
    231 H231       -8.4437  -18.9824  -56.0056 H         1 UNK         0.0600 
    232 H232       -8.0539  -21.4408  -56.4352 H         1 UNK         0.0600 
    233 H233       -6.3183  -21.1695  -56.3303 H         1 UNK         0.0600 
    234 H234       -7.2651  -20.4159  -57.6134 H         1 UNK         0.0600 
    235 H235       -5.8209  -19.0934  -57.5272 H         1 UNK         0.3000 
    236 H236       -4.7313  -16.5114  -56.6124 H         1 UNK         0.0600 
    237 H237       -3.5802  -16.5796  -58.8171 H         1 UNK         0.0600 
    238 H238       -4.2269  -18.1869  -59.1289 H         1 UNK         0.0600 
    239 H239       -5.3120  -16.8033  -59.0019 H         1 UNK         0.0600 
    240 H240       -4.0428  -17.8041  -54.5935 H         1 UNK         0.3000 
    241 H241       -1.7226  -19.4699  -54.7258 H         1 UNK         0.0600 
    242 H242        1.0800  -17.3211  -53.9288 H         1 UNK         0.3800 
    243 H243        0.4729  -18.9443  -53.7173 H         1 UNK         0.3800 
    244 H244       -1.5932  -19.1080  -52.2405 H         1 UNK         0.0800 
    245 H245       -3.1312  -19.6702  -52.8024 H         1 UNK         0.0800 
    246 H246       -1.2177  -16.2403  -51.9770 H         1 UNK         0.0800 
    247 H247       -2.3934  -15.5141  -50.9286 H         1 UNK         0.0800 
@<TRIPOS>BOND
     1    1    2 1    
     2    1  127 1    
     3    1  128 1    
     4    1  129 1    
     5    2    3 2    
     6    2    4 am   BACKBONE|DICT|INTERRES
     7    4    5 1    
     8    4  130 1    
     9    5    6 1    
    10    5   65 1    
    11    5  131 1    
    12    6    7 1    
    13    6  132 1    
    14    6  133 1    
    15    7    8 1    
    16    8    9 1    
    17    8  134 1    
    18    8  135 1    
    19    9   10 ar   
    20    9   14 ar   
    21   10   11 ar   
    22   10  136 1    
    23   11   12 ar   
    24   11  126 1    
    25   12   13 ar   
    26   12  137 1    
    27   13   14 ar   
    28   13   15 1    
    29   14  138 1    
    30   15   16 1    
    31   15  139 1    
    32   15  140 1    
    33   16   17 1    
    34   17   18 1    
    35   17  141 1    
    36   17  142 1    
    37   18   19 1    
    38   18   67 1    
    39   18  143 1    
    40   19   20 am   BACKBONE|DICT|INTERRES
    41   19  144 1    
    42   20   21 2    
    43   20   22 1    
    44   22   23 1    
    45   22   24 1    
    46   22  145 1    
    47   23  146 1    
    48   23  147 1    
    49   23  148 1    
    50   24   25 am   BACKBONE|DICT|INTERRES
    51   24  149 1    
    52   25   26 2    
    53   25   27 1    
    54   27   28 1    
    55   27   29 1    
    56   27  150 1    
    57   28  151 1    
    58   28  152 1    
    59   28  153 1    
    60   29   30 am   BACKBONE|DICT|INTERRES
    61   29  154 1    
    62   30   31 2    
    63   30   32 1    
    64   32   33 1    
    65   32   34 1    
    66   32  155 1    
    67   33  156 1    
    68   33  157 1    
    69   33  158 1    
    70   34   35 am   BACKBONE|DICT|INTERRES
    71   34  159 1    
    72   35   36 2    
    73   35   37 1    
    74   37   38 1    
    75   37   39 1    
    76   37  160 1    
    77   38  161 1    
    78   38  162 1    
    79   38  163 1    
    80   39   40 am   BACKBONE|DICT|INTERRES
    81   39  164 1    
    82   40   41 2    
    83   40   42 1    
    84   42   43 1    
    85   42   44 1    
    86   42  165 1    
    87   43  166 1    
    88   43  167 1    
    89   43  168 1    
    90   44   45 am   BACKBONE|DICT|INTERRES
    91   44  169 1    
    92   45   46 2    
    93   45   47 1    
    94   47   48 1    
    95   47   49 1    
    96   47  170 1    
    97   48  171 1    
    98   48  172 1    
    99   48  173 1    
   100   49   50 am   BACKBONE|DICT|INTERRES
   101   49  174 1    
   102   50   51 2    
   103   50   52 1    
   104   52   53 1    
   105   52   54 1    
   106   52  175 1    
   107   53  176 1    
   108   53  177 1    
   109   53  178 1    
   110   54   55 am   BACKBONE|DICT|INTERRES
   111   54  179 1    
   112   55   56 2    
   113   55   57 1    
   114   57   58 1    
   115   57   59 1    
   116   57  180 1    
   117   58  181 1    
   118   58  182 1    
   119   58  183 1    
   120   59   60 am   BACKBONE|DICT|INTERRES
   121   59  184 1    
   122   60   61 2    
   123   60   62 1    
   124   62   63 1    
   125   62   64 1    
   126   62  185 1    
   127   63  186 1    
   128   63  187 1    
   129   63  188 1    
   130   64   65 am   BACKBONE|DICT|INTERRES
   131   64  189 1    
   132   65   66 2    
   133   67   68 2    
   134   67   69 am   BACKBONE|DICT|INTERRES
   135   69   70 1    
   136   69  190 1    
   137   70   71 1    
   138   70   72 1    
   139   70  191 1    
   140   71  192 1    
   141   71  193 1    
   142   71  194 1    
   143   72   73 2    
   144   72   74 am   BACKBONE|DICT|INTERRES
   145   74   75 1    
   146   74  195 1    
   147   75   76 1    
   148   75   77 1    
   149   75  196 1    
   150   76  197 1    
   151   76  198 1    
   152   76  199 1    
   153   77   78 2    
   154   77   79 am   BACKBONE|DICT|INTERRES
   155   79   80 1    
   156   79  200 1    
   157   80   81 1    
   158   80   82 1    
   159   80  201 1    
   160   81  202 1    
   161   81  203 1    
   162   81  204 1    
   163   82   83 2    
   164   82   84 am   BACKBONE|DICT|INTERRES
   165   84   85 1    
   166   84  205 1    
   167   85   86 1    
   168   85   87 1    
   169   85  206 1    
   170   86  207 1    
   171   86  208 1    
   172   86  209 1    
   173   87   88 2    
   174   87   89 am   BACKBONE|DICT|INTERRES
   175   89   90 1    
   176   89  210 1    
   177   90   91 1    
   178   90   92 1    
   179   90  211 1    
   180   91  212 1    
   181   91  213 1    
   182   91  214 1    
   183   92   93 2    
   184   92   94 am   BACKBONE|DICT|INTERRES
   185   94   95 1    
   186   94  215 1    
   187   95   96 1    
   188   95   97 1    
   189   95  216 1    
   190   96  217 1    
   191   96  218 1    
   192   96  219 1    
   193   97   98 2    
   194   97   99 am   BACKBONE|DICT|INTERRES
   195   99  100 1    
   196   99  220 1    
   197  100  101 1    
   198  100  102 1    
   199  100  221 1    
   200  101  222 1    
   201  101  223 1    
   202  101  224 1    
   203  102  103 2    
   204  102  104 am   BACKBONE|DICT|INTERRES
   205  104  105 1    
   206  104  225 1    
   207  105  106 1    
   208  105  107 1    
   209  105  226 1    
   210  106  227 1    
   211  106  228 1    
   212  106  229 1    
   213  107  108 2    
   214  107  109 am   BACKBONE|DICT|INTERRES
   215  109  110 1    
   216  109  230 1    
   217  110  111 1    
   218  110  112 1    
   219  110  231 1    
   220  111  232 1    
   221  111  233 1    
   222  111  234 1    
   223  112  113 2    
   224  112  114 am   BACKBONE|DICT|INTERRES
   225  114  115 1    
   226  114  235 1    
   227  115  116 1    
   228  115  117 1    
   229  115  236 1    
   230  116  237 1    
   231  116  238 1    
   232  116  239 1    
   233  117  118 2    
   234  117  119 am   BACKBONE|DICT|INTERRES
   235  119  120 1    
   236  119  240 1    
   237  120  121 1    
   238  120  124 1    
   239  120  241 1    
   240  121  122 am   BACKBONE|DICT|INTERRES
   241  121  123 2    
   242  122  242 1    
   243  122  243 1    
   244  124  125 1    
   245  124  244 1    
   246  124  245 1    
   247  125  126 1    
   248  126  246 1    
   249  126  247 1    
@<TRIPOS>SUBSTRUCTURE
     1 UNK         1 GROUP             0       ****    0 ROOT    
