@<TRIPOS>MOLECULE
3R540
247   249    1
SMALL
USER_CHARGES


@<TRIPOS>ATOM
      1 CA         -0.7276   -8.9750  -45.2764 C.3       0 UNK        -0.1800 
      2 C          -0.0892   -9.9970  -46.2055 C.2       0 UNK         0.5000 
      3 O           0.7219   -9.6253  -47.0547 O.2       0 UNK        -0.5000 
      4 N          -0.4390  -11.2809  -46.0508 N.am      1 UNK        -0.5000 
      5 CA          0.1077  -12.3949  -46.8316 C.3       1 UNK         0.1400 
      6 C6         -0.9115  -13.5531  -46.9910 C.3       23 UNK        -0.0398 
      7 S7         -0.5652  -14.5295  -48.4923 S.3       23 UNK        -0.2404 
      8 C8         -1.8626  -15.8020  -48.4192 C.3       23 UNK        -0.0205 
      9 C9         -1.5980  -16.9050  -49.4322 C.ar      23 UNK        -0.0193 
     10 C10        -2.4117  -17.0641  -50.5583 C.ar      23 UNK        -0.1150 
     11 C11        -2.1438  -18.0758  -51.4868 C.ar      23 UNK        -0.0193 
     12 C12        -1.0504  -18.9252  -51.2836 C.ar      23 UNK        -0.1150 
     13 C13        -0.2368  -18.7817  -50.1570 C.ar      23 UNK        -0.0193 
     14 C14        -0.5224  -17.7735  -49.2357 C.ar      23 UNK        -0.1150 
     15 C15         0.9631  -19.6949  -49.9401 C.3       23 UNK        -0.0205 
     16 S16         0.4901  -21.4390  -49.7244 S.3       23 UNK        -0.2404 
     17 C17        -0.5775  -21.3749  -48.2471 C.3       23 UNK        -0.0398 
     18 CA         -0.2101  -22.4779  -47.2188 C.3       11 UNK         0.1400 
     19 N           0.8408  -22.0234  -46.3033 N.am      11 UNK        -0.5000 
     20 C           1.7257  -22.8049  -45.6733 C.2       10 UNK         0.5000 
     21 O           1.7632  -24.0297  -45.7909 O.2       10 UNK        -0.5000 
     22 CA          2.6951  -22.0954  -44.7095 C.3       10 UNK         0.1400 
     23 CB          3.8550  -21.4386  -45.4739 C.3       10 UNK        -0.1800 
     24 N           2.0111  -21.0907  -43.8919 N.am      10 UNK        -0.5000 
     25 C           1.1734  -21.3833  -42.8866 C.2       9 UNK         0.5000 
     26 O           0.9374  -22.5320  -42.5135 O.2       9 UNK        -0.5000 
     27 CA          0.4605  -20.2046  -42.1962 C.3       9 UNK         0.1400 
     28 CB          1.3348  -19.6250  -41.0743 C.3       9 UNK        -0.1800 
     29 N           0.0985  -19.1349  -43.1245 N.am      9 UNK        -0.5000 
     30 C          -0.8088  -19.2434  -44.1051 C.2       8 UNK         0.5000 
     31 O          -1.5037  -20.2402  -44.2902 O.2       8 UNK        -0.5000 
     32 CA         -0.9296  -18.0488  -45.0691 C.3       8 UNK         0.1400 
     33 CB         -1.9089  -17.0069  -44.5090 C.3       8 UNK        -0.1800 
     34 N           0.3644  -17.4199  -45.3500 N.am      8 UNK        -0.5000 
     35 C           1.3872  -18.0375  -45.9603 C.2       7 UNK         0.5000 
     36 O           1.3301  -19.1924  -46.3785 O.2       7 UNK        -0.5000 
     37 CA          2.7008  -17.2544  -46.0946 C.3       7 UNK         0.1400 
     38 CB          2.7119  -16.4178  -47.3810 C.3       7 UNK        -0.1800 
     39 N           2.9246  -16.3972  -44.9317 N.am      7 UNK        -0.5000 
     40 C           3.3973  -16.8520  -43.7624 C.2       6 UNK         0.5000 
     41 O           3.7487  -18.0180  -43.5774 O.2       6 UNK        -0.5000 
     42 CA          3.4396  -15.8558  -42.5889 C.3       6 UNK         0.1400 
     43 CB          4.7769  -15.1012  -42.5539 C.3       6 UNK        -0.1800 
     44 N           2.3214  -14.9066  -42.6066 N.am      6 UNK        -0.5000 
     45 C           1.0493  -15.2726  -42.3856 C.2       5 UNK         0.5000 
     46 O           0.7243  -16.4432  -42.1831 O.2       5 UNK        -0.5000 
     47 CA         -0.0410  -14.1851  -42.3909 C.3       5 UNK         0.1400 
     48 CB         -1.1853  -14.5034  -41.4031 C.3       5 UNK        -0.1800 
     49 N           0.4963  -12.8589  -42.0929 N.am      5 UNK        -0.5000 
     50 C          -0.1024  -11.7125  -42.4398 C.2       4 UNK         0.5000 
     51 O          -1.1069  -11.6490  -43.1499 O.2       4 UNK        -0.5000 
     52 CA          0.5451  -10.4230  -41.9234 C.3       4 UNK         0.1400 
     53 CB          0.3705  -10.2759  -40.4002 C.3       4 UNK        -0.1800 
     54 N           1.9523  -10.4256  -42.2949 N.am      4 UNK        -0.5000 
     55 C           2.7761   -9.3773  -42.3313 C.2       3 UNK         0.5000 
     56 O           2.4589   -8.2405  -41.9801 O.2       3 UNK        -0.5000 
     57 CA          4.1885   -9.6390  -42.8922 C.3       3 UNK         0.1400 
     58 CB          5.0821  -10.3469  -41.8547 C.3       3 UNK        -0.1800 
     59 N           4.1927  -10.3443  -44.1841 N.am      3 UNK        -0.5000 
     60 C           3.8121  -11.6001  -44.4593 C.2       2 UNK         0.5000 
     61 O           3.3993  -12.3958  -43.6119 O.2       2 UNK        -0.5000 
     62 CA          3.8396  -11.9968  -45.9447 C.3       2 UNK         0.1400 
     63 CB          4.5809  -13.3223  -46.1903 C.3       2 UNK        -0.1800 
     64 N           2.4848  -12.0062  -46.5006 N.am      2 UNK        -0.5000 
     65 C           1.4589  -12.8245  -46.2202 C.2       1 UNK         0.5000 
     66 O           1.5275  -13.8208  -45.4952 O.2       1 UNK        -0.5000 
     67 C          -1.4627  -23.0265  -46.4941 C.2       11 UNK         0.5000 
     68 O          -2.4583  -23.3065  -47.1615 O.2       11 UNK        -0.5000 
     69 N          -1.4217  -23.2023  -45.1647 N.am      12 UNK        -0.5000 
     70 CA         -2.5338  -23.7294  -44.3655 C.3       12 UNK         0.1400 
     71 CB         -2.1660  -23.6743  -42.8763 C.3       12 UNK        -0.1800 
     72 C          -2.9579  -25.1560  -44.7694 C.2       12 UNK         0.5000 
     73 O          -4.1424  -25.4857  -44.6864 O.2       12 UNK        -0.5000 
     74 N          -1.9914  -25.9561  -45.2423 N.am      13 UNK        -0.5000 
     75 CA         -2.1994  -27.2712  -45.8424 C.3       13 UNK         0.1400 
     76 CB         -0.8334  -27.9134  -46.1312 C.3       13 UNK        -0.1800 
     77 C          -3.0483  -27.1662  -47.1241 C.2       13 UNK         0.5000 
     78 O          -2.6024  -26.5713  -48.1075 O.2       13 UNK        -0.5000 
     79 N          -4.2662  -27.7217  -47.0654 N.am      14 UNK        -0.5000 
     80 CA         -5.2861  -27.7421  -48.1213 C.3       14 UNK         0.1400 
     81 CB         -4.7972  -28.5540  -49.3405 C.3       14 UNK        -0.1800 
     82 C          -5.8213  -26.3482  -48.5195 C.2       14 UNK         0.5000 
     83 O          -6.3666  -26.2095  -49.6150 O.2       14 UNK        -0.5000 
     84 N          -5.6701  -25.3482  -47.6344 N.am      15 UNK        -0.5000 
     85 CA         -6.1209  -23.9574  -47.7848 C.3       15 UNK         0.1400 
     86 CB         -7.6540  -23.8799  -47.6349 C.3       15 UNK        -0.1800 
     87 C          -5.6195  -23.3116  -49.0940 C.2       15 UNK         0.5000 
     88 O          -6.4195  -22.9202  -49.9473 O.2       15 UNK        -0.5000 
     89 N          -4.2894  -23.2765  -49.2483 N.am      16 UNK        -0.5000 
     90 CA         -3.5479  -22.8120  -50.4230 C.3       16 UNK         0.1400 
     91 CB         -3.7174  -21.2896  -50.6004 C.3       16 UNK        -0.1800 
     92 C          -3.8981  -23.6057  -51.6970 C.2       16 UNK         0.5000 
     93 O          -4.0247  -23.0166  -52.7719 O.2       16 UNK        -0.5000 
     94 N          -4.0797  -24.9260  -51.5428 N.am      17 UNK        -0.5000 
     95 CA         -4.5341  -25.8753  -52.5668 C.3       17 UNK         0.1400 
     96 CB         -3.4516  -26.0575  -53.6522 C.3       17 UNK        -0.1800 
     97 C          -5.9134  -25.4881  -53.1450 C.2       17 UNK         0.5000 
     98 O          -6.0984  -25.4893  -54.3620 O.2       17 UNK        -0.5000 
     99 N          -6.8400  -25.1278  -52.2453 N.am      18 UNK        -0.5000 
    100 CA        -8.1542  -24.5344  -52.5069 C.3       18 UNK         0.1400 
    101 CB        -9.0876  -25.5421  -53.2102 C.3       18 UNK        -0.1800 
    102 C         -8.0424  -23.1802  -53.2416 C.2       18 UNK         0.5000 
    103 O         -8.7137  -22.9633  -54.2525 O.2       18 UNK        -0.5000 
    104 N         -7.1843  -22.2996  -52.7037 N.am      19 UNK        -0.5000 
    105 CA        -6.8700  -20.9483  -53.1838 C.3       19 UNK         0.1400 
    106 CB        -8.0747  -20.0090  -52.9682 C.3       19 UNK        -0.1800 
    107 C         -6.3234  -20.9151  -54.6282 C.2       19 UNK         0.5000 
    108 O         -6.7509  -20.0829  -55.4310 O.2       19 UNK        -0.5000 
    109 N         -5.3885  -21.8242  -54.9296 N.am      20 UNK        -0.5000 
    110 CA        -4.7669  -21.9836  -56.2456 C.3       20 UNK         0.1400 
    111 CB        -5.1530  -23.3555  -56.8179 C.3       20 UNK        -0.1800 
    112 C         -3.2355  -21.8454  -56.2034 C.2       20 UNK         0.5000 
    113 O         -2.6430  -21.5270  -57.2355 O.2       20 UNK        -0.5000 
    114 N         -2.6085  -22.0712  -55.0379 N.am      21 UNK        -0.5000 
    115 CA        -1.1502  -22.1163  -54.8601 C.3       21 UNK         0.1400 
    116 CB        -0.8285  -22.5831  -53.4314 C.3       21 UNK        -0.1800 
    117 C         -0.4095  -20.8013  -55.1803 C.2       21 UNK         0.5000 
    118 O          0.7826  -20.8421  -55.4871 O.2       21 UNK        -0.5000 
    119 N         -1.1260  -19.6739  -55.1197 N.am      22 UNK        -0.5000 
    120 CA        -0.6531  -18.3371  -55.5086 C.3       22 UNK         0.1400 
    121 C         -1.1010  -17.9029  -56.9367 C.2       22 UNK         0.5000 
    122 N         -1.7497  -18.7522  -57.7263 N.am      22 UNK        -0.7600 
    123 O         -0.8325  -16.7789  -57.3526 O.2       22 UNK        -0.5000 
    124 C124       -0.9699  -17.2787  -54.4185 C.3       23 UNK        -0.0398 
    125 S125       -2.7457  -17.0593  -54.0282 S.3       23 UNK        -0.2404 
    126 C126       -3.0460  -18.2707  -52.6980 C.3       23 UNK        -0.0205 
    127 H127       -1.1974   -8.1823  -45.8586 H         1 UNK         0.0600 
    128 H128        0.0319   -8.5243  -44.6377 H         1 UNK         0.0600 
    129 H129       -1.4913   -9.4234  -44.6412 H         1 UNK         0.0600 
    130 H130       -1.0314  -11.5348  -45.2674 H         1 UNK         0.3000 
    131 H131        0.3144  -12.0179  -47.8362 H         1 UNK         0.0600 
    132 H132       -0.9371  -14.2000  -46.1135 H         1 UNK         0.0800 
    133 H133       -1.9193  -13.1495  -47.0984 H         1 UNK         0.0800 
    134 H134       -1.8918  -16.2411  -47.4236 H         1 UNK         0.0800 
    135 H135       -2.8360  -15.3393  -48.5887 H         1 UNK         0.0800 
    136 H136       -3.2507  -16.4012  -50.7169 H         1 UNK         0.1150 
    137 H137       -0.8304  -19.7022  -52.0009 H         1 UNK         0.1150 
    138 H138        0.1050  -17.6454  -48.3687 H         1 UNK         0.1150 
    139 H139        1.6272  -19.6151  -50.8015 H         1 UNK         0.0800 
    140 H140        1.5462  -19.3781  -49.0745 H         1 UNK         0.0800 
    141 H141       -1.5955  -21.4760  -48.6153 H         1 UNK         0.0800 
    142 H142       -0.5422  -20.3878  -47.7859 H         1 UNK         0.0800 
    143 H143        0.1755  -23.3380  -47.7706 H         1 UNK         0.0600 
    144 H144        0.9159  -21.0165  -46.1793 H         1 UNK         0.3000 
    145 H145        3.1180  -22.8503  -44.0431 H         1 UNK         0.0600 
    146 H146        4.4167  -22.1825  -46.0400 H         1 UNK         0.0600 
    147 H147        3.5051  -20.6873  -46.1817 H         1 UNK         0.0600 
    148 H148        4.5527  -20.9538  -44.7907 H         1 UNK         0.0600 
    149 H149        2.1498  -20.1223  -44.1446 H         1 UNK         0.3000 
    150 H150       -0.4590  -20.5880  -41.7491 H         1 UNK         0.0600 
    151 H151        1.6082  -20.3959  -40.3528 H         1 UNK         0.0600 
    152 H152        0.8076  -18.8413  -40.5297 H         1 UNK         0.0600 
    153 H153        2.2582  -19.1958  -41.4649 H         1 UNK         0.0600 
    154 H154        0.5576  -18.2396  -42.9865 H         1 UNK         0.3000 
    155 H155       -1.3287  -18.4208  -46.0153 H         1 UNK         0.0600 
    156 H156       -1.9858  -16.1302  -45.1490 H         1 UNK         0.0600 
    157 H157       -1.6077  -16.6696  -43.5199 H         1 UNK         0.0600 
    158 H158       -2.9098  -17.4299  -44.4152 H         1 UNK         0.0600 
    159 H159        0.5027  -16.4774  -45.0181 H         1 UNK         0.3000 
    160 H160        3.5146  -17.9795  -46.1653 H         1 UNK         0.0600 
    161 H161        1.9223  -15.6683  -47.3828 H         1 UNK         0.0600 
    162 H162        2.5660  -17.0486  -48.2586 H         1 UNK         0.0600 
    163 H163        3.6640  -15.9038  -47.5082 H         1 UNK         0.0600 
    164 H164        2.6107  -15.4329  -45.0018 H         1 UNK         0.3000 
    165 H165        3.3658  -16.4362  -41.6665 H         1 UNK         0.0600 
    166 H166        4.8111  -14.3943  -41.7248 H         1 UNK         0.0600 
    167 H167        5.6092  -15.7943  -42.4267 H         1 UNK         0.0600 
    168 H168        4.9554  -14.5464  -43.4738 H         1 UNK         0.0600 
    169 H169        2.5394  -13.9555  -42.8927 H         1 UNK         0.3000 
    170 H170       -0.4478  -14.1817  -43.4042 H         1 UNK         0.0600 
    171 H171       -1.6128  -15.4907  -41.5743 H         1 UNK         0.0600 
    172 H172       -0.8347  -14.4772  -40.3710 H         1 UNK         0.0600 
    173 H173       -2.0016  -13.7871  -41.4957 H         1 UNK         0.0600 
    174 H174        1.3181  -12.8346  -41.5055 H         1 UNK         0.3000 
    175 H175        0.0537   -9.5812  -42.4143 H         1 UNK         0.0600 
    176 H176        0.7369   -9.3110  -40.0502 H         1 UNK         0.0600 
    177 H177       -0.6818  -10.3415  -40.1207 H         1 UNK         0.0600 
    178 H178        0.9059  -11.0530  -39.8538 H         1 UNK         0.0600 
    179 H179        2.3151  -11.2973  -42.6769 H         1 UNK         0.3000 
    180 H180        4.6326   -8.6618  -43.0884 H         1 UNK         0.0600 
    181 H181        4.6967  -11.3286  -41.5782 H         1 UNK         0.0600 
    182 H182        5.1527   -9.7581  -40.9393 H         1 UNK         0.0600 
    183 H183        6.0952  -10.4803  -42.2340 H         1 UNK         0.0600 
    184 H184        4.4739   -9.7671  -44.9646 H         1 UNK         0.3000 
    185 H185        4.3827  -11.2247  -46.4918 H         1 UNK         0.0600 
    186 H186        5.6148  -13.2558  -45.8503 H         1 UNK         0.0600 
    187 H187        4.1214  -14.1516  -45.6602 H         1 UNK         0.0600 
    188 H188        4.6008  -13.5710  -47.2511 H         1 UNK         0.0600 
    189 H189        2.2530  -11.1863  -47.0499 H         1 UNK         0.3000 
    190 H190       -0.5884  -22.9291  -44.6644 H         1 UNK         0.3000 
    191 H191       -3.3927  -23.0749  -44.5273 H         1 UNK         0.0600 
    192 H192       -1.9571  -22.6517  -42.5615 H         1 UNK         0.0600 
    193 H193       -2.9843  -24.0435  -42.2568 H         1 UNK         0.0600 
    194 H194       -1.2864  -24.2807  -42.6566 H         1 UNK         0.0600 
    195 H195       -1.0580  -25.5770  -45.3063 H         1 UNK         0.3000 
    196 H196       -2.7213  -27.8966  -45.1151 H         1 UNK         0.0600 
    197 H197       -0.9539  -28.9000  -46.5805 H         1 UNK         0.0600 
    198 H198       -0.2561  -28.0417  -45.2153 H         1 UNK         0.0600 
    199 H199       -0.2402  -27.3092  -46.8191 H         1 UNK         0.0600 
    200 H200       -4.5471  -28.1500  -46.1937 H         1 UNK         0.3000 
    201 H201       -6.1407  -28.2730  -47.7001 H         1 UNK         0.0600 
    202 H202       -4.4429  -29.5402  -49.0406 H         1 UNK         0.0600 
    203 H203       -3.9844  -28.0512  -49.8649 H         1 UNK         0.0600 
    204 H204       -5.6026  -28.7074  -50.0597 H         1 UNK         0.0600 
    205 H205       -5.1872  -25.5578  -46.7694 H         1 UNK         0.3000 
    206 H206       -5.6752  -23.3915  -46.9652 H         1 UNK         0.0600 
    207 H207       -7.9773  -24.2922  -46.6792 H         1 UNK         0.0600 
    208 H208       -7.9980  -22.8457  -47.6758 H         1 UNK         0.0600 
    209 H209       -8.1675  -24.4269  -48.4265 H         1 UNK         0.0600 
    210 H210       -3.7061  -23.5773  -48.4685 H         1 UNK         0.3000 
    211 H211       -2.4939  -23.0118  -50.2268 H         1 UNK         0.0600 
    212 H212       -4.7497  -21.0174  -50.8085 H         1 UNK         0.0600 
    213 H213       -3.1075  -20.9285  -51.4257 H         1 UNK         0.0600 
    214 H214       -3.4154  -20.7413  -49.7095 H         1 UNK         0.0600 
    215 H215       -3.9845  -25.3024  -50.6098 H         1 UNK         0.3000 
    216 H216       -4.6688  -26.8347  -52.0656 H         1 UNK         0.0600 
    217 H217       -3.7310  -26.8453  -54.3526 H         1 UNK         0.0600 
    218 H218       -2.4956  -26.3396  -53.2113 H         1 UNK         0.0600 
    219 H219       -3.2967  -25.1468  -54.2315 H         1 UNK         0.0600 
    220 H220       -6.5964  -25.2171  -51.2618 H         1 UNK         0.3000 
    221 H221       -8.5861  -24.3161  -51.5290 H         1 UNK         0.0600 
    222 H222       -8.7483  -25.7780  -54.2191 H         1 UNK         0.0600 
    223 H223       -9.1517  -26.4753  -52.6507 H         1 UNK         0.0600 
    224 H224      -10.0990  -25.1426  -53.2921 H         1 UNK         0.0600 
    225 H225       -6.7146  -22.5773  -51.8456 H         1 UNK         0.3000 
    226 H226       -6.0599  -20.5785  -52.5577 H         1 UNK         0.0600 
    227 H227       -8.4043  -20.0250  -51.9293 H         1 UNK         0.0600 
    228 H228       -7.8149  -18.9774  -53.2086 H         1 UNK         0.0600 
    229 H229       -8.9230  -20.2879  -53.5938 H         1 UNK         0.0600 
    230 H230       -5.0713  -22.4500  -54.1929 H         1 UNK         0.3000 
    231 H231       -5.1312  -21.2185  -56.9340 H         1 UNK         0.0600 
    232 H232       -4.7357  -24.1685  -56.2235 H         1 UNK         0.0600 
    233 H233       -4.7832  -23.4722  -57.8373 H         1 UNK         0.0600 
    234 H234       -6.2356  -23.4824  -56.8456 H         1 UNK         0.0600 
    235 H235       -3.1607  -22.3416  -54.2278 H         1 UNK         0.3000 
    236 H236       -0.7645  -22.8684  -55.5512 H         1 UNK         0.0600 
    237 H237       -1.2092  -23.5886  -53.2522 H         1 UNK         0.0600 
    238 H238        0.2479  -22.6111  -53.2569 H         1 UNK         0.0600 
    239 H239       -1.2636  -21.9211  -52.6836 H         1 UNK         0.0600 
    240 H240       -2.1071  -19.7430  -54.8976 H         1 UNK         0.3000 
    241 H241        0.4355  -18.3671  -55.5784 H         1 UNK         0.0600 
    242 H242       -2.0200  -18.4519  -58.6494 H         1 UNK         0.3800 
    243 H243       -1.9538  -19.7027  -57.4350 H         1 UNK         0.3800 
    244 H244       -0.4201  -17.5203  -53.5108 H         1 UNK         0.0800 
    245 H245       -0.5788  -16.3059  -54.7208 H         1 UNK         0.0800 
    246 H246       -2.9388  -19.2786  -53.0973 H         1 UNK         0.0800 
    247 H247       -4.0872  -18.1885  -52.3828 H         1 UNK         0.0800 
@<TRIPOS>BOND
     1    1    2 1    
     2    1  127 1    
     3    1  128 1    
     4    1  129 1    
     5    2    3 2    
     6    2    4 am   BACKBONE|DICT|INTERRES
     7    4    5 1    
     8    4  130 1    
     9    5    6 1    
    10    5   65 1    
    11    5  131 1    
    12    6    7 1    
    13    6  132 1    
    14    6  133 1    
    15    7    8 1    
    16    8    9 1    
    17    8  134 1    
    18    8  135 1    
    19    9   10 ar   
    20    9   14 ar   
    21   10   11 ar   
    22   10  136 1    
    23   11   12 ar   
    24   11  126 1    
    25   12   13 ar   
    26   12  137 1    
    27   13   14 ar   
    28   13   15 1    
    29   14  138 1    
    30   15   16 1    
    31   15  139 1    
    32   15  140 1    
    33   16   17 1    
    34   17   18 1    
    35   17  141 1    
    36   17  142 1    
    37   18   19 1    
    38   18   67 1    
    39   18  143 1    
    40   19   20 am   BACKBONE|DICT|INTERRES
    41   19  144 1    
    42   20   21 2    
    43   20   22 1    
    44   22   23 1    
    45   22   24 1    
    46   22  145 1    
    47   23  146 1    
    48   23  147 1    
    49   23  148 1    
    50   24   25 am   BACKBONE|DICT|INTERRES
    51   24  149 1    
    52   25   26 2    
    53   25   27 1    
    54   27   28 1    
    55   27   29 1    
    56   27  150 1    
    57   28  151 1    
    58   28  152 1    
    59   28  153 1    
    60   29   30 am   BACKBONE|DICT|INTERRES
    61   29  154 1    
    62   30   31 2    
    63   30   32 1    
    64   32   33 1    
    65   32   34 1    
    66   32  155 1    
    67   33  156 1    
    68   33  157 1    
    69   33  158 1    
    70   34   35 am   BACKBONE|DICT|INTERRES
    71   34  159 1    
    72   35   36 2    
    73   35   37 1    
    74   37   38 1    
    75   37   39 1    
    76   37  160 1    
    77   38  161 1    
    78   38  162 1    
    79   38  163 1    
    80   39   40 am   BACKBONE|DICT|INTERRES
    81   39  164 1    
    82   40   41 2    
    83   40   42 1    
    84   42   43 1    
    85   42   44 1    
    86   42  165 1    
    87   43  166 1    
    88   43  167 1    
    89   43  168 1    
    90   44   45 am   BACKBONE|DICT|INTERRES
    91   44  169 1    
    92   45   46 2    
    93   45   47 1    
    94   47   48 1    
    95   47   49 1    
    96   47  170 1    
    97   48  171 1    
    98   48  172 1    
    99   48  173 1    
   100   49   50 am   BACKBONE|DICT|INTERRES
   101   49  174 1    
   102   50   51 2    
   103   50   52 1    
   104   52   53 1    
   105   52   54 1    
   106   52  175 1    
   107   53  176 1    
   108   53  177 1    
   109   53  178 1    
   110   54   55 am   BACKBONE|DICT|INTERRES
   111   54  179 1    
   112   55   56 2    
   113   55   57 1    
   114   57   58 1    
   115   57   59 1    
   116   57  180 1    
   117   58  181 1    
   118   58  182 1    
   119   58  183 1    
   120   59   60 am   BACKBONE|DICT|INTERRES
   121   59  184 1    
   122   60   61 2    
   123   60   62 1    
   124   62   63 1    
   125   62   64 1    
   126   62  185 1    
   127   63  186 1    
   128   63  187 1    
   129   63  188 1    
   130   64   65 am   BACKBONE|DICT|INTERRES
   131   64  189 1    
   132   65   66 2    
   133   67   68 2    
   134   67   69 am   BACKBONE|DICT|INTERRES
   135   69   70 1    
   136   69  190 1    
   137   70   71 1    
   138   70   72 1    
   139   70  191 1    
   140   71  192 1    
   141   71  193 1    
   142   71  194 1    
   143   72   73 2    
   144   72   74 am   BACKBONE|DICT|INTERRES
   145   74   75 1    
   146   74  195 1    
   147   75   76 1    
   148   75   77 1    
   149   75  196 1    
   150   76  197 1    
   151   76  198 1    
   152   76  199 1    
   153   77   78 2    
   154   77   79 am   BACKBONE|DICT|INTERRES
   155   79   80 1    
   156   79  200 1    
   157   80   81 1    
   158   80   82 1    
   159   80  201 1    
   160   81  202 1    
   161   81  203 1    
   162   81  204 1    
   163   82   83 2    
   164   82   84 am   BACKBONE|DICT|INTERRES
   165   84   85 1    
   166   84  205 1    
   167   85   86 1    
   168   85   87 1    
   169   85  206 1    
   170   86  207 1    
   171   86  208 1    
   172   86  209 1    
   173   87   88 2    
   174   87   89 am   BACKBONE|DICT|INTERRES
   175   89   90 1    
   176   89  210 1    
   177   90   91 1    
   178   90   92 1    
   179   90  211 1    
   180   91  212 1    
   181   91  213 1    
   182   91  214 1    
   183   92   93 2    
   184   92   94 am   BACKBONE|DICT|INTERRES
   185   94   95 1    
   186   94  215 1    
   187   95   96 1    
   188   95   97 1    
   189   95  216 1    
   190   96  217 1    
   191   96  218 1    
   192   96  219 1    
   193   97   98 2    
   194   97   99 am   BACKBONE|DICT|INTERRES
   195   99  100 1    
   196   99  220 1    
   197  100  101 1    
   198  100  102 1    
   199  100  221 1    
   200  101  222 1    
   201  101  223 1    
   202  101  224 1    
   203  102  103 2    
   204  102  104 am   BACKBONE|DICT|INTERRES
   205  104  105 1    
   206  104  225 1    
   207  105  106 1    
   208  105  107 1    
   209  105  226 1    
   210  106  227 1    
   211  106  228 1    
   212  106  229 1    
   213  107  108 2    
   214  107  109 am   BACKBONE|DICT|INTERRES
   215  109  110 1    
   216  109  230 1    
   217  110  111 1    
   218  110  112 1    
   219  110  231 1    
   220  111  232 1    
   221  111  233 1    
   222  111  234 1    
   223  112  113 2    
   224  112  114 am   BACKBONE|DICT|INTERRES
   225  114  115 1    
   226  114  235 1    
   227  115  116 1    
   228  115  117 1    
   229  115  236 1    
   230  116  237 1    
   231  116  238 1    
   232  116  239 1    
   233  117  118 2    
   234  117  119 am   BACKBONE|DICT|INTERRES
   235  119  120 1    
   236  119  240 1    
   237  120  121 1    
   238  120  124 1    
   239  120  241 1    
   240  121  122 am   BACKBONE|DICT|INTERRES
   241  121  123 2    
   242  122  242 1    
   243  122  243 1    
   244  124  125 1    
   245  124  244 1    
   246  124  245 1    
   247  125  126 1    
   248  126  246 1    
   249  126  247 1    
@<TRIPOS>SUBSTRUCTURE
     1 UNK         1 GROUP             0       ****    0 ROOT    
