@<TRIPOS>MOLECULE
3R540
247   249    1
SMALL
USER_CHARGES


@<TRIPOS>ATOM
      1 CA         -2.0052  -17.4579  -48.8202 C.3       0 UNK        -0.1800 
      2 C          -1.8207  -15.9687  -49.0618 C.2       0 UNK         0.5000 
      3 O          -2.7546  -15.1951  -48.8500 O.2       0 UNK        -0.5000 
      4 N          -0.6219  -15.5611  -49.4944 N.am      1 UNK        -0.5000 
      5 CA         -0.2487  -14.1574  -49.6792 C.3       1 UNK         0.1400 
      6 C6          0.9545  -14.0041  -50.6499 C.3       23 UNK        -0.0398 
      7 S7          2.6519  -14.1506  -49.9760 S.3       23 UNK        -0.2404 
      8 C8          2.6878  -15.8051  -49.2030 C.3       23 UNK        -0.0205 
      9 C9          2.3778  -16.9829  -50.1238 C.ar      23 UNK        -0.0193 
     10 C10         2.6476  -16.9497  -51.4966 C.ar      23 UNK        -0.1150 
     11 C11         2.3670  -18.0527  -52.3072 C.ar      23 UNK        -0.0193 
     12 C12         1.8403  -19.2126  -51.7341 C.ar      23 UNK        -0.1150 
     13 C13         1.5901  -19.2710  -50.3598 C.ar      23 UNK        -0.0193 
     14 C14         1.8461  -18.1493  -49.5659 C.ar      23 UNK        -0.1150 
     15 C15         1.0444  -20.5446  -49.7335 C.3       23 UNK        -0.0205 
     16 S16         2.2330  -21.2932  -48.5673 S.3       23 UNK        -0.2404 
     17 C17         1.3679  -21.0694  -46.9716 C.3       23 UNK        -0.0398 
     18 CA          0.5775  -22.3223  -46.5126 C.3       11 UNK         0.1400 
     19 N           0.0259  -22.1501  -45.1669 N.am      11 UNK        -0.5000 
     20 C          -0.6177  -23.0940  -44.4645 C.2       10 UNK         0.5000 
     21 O          -0.7772  -24.2504  -44.8508 O.2       10 UNK        -0.5000 
     22 CA         -1.2479  -22.6554  -43.1322 C.3       10 UNK         0.1400 
     23 CB         -0.1888  -22.5436  -42.0248 C.3       10 UNK        -0.1800 
     24 N          -1.9714  -21.3910  -43.2603 N.am      10 UNK        -0.5000 
     25 C          -3.0682  -21.2178  -44.0127 C.2       9 UNK         0.5000 
     26 O          -3.6129  -22.1171  -44.6523 O.2       9 UNK        -0.5000 
     27 CA         -3.6219  -19.7851  -44.0992 C.3       9 UNK         0.1400 
     28 CB         -4.5361  -19.4822  -42.9030 C.3       9 UNK        -0.1800 
     29 N          -2.5644  -18.7766  -44.1687 N.am      9 UNK        -0.5000 
     30 C          -1.6957  -18.6606  -45.1824 C.2       8 UNK         0.5000 
     31 O          -1.6824  -19.4003  -46.1665 O.2       8 UNK        -0.5000 
     32 CA         -0.6213  -17.5714  -45.0320 C.3       8 UNK         0.1400 
     33 CB         -1.2314  -16.1754  -45.2226 C.3       8 UNK        -0.1800 
     34 N           0.0586  -17.6294  -43.7361 N.am      8 UNK        -0.5000 
     35 C           0.7537  -18.6843  -43.2823 C.2       7 UNK         0.5000 
     36 O           0.8892  -19.7264  -43.9228 O.2       7 UNK        -0.5000 
     37 CA          1.4043  -18.5827  -41.8896 C.3       7 UNK         0.1400 
     38 CB          2.9351  -18.6698  -41.9934 C.3       7 UNK        -0.1800 
     39 N           1.0338  -17.3638  -41.1687 N.am      7 UNK        -0.5000 
     40 C          -0.0963  -17.2219  -40.4606 C.2       6 UNK         0.5000 
     41 O          -0.9373  -18.1137  -40.3422 O.2       6 UNK        -0.5000 
     42 CA         -0.3458  -15.8574  -39.7852 C.3       6 UNK         0.1400 
     43 CB          0.0851  -15.9027  -38.3114 C.3       6 UNK        -0.1800 
     44 N           0.3284  -14.7352  -40.4428 N.am      6 UNK        -0.5000 
     45 C           0.0547  -14.2957  -41.6781 C.2       5 UNK         0.5000 
     46 O          -0.8130  -14.7963  -42.3930 O.2       5 UNK        -0.5000 
     47 CA          0.9056  -13.1325  -42.2318 C.3       5 UNK         0.1400 
     48 CB          1.8313  -12.4705  -41.1869 C.3       5 UNK        -0.1800 
     49 N           1.6825  -13.5384  -43.4065 N.am      5 UNK        -0.5000 
     50 C           2.5453  -14.5641  -43.4907 C.2       4 UNK         0.5000 
     51 O           2.7928  -15.3218  -42.5516 O.2       4 UNK        -0.5000 
     52 CA          3.2612  -14.7900  -44.8382 C.3       4 UNK         0.1400 
     53 CB          2.7545  -16.0655  -45.5263 C.3       4 UNK        -0.1800 
     54 N           3.1275  -13.6581  -45.7588 N.am      4 UNK        -0.5000 
     55 C           3.8802  -12.5495  -45.6937 C.2       3 UNK         0.5000 
     56 O           4.8101  -12.4062  -44.8989 O.2       3 UNK        -0.5000 
     57 CA          3.5360  -11.3936  -46.6554 C.3       3 UNK         0.1400 
     58 CB          4.4924  -11.3884  -47.8573 C.3       3 UNK        -0.1800 
     59 N           2.1539  -11.4091  -47.1405 N.am      3 UNK        -0.5000 
     60 C           1.0676  -11.2348  -46.3742 C.2       2 UNK         0.5000 
     61 O           1.1144  -11.0538  -45.1572 O.2       2 UNK        -0.5000 
     62 CA         -0.3047  -11.3085  -47.0726 C.3       2 UNK         0.1400 
     63 CB         -0.8038   -9.8978  -47.4197 C.3       2 UNK        -0.1800 
     64 N          -0.3328  -12.1369  -48.2833 N.am      2 UNK        -0.5000 
     65 C          -0.0587  -13.4480  -48.3185 C.2       1 UNK         0.5000 
     66 O           0.3471  -14.0818  -47.3404 O.2       1 UNK        -0.5000 
     67 C          -0.5197  -22.7156  -47.5225 C.2       11 UNK         0.5000 
     68 O          -0.3611  -23.7071  -48.2341 O.2       11 UNK        -0.5000 
     69 N          -1.6192  -21.9492  -47.5488 N.am      12 UNK        -0.5000 
     70 CA         -2.7504  -22.1603  -48.4516 C.3       12 UNK         0.1400 
     71 CB         -3.7476  -21.0068  -48.2861 C.3       12 UNK        -0.1800 
     72 C          -3.4438  -23.5208  -48.2542 C.2       12 UNK         0.5000 
     73 O          -3.8422  -24.1433  -49.2421 O.2       12 UNK        -0.5000 
     74 N          -3.5482  -23.9606  -46.9924 N.am      13 UNK        -0.5000 
     75 CA         -4.0565  -25.2740  -46.6056 C.3       13 UNK         0.1400 
     76 CB         -4.3654  -25.2865  -45.1011 C.3       13 UNK        -0.1800 
     77 C          -3.0862  -26.4099  -46.9730 C.2       13 UNK         0.5000 
     78 O          -3.5259  -27.4122  -47.5352 O.2       13 UNK        -0.5000 
     79 N          -1.7887  -26.2329  -46.6801 N.am      14 UNK        -0.5000 
     80 CA         -0.7252  -27.2003  -46.9747 C.3       14 UNK         0.1400 
     81 CB          0.5854  -26.7511  -46.3115 C.3       14 UNK        -0.1800 
     82 C          -0.5151  -27.4287  -48.4821 C.2       14 UNK         0.5000 
     83 O          -0.2827  -28.5634  -48.9006 O.2       14 UNK        -0.5000 
     84 N          -0.6418  -26.3545  -49.2717 N.am      15 UNK        -0.5000 
     85 CA         -0.6329  -26.3822  -50.7346 C.3       15 UNK         0.1400 
     86 CB         -0.4439  -24.9457  -51.2509 C.3       15 UNK        -0.1800 
     87 C          -1.9119  -26.9956  -51.3406 C.2       15 UNK         0.5000 
     88 O          -1.9106  -27.3283  -52.5262 O.2       15 UNK        -0.5000 
     89 N          -2.9810  -27.0969  -50.5332 N.am      16 UNK        -0.5000 
     90 CA         -4.3453  -27.5063  -50.8887 C.3       16 UNK         0.1400 
     91 CB         -4.3835  -28.9887  -51.3130 C.3       16 UNK        -0.1800 
     92 C          -5.0018  -26.5639  -51.9209 C.2       16 UNK         0.5000 
     93 O          -5.8718  -26.9871  -52.6842 O.2       16 UNK        -0.5000 
     94 N          -4.5577  -25.3017  -51.9278 N.am      17 UNK        -0.5000 
     95 CA         -4.9829  -24.2654  -52.8618 C.3       17 UNK         0.1400 
     96 CB         -3.7703  -23.3825  -53.1957 C.3       17 UNK        -0.1800 
     97 C          -6.1272  -23.4201  -52.2832 C.2       17 UNK         0.5000 
     98 O          -7.0210  -23.0297  -53.0355 O.2       17 UNK        -0.5000 
     99 N          -6.0747  -23.1720  -50.9637 N.am      18 UNK        -0.5000 
    100 CA        -6.9662  -22.3164  -50.1707 C.3       18 UNK         0.1400 
    101 CB        -8.4099  -22.8609  -50.1967 C.3       18 UNK        -0.1800 
    102 C         -6.9079  -20.8217  -50.5656 C.2       18 UNK         0.5000 
    103 O         -6.2507  -20.4475  -51.5406 O.2       18 UNK        -0.5000 
    104 N         -7.5858  -19.9846  -49.7668 N.am      19 UNK        -0.5000 
    105 CA        -7.7463  -18.5362  -49.9384 C.3       19 UNK         0.1400 
    106 CB        -8.7548  -18.2561  -51.0762 C.3       19 UNK        -0.1800 
    107 C         -6.3961  -17.7989  -50.0943 C.2       19 UNK         0.5000 
    108 O         -5.5796  -17.8397  -49.1740 O.2       19 UNK        -0.5000 
    109 N         -6.1851  -17.1551  -51.2496 N.am      20 UNK        -0.5000 
    110 CA        -4.9826  -16.3982  -51.6008 C.3       20 UNK         0.1400 
    111 CB        -5.3648  -15.3446  -52.6540 C.3       20 UNK        -0.1800 
    112 C         -3.8130  -17.2707  -52.1043 C.2       20 UNK         0.5000 
    113 O         -2.7723  -16.7141  -52.4592 O.2       20 UNK        -0.5000 
    114 N         -3.9904  -18.6007  -52.1493 N.am      21 UNK        -0.5000 
    115 CA        -3.0418  -19.6063  -52.6335 C.3       21 UNK         0.1400 
    116 CB        -1.8355  -19.7439  -51.6794 C.3       21 UNK        -0.1800 
    117 C         -2.6501  -19.3520  -54.1018 C.2       21 UNK         0.5000 
    118 O         -3.4561  -19.6313  -54.9906 O.2       21 UNK        -0.5000 
    119 N         -1.4447  -18.8152  -54.3320 N.am      22 UNK        -0.5000 
    120 CA        -0.9769  -18.3698  -55.6523 C.3       22 UNK         0.1400 
    121 C         -1.6300  -17.0487  -56.1625 C.2       22 UNK         0.5000 
    122 N         -2.3109  -16.2724  -55.3264 N.am      22 UNK        -0.7600 
    123 O         -1.5269  -16.7311  -57.3445 O.2       22 UNK        -0.5000 
    124 C124        0.5714  -18.3322  -55.7326 C.3       23 UNK        -0.0398 
    125 S125        1.3547  -17.0591  -54.6754 S.3       23 UNK        -0.2404 
    126 C126        2.6546  -17.9849  -53.7976 C.3       23 UNK        -0.0205 
    127 H127       -1.0538  -17.9822  -48.7339 H         1 UNK         0.0600 
    128 H128       -2.5692  -17.6161  -47.9024 H         1 UNK         0.0600 
    129 H129       -2.5765  -17.9027  -49.6304 H         1 UNK         0.0600 
    130 H130        0.1149  -16.2341  -49.6471 H         1 UNK         0.3000 
    131 H131       -1.0992  -13.6777  -50.1694 H         1 UNK         0.0600 
    132 H132        0.9017  -13.0142  -51.1054 H         1 UNK         0.0800 
    133 H133        0.8490  -14.6960  -51.4868 H         1 UNK         0.0800 
    134 H134        2.0025  -15.8073  -48.3568 H         1 UNK         0.0800 
    135 H135        3.6841  -15.9579  -48.7870 H         1 UNK         0.0800 
    136 H136        3.0744  -16.0647  -51.9460 H         1 UNK         0.1150 
    137 H137        1.6356  -20.0720  -52.3570 H         1 UNK         0.1150 
    138 H138        1.6544  -18.1979  -48.5028 H         1 UNK         0.1150 
    139 H139        0.0974  -20.3187  -49.2428 H         1 UNK         0.0800 
    140 H140        0.8136  -21.2834  -50.5025 H         1 UNK         0.0800 
    141 H141        0.7242  -20.1902  -47.0150 H         1 UNK         0.0800 
    142 H142        2.1286  -20.8334  -46.2262 H         1 UNK         0.0800 
    143 H143        1.2797  -23.1569  -46.4590 H         1 UNK         0.0600 
    144 H144        0.1428  -21.2295  -44.7504 H         1 UNK         0.3000 
    145 H145       -1.9669  -23.4223  -42.8357 H         1 UNK         0.0600 
    146 H146       -0.6409  -22.2671  -41.0722 H         1 UNK         0.0600 
    147 H147        0.3193  -23.4975  -41.8783 H         1 UNK         0.0600 
    148 H148        0.5738  -21.8024  -42.2622 H         1 UNK         0.0600 
    149 H149       -1.5767  -20.5886  -42.7938 H         1 UNK         0.3000 
    150 H150       -4.2162  -19.7135  -45.0126 H         1 UNK         0.0600 
    151 H151       -5.3423  -20.2138  -42.8333 H         1 UNK         0.0600 
    152 H152       -4.9980  -18.4994  -42.9991 H         1 UNK         0.0600 
    153 H153       -3.9884  -19.5053  -41.9599 H         1 UNK         0.0600 
    154 H154       -2.4848  -18.1418  -43.3877 H         1 UNK         0.3000 
    155 H155        0.1256  -17.7324  -45.8117 H         1 UNK         0.0600 
    156 H156       -0.4777  -15.3946  -45.1238 H         1 UNK         0.0600 
    157 H157       -1.6771  -16.0695  -46.2094 H         1 UNK         0.0600 
    158 H158       -2.0146  -15.9714  -44.4920 H         1 UNK         0.0600 
    159 H159       -0.0237  -16.8108  -43.1466 H         1 UNK         0.3000 
    160 H160        1.0658  -19.4477  -41.3156 H         1 UNK         0.0600 
    161 H161        3.4015  -18.6127  -41.0098 H         1 UNK         0.0600 
    162 H162        3.3487  -17.8710  -42.6079 H         1 UNK         0.0600 
    163 H163        3.2416  -19.6156  -42.4421 H         1 UNK         0.0600 
    164 H164        1.6566  -16.5702  -41.2784 H         1 UNK         0.3000 
    165 H165       -1.4208  -15.6690  -39.8206 H         1 UNK         0.0600 
    166 H166       -0.1639  -14.9737  -37.7981 H         1 UNK         0.0600 
    167 H167       -0.4204  -16.7108  -37.7807 H         1 UNK         0.0600 
    168 H168        1.1590  -16.0657  -38.2113 H         1 UNK         0.0600 
    169 H169        1.0748  -14.2907  -39.9285 H         1 UNK         0.3000 
    170 H170        0.1993  -12.3754  -42.5753 H         1 UNK         0.0600 
    171 H171        1.2630  -12.1011  -40.3324 H         1 UNK         0.0600 
    172 H172        2.5929  -13.1563  -40.8141 H         1 UNK         0.0600 
    173 H173        2.3481  -11.6133  -41.6192 H         1 UNK         0.0600 
    174 H174        1.5467  -12.9613  -44.2273 H         1 UNK         0.3000 
    175 H175        4.3184  -14.9405  -44.6098 H         1 UNK         0.0600 
    176 H176        1.7350  -15.9465  -45.8892 H         1 UNK         0.0600 
    177 H177        3.3870  -16.3277  -46.3732 H         1 UNK         0.0600 
    178 H178        2.7677  -16.9171  -44.8459 H         1 UNK         0.0600 
    179 H179        2.3626  -13.6973  -46.4225 H         1 UNK         0.3000 
    180 H180        3.6805  -10.4619  -46.1046 H         1 UNK         0.0600 
    181 H181        4.4102  -12.3048  -48.4415 H         1 UNK         0.0600 
    182 H182        5.5293  -11.3035  -47.5294 H         1 UNK         0.0600 
    183 H183        4.2927  -10.5463  -48.5200 H         1 UNK         0.0600 
    184 H184        2.0216  -11.5766  -48.1271 H         1 UNK         0.3000 
    185 H185       -1.0033  -11.7505  -46.3590 H         1 UNK         0.0600 
    186 H186       -0.8216   -9.2602  -46.5346 H         1 UNK         0.0600 
    187 H187       -0.1633   -9.4152  -48.1589 H         1 UNK         0.0600 
    188 H188       -1.8181   -9.9241  -47.8184 H         1 UNK         0.0600 
    189 H189       -0.6469  -11.6783  -49.1264 H         1 UNK         0.3000 
    190 H190       -1.6702  -21.1363  -46.9389 H         1 UNK         0.3000 
    191 H191       -2.3631  -22.1361  -49.4719 H         1 UNK         0.0600 
    192 H192       -4.2158  -21.0133  -47.3012 H         1 UNK         0.0600 
    193 H193       -4.5360  -21.0670  -49.0323 H         1 UNK         0.0600 
    194 H194       -3.2622  -20.0404  -48.4157 H         1 UNK         0.0600 
    195 H195       -3.2467  -23.3531  -46.2374 H         1 UNK         0.3000 
    196 H196       -4.9914  -25.4471  -47.1430 H         1 UNK         0.0600 
    197 H197       -4.7514  -26.2574  -44.7883 H         1 UNK         0.0600 
    198 H198       -5.1188  -24.5401  -44.8489 H         1 UNK         0.0600 
    199 H199       -3.4767  -25.0769  -44.5046 H         1 UNK         0.0600 
    200 H200       -1.5030  -25.3918  -46.1848 H         1 UNK         0.3000 
    201 H201       -1.0163  -28.1564  -46.5350 H         1 UNK         0.0600 
    202 H202        0.4776  -26.6898  -45.2285 H         1 UNK         0.0600 
    203 H203        0.9033  -25.7725  -46.6728 H         1 UNK         0.0600 
    204 H204        1.3914  -27.4565  -46.5175 H         1 UNK         0.0600 
    205 H205       -0.7496  -25.4403  -48.8367 H         1 UNK         0.3000 
    206 H206        0.2150  -26.9847  -51.0663 H         1 UNK         0.0600 
    207 H207        0.4861  -24.5128  -50.8815 H         1 UNK         0.0600 
    208 H208       -0.4038  -24.9204  -52.3406 H         1 UNK         0.0600 
    209 H209       -1.2617  -24.2956  -50.9368 H         1 UNK         0.0600 
    210 H210       -2.8625  -26.8212  -49.5667 H         1 UNK         0.3000 
    211 H211       -4.9364  -27.4094  -49.9772 H         1 UNK         0.0600 
    212 H212       -3.8744  -29.1529  -52.2630 H         1 UNK         0.0600 
    213 H213       -5.4108  -29.3358  -51.4292 H         1 UNK         0.0600 
    214 H214       -3.9106  -29.6237  -50.5638 H         1 UNK         0.0600 
    215 H215       -3.8955  -25.0313  -51.2113 H         1 UNK         0.3000 
    216 H216       -5.3341  -24.7223  -53.7896 H         1 UNK         0.0600 
    217 H217       -4.0455  -22.5895  -53.8923 H         1 UNK         0.0600 
    218 H218       -2.9778  -23.9661  -53.6646 H         1 UNK         0.0600 
    219 H219       -3.3545  -22.9150  -52.3023 H         1 UNK         0.0600 
    220 H220       -5.2923  -23.5624  -50.4489 H         1 UNK         0.3000 
    221 H221       -6.6036  -22.3864  -49.1442 H         1 UNK         0.0600 
    222 H222       -8.8802  -22.7231  -51.1706 H         1 UNK         0.0600 
    223 H223       -8.4336  -23.9251  -49.9614 H         1 UNK         0.0600 
    224 H224       -9.0373  -22.3568  -49.4612 H         1 UNK         0.0600 
    225 H225       -8.0531  -20.3713  -48.9592 H         1 UNK         0.3000 
    226 H226       -8.1856  -18.1619  -49.0126 H         1 UNK         0.0600 
    227 H227       -9.7131  -18.7326  -50.8690 H         1 UNK         0.0600 
    228 H228       -8.9492  -17.1878  -51.1811 H         1 UNK         0.0600 
    229 H229       -8.4055  -18.6324  -52.0386 H         1 UNK         0.0600 
    230 H230       -6.9016  -17.2067  -51.9591 H         1 UNK         0.3000 
    231 H231       -4.6304  -15.8729  -50.7113 H         1 UNK         0.0600 
    232 H232       -6.1612  -14.6944  -52.2915 H         1 UNK         0.0600 
    233 H233       -4.5152  -14.7055  -52.8981 H         1 UNK         0.0600 
    234 H234       -5.7037  -15.8081  -53.5814 H         1 UNK         0.0600 
    235 H235       -4.8946  -18.9736  -51.8761 H         1 UNK         0.3000 
    236 H236       -3.5806  -20.5529  -52.6173 H         1 UNK         0.0600 
    237 H237       -1.1469  -20.5131  -52.0307 H         1 UNK         0.0600 
    238 H238       -1.2731  -18.8151  -51.5786 H         1 UNK         0.0600 
    239 H239       -2.1621  -20.0390  -50.6839 H         1 UNK         0.0600 
    240 H240       -0.8654  -18.5570  -53.5464 H         1 UNK         0.3000 
    241 H241       -1.2937  -19.1320  -56.3670 H         1 UNK         0.0600 
    242 H242       -2.3820  -16.5051  -54.3398 H         1 UNK         0.3800 
    243 H243       -2.7286  -15.4233  -55.6707 H         1 UNK         0.3800 
    244 H244        0.9613  -19.3183  -55.4799 H         1 UNK         0.0800 
    245 H245        0.8867  -18.1521  -56.7617 H         1 UNK         0.0800 
    246 H246        2.7794  -18.9858  -54.2119 H         1 UNK         0.0800 
    247 H247        3.6079  -17.4787  -53.9566 H         1 UNK         0.0800 
@<TRIPOS>BOND
     1    1    2 1    
     2    1  127 1    
     3    1  128 1    
     4    1  129 1    
     5    2    3 2    
     6    2    4 am   BACKBONE|DICT|INTERRES
     7    4    5 1    
     8    4  130 1    
     9    5    6 1    
    10    5   65 1    
    11    5  131 1    
    12    6    7 1    
    13    6  132 1    
    14    6  133 1    
    15    7    8 1    
    16    8    9 1    
    17    8  134 1    
    18    8  135 1    
    19    9   10 ar   
    20    9   14 ar   
    21   10   11 ar   
    22   10  136 1    
    23   11   12 ar   
    24   11  126 1    
    25   12   13 ar   
    26   12  137 1    
    27   13   14 ar   
    28   13   15 1    
    29   14  138 1    
    30   15   16 1    
    31   15  139 1    
    32   15  140 1    
    33   16   17 1    
    34   17   18 1    
    35   17  141 1    
    36   17  142 1    
    37   18   19 1    
    38   18   67 1    
    39   18  143 1    
    40   19   20 am   BACKBONE|DICT|INTERRES
    41   19  144 1    
    42   20   21 2    
    43   20   22 1    
    44   22   23 1    
    45   22   24 1    
    46   22  145 1    
    47   23  146 1    
    48   23  147 1    
    49   23  148 1    
    50   24   25 am   BACKBONE|DICT|INTERRES
    51   24  149 1    
    52   25   26 2    
    53   25   27 1    
    54   27   28 1    
    55   27   29 1    
    56   27  150 1    
    57   28  151 1    
    58   28  152 1    
    59   28  153 1    
    60   29   30 am   BACKBONE|DICT|INTERRES
    61   29  154 1    
    62   30   31 2    
    63   30   32 1    
    64   32   33 1    
    65   32   34 1    
    66   32  155 1    
    67   33  156 1    
    68   33  157 1    
    69   33  158 1    
    70   34   35 am   BACKBONE|DICT|INTERRES
    71   34  159 1    
    72   35   36 2    
    73   35   37 1    
    74   37   38 1    
    75   37   39 1    
    76   37  160 1    
    77   38  161 1    
    78   38  162 1    
    79   38  163 1    
    80   39   40 am   BACKBONE|DICT|INTERRES
    81   39  164 1    
    82   40   41 2    
    83   40   42 1    
    84   42   43 1    
    85   42   44 1    
    86   42  165 1    
    87   43  166 1    
    88   43  167 1    
    89   43  168 1    
    90   44   45 am   BACKBONE|DICT|INTERRES
    91   44  169 1    
    92   45   46 2    
    93   45   47 1    
    94   47   48 1    
    95   47   49 1    
    96   47  170 1    
    97   48  171 1    
    98   48  172 1    
    99   48  173 1    
   100   49   50 am   BACKBONE|DICT|INTERRES
   101   49  174 1    
   102   50   51 2    
   103   50   52 1    
   104   52   53 1    
   105   52   54 1    
   106   52  175 1    
   107   53  176 1    
   108   53  177 1    
   109   53  178 1    
   110   54   55 am   BACKBONE|DICT|INTERRES
   111   54  179 1    
   112   55   56 2    
   113   55   57 1    
   114   57   58 1    
   115   57   59 1    
   116   57  180 1    
   117   58  181 1    
   118   58  182 1    
   119   58  183 1    
   120   59   60 am   BACKBONE|DICT|INTERRES
   121   59  184 1    
   122   60   61 2    
   123   60   62 1    
   124   62   63 1    
   125   62   64 1    
   126   62  185 1    
   127   63  186 1    
   128   63  187 1    
   129   63  188 1    
   130   64   65 am   BACKBONE|DICT|INTERRES
   131   64  189 1    
   132   65   66 2    
   133   67   68 2    
   134   67   69 am   BACKBONE|DICT|INTERRES
   135   69   70 1    
   136   69  190 1    
   137   70   71 1    
   138   70   72 1    
   139   70  191 1    
   140   71  192 1    
   141   71  193 1    
   142   71  194 1    
   143   72   73 2    
   144   72   74 am   BACKBONE|DICT|INTERRES
   145   74   75 1    
   146   74  195 1    
   147   75   76 1    
   148   75   77 1    
   149   75  196 1    
   150   76  197 1    
   151   76  198 1    
   152   76  199 1    
   153   77   78 2    
   154   77   79 am   BACKBONE|DICT|INTERRES
   155   79   80 1    
   156   79  200 1    
   157   80   81 1    
   158   80   82 1    
   159   80  201 1    
   160   81  202 1    
   161   81  203 1    
   162   81  204 1    
   163   82   83 2    
   164   82   84 am   BACKBONE|DICT|INTERRES
   165   84   85 1    
   166   84  205 1    
   167   85   86 1    
   168   85   87 1    
   169   85  206 1    
   170   86  207 1    
   171   86  208 1    
   172   86  209 1    
   173   87   88 2    
   174   87   89 am   BACKBONE|DICT|INTERRES
   175   89   90 1    
   176   89  210 1    
   177   90   91 1    
   178   90   92 1    
   179   90  211 1    
   180   91  212 1    
   181   91  213 1    
   182   91  214 1    
   183   92   93 2    
   184   92   94 am   BACKBONE|DICT|INTERRES
   185   94   95 1    
   186   94  215 1    
   187   95   96 1    
   188   95   97 1    
   189   95  216 1    
   190   96  217 1    
   191   96  218 1    
   192   96  219 1    
   193   97   98 2    
   194   97   99 am   BACKBONE|DICT|INTERRES
   195   99  100 1    
   196   99  220 1    
   197  100  101 1    
   198  100  102 1    
   199  100  221 1    
   200  101  222 1    
   201  101  223 1    
   202  101  224 1    
   203  102  103 2    
   204  102  104 am   BACKBONE|DICT|INTERRES
   205  104  105 1    
   206  104  225 1    
   207  105  106 1    
   208  105  107 1    
   209  105  226 1    
   210  106  227 1    
   211  106  228 1    
   212  106  229 1    
   213  107  108 2    
   214  107  109 am   BACKBONE|DICT|INTERRES
   215  109  110 1    
   216  109  230 1    
   217  110  111 1    
   218  110  112 1    
   219  110  231 1    
   220  111  232 1    
   221  111  233 1    
   222  111  234 1    
   223  112  113 2    
   224  112  114 am   BACKBONE|DICT|INTERRES
   225  114  115 1    
   226  114  235 1    
   227  115  116 1    
   228  115  117 1    
   229  115  236 1    
   230  116  237 1    
   231  116  238 1    
   232  116  239 1    
   233  117  118 2    
   234  117  119 am   BACKBONE|DICT|INTERRES
   235  119  120 1    
   236  119  240 1    
   237  120  121 1    
   238  120  124 1    
   239  120  241 1    
   240  121  122 am   BACKBONE|DICT|INTERRES
   241  121  123 2    
   242  122  242 1    
   243  122  243 1    
   244  124  125 1    
   245  124  244 1    
   246  124  245 1    
   247  125  126 1    
   248  126  246 1    
   249  126  247 1    
@<TRIPOS>SUBSTRUCTURE
     1 UNK         1 GROUP             0       ****    0 ROOT    
