@<TRIPOS>MOLECULE
3R540
247   249    1
SMALL
USER_CHARGES


@<TRIPOS>ATOM
      1 CA         -1.7338   -8.2098  -49.5760 C.3       0 UNK        -0.1800 
      2 C          -0.5634   -9.1814  -49.6300 C.2       0 UNK         0.5000 
      3 O           0.4075   -8.9314  -50.3442 O.2       0 UNK        -0.5000 
      4 N          -0.6491  -10.2843  -48.8739 N.am      1 UNK        -0.5000 
      5 CA          0.3792  -11.3331  -48.7958 C.3       1 UNK         0.1400 
      6 C6         -0.2406  -12.6976  -48.3857 C.3       23 UNK        -0.0398 
      7 S7          0.5253  -14.1054  -49.2525 S.3       23 UNK        -0.2404 
      8 C8         -0.4260  -15.4939  -48.5632 C.3       23 UNK        -0.0205 
      9 C9         -0.0717  -16.7983  -49.2590 C.ar      23 UNK        -0.0193 
     10 C10        -0.5769  -17.0570  -50.5353 C.ar      23 UNK        -0.1150 
     11 C11        -0.2271  -18.2246  -51.2172 C.ar      23 UNK        -0.0193 
     12 C12         0.6088  -19.1569  -50.5959 C.ar      23 UNK        -0.1150 
     13 C13         1.1087  -18.9212  -49.3105 C.ar      23 UNK        -0.0193 
     14 C14         0.7676  -17.7360  -48.6474 C.ar      23 UNK        -0.1150 
     15 C15         2.0577  -19.9275  -48.6680 C.3       23 UNK        -0.0205 
     16 S16         1.4115  -20.6482  -47.1244 S.3       23 UNK        -0.2404 
     17 C17        -0.1198  -21.4676  -47.6798 C.3       23 UNK        -0.0398 
     18 CA         -0.3891  -22.8271  -46.9876 C.3       11 UNK         0.1400 
     19 N          -0.3775  -22.7429  -45.5206 N.am      11 UNK        -0.5000 
     20 C          -0.4992  -23.7896  -44.6896 C.2       10 UNK         0.5000 
     21 O          -0.6017  -24.9550  -45.0688 O.2       10 UNK        -0.5000 
     22 CA         -0.5789  -23.4861  -43.1855 C.3       10 UNK         0.1400 
     23 CB          0.8238  -23.3534  -42.5737 C.3       10 UNK        -0.1800 
     24 N          -1.3581  -22.2770  -42.9271 N.am      10 UNK        -0.5000 
     25 C          -2.6951  -22.2140  -42.9970 C.2       9 UNK         0.5000 
     26 O          -3.4112  -23.1866  -43.2328 O.2       9 UNK        -0.5000 
     27 CA         -3.3381  -20.8248  -42.8181 C.3       9 UNK         0.1400 
     28 CB         -3.5205  -20.4993  -41.3284 C.3       9 UNK        -0.1800 
     29 N          -2.5724  -19.7531  -43.4565 N.am      9 UNK        -0.5000 
     30 C          -2.3512  -19.6645  -44.7749 C.2       8 UNK         0.5000 
     31 O          -2.8105  -20.4567  -45.5958 O.2       8 UNK        -0.5000 
     32 CA         -1.4227  -18.5350  -45.2568 C.3       8 UNK         0.1400 
     33 CB         -2.2423  -17.2679  -45.5343 C.3       8 UNK        -0.1800 
     34 N          -0.3141  -18.2092  -44.3532 N.am      8 UNK        -0.5000 
     35 C           0.5619  -19.0716  -43.8148 C.2       7 UNK         0.5000 
     36 O           0.4725  -20.2932  -43.9232 O.2       7 UNK        -0.5000 
     37 CA          1.7370  -18.4844  -43.0143 C.3       7 UNK         0.1400 
     38 CB          3.0129  -18.4792  -43.8710 C.3       7 UNK        -0.1800 
     39 N           1.4736  -17.1279  -42.5338 N.am      7 UNK        -0.5000 
     40 C           0.7786  -16.8301  -41.4272 C.2       6 UNK         0.5000 
     41 O           0.2976  -17.6771  -40.6742 O.2       6 UNK        -0.5000 
     42 CA          0.5809  -15.3336  -41.1135 C.3       6 UNK         0.1400 
     43 CB          1.7169  -14.8166  -40.2182 C.3       6 UNK        -0.1800 
     44 N           0.5173  -14.5138  -42.3240 N.am      6 UNK        -0.5000 
     45 C          -0.5319  -14.4783  -43.1582 C.2       5 UNK         0.5000 
     46 O          -1.5947  -15.0586  -42.9407 O.2       5 UNK        -0.5000 
     47 CA         -0.3494  -13.7009  -44.4772 C.3       5 UNK         0.1400 
     48 CB         -0.8939  -12.2721  -44.3366 C.3       5 UNK        -0.1800 
     49 N           1.0459  -13.6659  -44.9339 N.am      5 UNK        -0.5000 
     50 C           1.7352  -14.7571  -45.3085 C.2       4 UNK         0.5000 
     51 O           1.2314  -15.8781  -45.3427 O.2       4 UNK        -0.5000 
     52 CA          3.2318  -14.6147  -45.6468 C.3       4 UNK         0.1400 
     53 CB          3.5069  -14.9264  -47.1246 C.3       4 UNK        -0.1800 
     54 N           3.7857  -13.3049  -45.3080 N.am      4 UNK        -0.5000 
     55 C           4.0822  -12.9110  -44.0613 C.2       3 UNK         0.5000 
     56 O           3.9340  -13.6273  -43.0703 O.2       3 UNK        -0.5000 
     57 CA          4.5858  -11.4640  -43.8844 C.3       3 UNK         0.1400 
     58 CB          6.1213  -11.4261  -43.8858 C.3       3 UNK        -0.1800 
     59 N           4.0822  -10.5301  -44.8973 N.am      3 UNK        -0.5000 
     60 C           2.7889  -10.2445  -45.1004 C.2       2 UNK         0.5000 
     61 O           1.8780  -10.7532  -44.4467 O.2       2 UNK        -0.5000 
     62 CA          2.4319   -9.2531  -46.2268 C.3       2 UNK         0.1400 
     63 CB          3.6488   -8.7043  -47.0061 C.3       2 UNK        -0.1800 
     64 N           1.4441   -9.8253  -47.1477 N.am      2 UNK        -0.5000 
     65 C           1.5742  -10.9366  -47.8914 C.2       1 UNK         0.5000 
     66 O           2.5882  -11.6351  -47.8864 O.2       1 UNK        -0.5000 
     67 C          -1.7129  -23.4258  -47.5086 C.2       11 UNK         0.5000 
     68 O          -1.6895  -24.2946  -48.3816 O.2       11 UNK        -0.5000 
     69 N          -2.8398  -22.9651  -46.9468 N.am      12 UNK        -0.5000 
     70 CA         -4.1839  -23.4680  -47.2243 C.3       12 UNK         0.1400 
     71 CB         -5.2249  -22.5174  -46.6137 C.3       12 UNK        -0.1800 
     72 C          -4.4102  -24.9046  -46.7186 C.2       12 UNK         0.5000 
     73 O          -5.0985  -25.6738  -47.3874 O.2       12 UNK        -0.5000 
     74 N          -3.8385  -25.2449  -45.5567 N.am      13 UNK        -0.5000 
     75 CA         -3.9651  -26.5685  -44.9486 C.3       13 UNK         0.1400 
     76 CB         -3.5844  -26.4954  -43.4617 C.3       13 UNK        -0.1800 
     77 C          -3.1298  -27.6400  -45.6705 C.2       13 UNK         0.5000 
     78 O          -3.6510  -28.7161  -45.9665 O.2       13 UNK        -0.5000 
     79 N          -1.8466  -27.3422  -45.9111 N.am      14 UNK        -0.5000 
     80 CA         -0.8730  -28.3009  -46.4280 C.3       14 UNK         0.1400 
     81 CB          0.5381  -27.8931  -45.9735 C.3       14 UNK        -0.1800 
     82 C          -0.9297  -28.4432  -47.9559 C.2       14 UNK         0.5000 
     83 O          -1.0013  -29.5670  -48.4555 O.2       14 UNK        -0.5000 
     84 N          -0.8615  -27.3113  -48.6677 N.am      15 UNK        -0.5000 
     85 CA         -0.6957  -27.2744  -50.1231 C.3       15 UNK         0.1400 
     86 CB          0.4169  -26.2657  -50.4567 C.3       15 UNK        -0.1800 
     87 C          -1.9850  -26.8990  -50.8708 C.2       15 UNK         0.5000 
     88 O          -2.0618  -27.1333  -52.0769 O.2       15 UNK        -0.5000 
     89 N          -2.9414  -26.2781  -50.1635 N.am      16 UNK        -0.5000 
     90 CA         -4.1378  -25.6034  -50.6874 C.3       16 UNK         0.1400 
     91 CB         -5.0743  -26.5838  -51.4225 C.3       16 UNK        -0.1800 
     92 C          -3.8050  -24.3520  -51.5283 C.2       16 UNK         0.5000 
     93 O          -4.6622  -23.8653  -52.2645 O.2       16 UNK        -0.5000 
     94 N          -2.5752  -23.8349  -51.3952 N.am      17 UNK        -0.5000 
     95 CA         -2.0310  -22.7597  -52.2212 C.3       17 UNK         0.1400 
     96 CB         -0.5157  -22.6561  -51.9951 C.3       17 UNK        -0.1800 
     97 C          -2.7261  -21.4155  -51.9691 C.2       17 UNK         0.5000 
     98 O          -3.1171  -20.7468  -52.9246 O.2       17 UNK        -0.5000 
     99 N          -2.9032  -21.0601  -50.6896 N.am      18 UNK        -0.5000 
    100 CA        -3.5996  -19.8388  -50.2776 C.3       18 UNK         0.1400 
    101 CB        -3.2713  -19.5196  -48.8143 C.3       18 UNK        -0.1800 
    102 C         -5.1187  -19.9131  -50.5138 C.2       18 UNK         0.5000 
    103 O         -5.7329  -18.8873  -50.8040 O.2       18 UNK        -0.5000 
    104 N         -5.6878  -21.1260  -50.4465 N.am      19 UNK        -0.5000 
    105 CA        -7.0875  -21.4031  -50.7810 C.3       19 UNK         0.1400 
    106 CB        -7.4625  -22.8116  -50.2939 C.3       19 UNK        -0.1800 
    107 C         -7.3649  -21.2419  -52.2893 C.2       19 UNK         0.5000 
    108 O         -8.4172  -20.7267  -52.6665 O.2       19 UNK        -0.5000 
    109 N         -6.3893  -21.6372  -53.1179 N.am      20 UNK        -0.5000 
    110 CA        -6.3725  -21.4509  -54.5696 C.3       20 UNK         0.1400 
    111 CB        -5.4505  -22.5181  -55.1832 C.3       20 UNK        -0.1800 
    112 C         -5.9258  -20.0377  -55.0044 C.2       20 UNK         0.5000 
    113 O         -5.8477  -19.7821  -56.2073 O.2       20 UNK        -0.5000 
    114 N         -5.6009  -19.1597  -54.0414 N.am      21 UNK        -0.5000 
    115 CA        -5.1023  -17.7884  -54.2127 C.3       21 UNK         0.1400 
    116 CB        -6.2215  -16.8733  -54.7500 C.3       21 UNK        -0.1800 
    117 C         -3.8069  -17.7152  -55.0521 C.2       21 UNK         0.5000 
    118 O         -3.6294  -16.7882  -55.8440 O.2       21 UNK        -0.5000 
    119 N         -2.9427  -18.7215  -54.8703 N.am      22 UNK        -0.5000 
    120 CA        -1.6928  -18.9760  -55.6032 C.3       22 UNK         0.1400 
    121 C         -1.9074  -19.4360  -57.0806 C.2       22 UNK         0.5000 
    122 N         -3.1203  -19.7507  -57.5230 N.am      22 UNK        -0.7600 
    123 O         -0.9483  -19.5474  -57.8396 O.2       22 UNK        -0.5000 
    124 C124       -0.6413  -17.8282  -55.4901 C.3       23 UNK        -0.0398 
    125 S125       -0.0301  -17.3220  -53.8322 S.3       23 UNK        -0.2404 
    126 C126       -0.7584  -18.4708  -52.6210 C.3       23 UNK        -0.0205 
    127 H127       -2.1667   -8.0888  -50.5690 H         1 UNK         0.0600 
    128 H128       -1.3953   -7.2334  -49.2293 H         1 UNK         0.0600 
    129 H129       -2.5187   -8.5562  -48.9033 H         1 UNK         0.0600 
    130 H130       -1.4735  -10.4298  -48.3080 H         1 UNK         0.3000 
    131 H131        0.7900  -11.4412  -49.8023 H         1 UNK         0.0600 
    132 H132       -1.3017  -12.7226  -48.6384 H         1 UNK         0.0800 
    133 H133       -0.1893  -12.8598  -47.3097 H         1 UNK         0.0800 
    134 H134       -0.2256  -15.5645  -47.4959 H         1 UNK         0.0800 
    135 H135       -1.4945  -15.3014  -48.6707 H         1 UNK         0.0800 
    136 H136       -1.2195  -16.3311  -51.0137 H         1 UNK         0.1150 
    137 H137        0.8846  -20.0600  -51.1210 H         1 UNK         0.1150 
    138 H138        1.1632  -17.5416  -47.6597 H         1 UNK         0.1150 
    139 H139        2.2971  -20.7358  -49.3607 H         1 UNK         0.0800 
    140 H140        3.0012  -19.4262  -48.4487 H         1 UNK         0.0800 
    141 H141       -0.0670  -21.6049  -48.7600 H         1 UNK         0.0800 
    142 H142       -0.9427  -20.7778  -47.5027 H         1 UNK         0.0800 
    143 H143        0.4102  -23.5136  -47.2744 H         1 UNK         0.0600 
    144 H144       -0.2445  -21.8212  -45.1179 H         1 UNK         0.3000 
    145 H145       -1.0751  -24.3272  -42.6974 H         1 UNK         0.0600 
    146 H146        0.7701  -23.1392  -41.5063 H         1 UNK         0.0600 
    147 H147        1.3851  -24.2811  -42.6915 H         1 UNK         0.0600 
    148 H148        1.4044  -22.5614  -43.0465 H         1 UNK         0.0600 
    149 H149       -0.8301  -21.4154  -42.8495 H         1 UNK         0.3000 
    150 H150       -4.3247  -20.8553  -43.2853 H         1 UNK         0.0600 
    151 H151       -4.1011  -21.2753  -40.8277 H         1 UNK         0.0600 
    152 H152       -4.0529  -19.5578  -41.1929 H         1 UNK         0.0600 
    153 H153       -2.5624  -20.4208  -40.8128 H         1 UNK         0.0600 
    154 H154       -2.1423  -19.0697  -42.8506 H         1 UNK         0.3000 
    155 H155       -0.9737  -18.8541  -46.1977 H         1 UNK         0.0600 
    156 H156       -2.7367  -16.9045  -44.6328 H         1 UNK         0.0600 
    157 H157       -3.0151  -17.4576  -46.2801 H         1 UNK         0.0600 
    158 H158       -1.6137  -16.4658  -45.9149 H         1 UNK         0.0600 
    159 H159       -0.0956  -17.2255  -44.2647 H         1 UNK         0.3000 
    160 H160        1.9101  -19.1372  -42.1562 H         1 UNK         0.0600 
    161 H161        2.8938  -17.8809  -44.7745 H         1 UNK         0.0600 
    162 H162        3.2714  -19.4911  -44.1862 H         1 UNK         0.0600 
    163 H163        3.8630  -18.0847  -43.3143 H         1 UNK         0.0600 
    164 H164        1.7941  -16.3739  -43.1235 H         1 UNK         0.3000 
    165 H165       -0.3595  -15.2270  -40.5685 H         1 UNK         0.0600 
    166 H166        1.5557  -13.7753  -39.9387 H         1 UNK         0.0600 
    167 H167        1.7809  -15.3945  -39.2953 H         1 UNK         0.0600 
    168 H168        2.6851  -14.8839  -40.7164 H         1 UNK         0.0600 
    169 H169        1.3534  -14.0037  -42.5738 H         1 UNK         0.3000 
    170 H170       -0.9364  -14.2099  -45.2438 H         1 UNK         0.0600 
    171 H171       -1.9624  -12.2846  -44.1183 H         1 UNK         0.0600 
    172 H172       -0.4035  -11.7340  -43.5247 H         1 UNK         0.0600 
    173 H173       -0.7556  -11.6964  -45.2515 H         1 UNK         0.0600 
    174 H174        1.5150  -12.7677  -44.8908 H         1 UNK         0.3000 
    175 H175        3.7551  -15.3690  -45.0553 H         1 UNK         0.0600 
    176 H176        3.0573  -14.1869  -47.7842 H         1 UNK         0.0600 
    177 H177        4.5772  -14.9477  -47.3290 H         1 UNK         0.0600 
    178 H178        3.1043  -15.9009  -47.4039 H         1 UNK         0.0600 
    179 H179        3.8804  -12.6435  -46.0680 H         1 UNK         0.3000 
    180 H180        4.2362  -11.1156  -42.9104 H         1 UNK         0.0600 
    181 H181        6.5304  -11.7369  -44.8480 H         1 UNK         0.0600 
    182 H182        6.5294  -12.0926  -43.1247 H         1 UNK         0.0600 
    183 H183        6.4922  -10.4239  -43.6701 H         1 UNK         0.0600 
    184 H184        4.7718  -10.0866  -45.4865 H         1 UNK         0.3000 
    185 H185        1.9449   -8.4073  -45.7395 H         1 UNK         0.0600 
    186 H186        4.3346   -8.1727  -46.3454 H         1 UNK         0.0600 
    187 H187        4.2101   -9.4935  -47.5076 H         1 UNK         0.0600 
    188 H188        3.3305   -7.9944  -47.7696 H         1 UNK         0.0600 
    189 H189        0.5635   -9.3345  -47.2007 H         1 UNK         0.3000 
    190 H190       -2.7758  -22.2018  -46.2764 H         1 UNK         0.3000 
    191 H191       -4.3243  -23.4674  -48.3060 H         1 UNK         0.0600 
    192 H192       -5.1591  -21.5204  -47.0471 H         1 UNK         0.0600 
    193 H193       -6.2385  -22.8790  -46.7915 H         1 UNK         0.0600 
    194 H194       -5.0947  -22.4206  -45.5350 H         1 UNK         0.0600 
    195 H195       -3.3228  -24.5474  -45.0357 H         1 UNK         0.3000 
    196 H196       -5.0128  -26.8721  -45.0050 H         1 UNK         0.0600 
    197 H197       -3.6768  -27.4725  -42.9860 H         1 UNK         0.0600 
    198 H198       -4.2373  -25.8096  -42.9218 H         1 UNK         0.0600 
    199 H199       -2.5570  -26.1590  -43.3233 H         1 UNK         0.0600 
    200 H200       -1.4837  -26.4334  -45.6277 H         1 UNK         0.3000 
    201 H201       -1.0831  -29.2815  -45.9949 H         1 UNK         0.0600 
    202 H202        0.6029  -27.8476  -44.8862 H         1 UNK         0.0600 
    203 H203        0.8256  -26.9165  -46.3648 H         1 UNK         0.0600 
    204 H204        1.2818  -28.6147  -46.3141 H         1 UNK         0.0600 
    205 H205       -0.8396  -26.4222  -48.1850 H         1 UNK         0.3000 
    206 H206       -0.3799  -28.2502  -50.4982 H         1 UNK         0.0600 
    207 H207        1.3613  -26.5579  -49.9972 H         1 UNK         0.0600 
    208 H208        0.5858  -26.2079  -51.5328 H         1 UNK         0.0600 
    209 H209        0.1741  -25.2615  -50.1085 H         1 UNK         0.0600 
    210 H210       -2.7465  -26.1047  -49.1860 H         1 UNK         0.3000 
    211 H211       -4.6865  -25.2314  -49.8265 H         1 UNK         0.0600 
    212 H212       -4.6538  -26.9203  -52.3702 H         1 UNK         0.0600 
    213 H213       -6.0327  -26.1130  -51.6445 H         1 UNK         0.0600 
    214 H214       -5.2803  -27.4634  -50.8126 H         1 UNK         0.0600 
    215 H215       -1.9554  -24.2570  -50.7175 H         1 UNK         0.3000 
    216 H216       -2.1979  -23.0240  -53.2677 H         1 UNK         0.0600 
    217 H217       -0.0792  -21.8754  -52.6186 H         1 UNK         0.0600 
    218 H218       -0.0168  -23.5898  -52.2554 H         1 UNK         0.0600 
    219 H219       -0.2730  -22.4275  -50.9579 H         1 UNK         0.0600 
    220 H220       -2.5683  -21.6724  -49.9624 H         1 UNK         0.3000 
    221 H221       -3.2298  -19.0083  -50.8806 H         1 UNK         0.0600 
    222 H222       -3.4737  -20.3680  -48.1635 H         1 UNK         0.0600 
    223 H223       -2.2223  -19.2463  -48.7028 H         1 UNK         0.0600 
    224 H224       -3.8603  -18.6765  -48.4513 H         1 UNK         0.0600 
    225 H225       -5.1025  -21.9207  -50.2444 H         1 UNK         0.3000 
    226 H226       -7.7128  -20.6833  -50.2484 H         1 UNK         0.0600 
    227 H227       -7.3026  -22.9144  -49.2206 H         1 UNK         0.0600 
    228 H228       -8.5156  -23.0201  -50.4863 H         1 UNK         0.0600 
    229 H229       -6.8814  -23.5852  -50.7955 H         1 UNK         0.0600 
    230 H230       -5.5885  -22.1233  -52.7280 H         1 UNK         0.3000 
    231 H231       -7.3808  -21.6068  -54.9580 H         1 UNK         0.0600 
    232 H232       -5.7761  -23.5227  -54.9128 H         1 UNK         0.0600 
    233 H233       -4.4202  -22.3990  -54.8455 H         1 UNK         0.0600 
    234 H234       -5.4483  -22.4614  -56.2724 H         1 UNK         0.0600 
    235 H235       -5.6756  -19.4745  -53.0839 H         1 UNK         0.3000 
    236 H236       -4.8359  -17.4346  -53.2157 H         1 UNK         0.0600 
    237 H237       -5.9039  -15.8301  -54.7599 H         1 UNK         0.0600 
    238 H238       -6.5070  -17.1387  -55.7683 H         1 UNK         0.0600 
    239 H239       -7.1126  -16.9338  -54.1251 H         1 UNK         0.0600 
    240 H240       -3.1883  -19.4452  -54.1972 H         1 UNK         0.3000 
    241 H241       -1.2599  -19.8540  -55.1248 H         1 UNK         0.0600 
    242 H242       -3.9396  -19.6648  -56.9322 H         1 UNK         0.3800 
    243 H243       -3.2296  -20.0565  -58.4767 H         1 UNK         0.3800 
    244 H244       -1.0164  -16.9329  -55.9867 H         1 UNK         0.0800 
    245 H245        0.2542  -18.1039  -56.0489 H         1 UNK         0.0800 
    246 H246       -0.5626  -19.4974  -52.9280 H         1 UNK         0.0800 
    247 H247       -1.8370  -18.3341  -52.5968 H         1 UNK         0.0800 
@<TRIPOS>BOND
     1    1    2 1    
     2    1  127 1    
     3    1  128 1    
     4    1  129 1    
     5    2    3 2    
     6    2    4 am   BACKBONE|DICT|INTERRES
     7    4    5 1    
     8    4  130 1    
     9    5    6 1    
    10    5   65 1    
    11    5  131 1    
    12    6    7 1    
    13    6  132 1    
    14    6  133 1    
    15    7    8 1    
    16    8    9 1    
    17    8  134 1    
    18    8  135 1    
    19    9   10 ar   
    20    9   14 ar   
    21   10   11 ar   
    22   10  136 1    
    23   11   12 ar   
    24   11  126 1    
    25   12   13 ar   
    26   12  137 1    
    27   13   14 ar   
    28   13   15 1    
    29   14  138 1    
    30   15   16 1    
    31   15  139 1    
    32   15  140 1    
    33   16   17 1    
    34   17   18 1    
    35   17  141 1    
    36   17  142 1    
    37   18   19 1    
    38   18   67 1    
    39   18  143 1    
    40   19   20 am   BACKBONE|DICT|INTERRES
    41   19  144 1    
    42   20   21 2    
    43   20   22 1    
    44   22   23 1    
    45   22   24 1    
    46   22  145 1    
    47   23  146 1    
    48   23  147 1    
    49   23  148 1    
    50   24   25 am   BACKBONE|DICT|INTERRES
    51   24  149 1    
    52   25   26 2    
    53   25   27 1    
    54   27   28 1    
    55   27   29 1    
    56   27  150 1    
    57   28  151 1    
    58   28  152 1    
    59   28  153 1    
    60   29   30 am   BACKBONE|DICT|INTERRES
    61   29  154 1    
    62   30   31 2    
    63   30   32 1    
    64   32   33 1    
    65   32   34 1    
    66   32  155 1    
    67   33  156 1    
    68   33  157 1    
    69   33  158 1    
    70   34   35 am   BACKBONE|DICT|INTERRES
    71   34  159 1    
    72   35   36 2    
    73   35   37 1    
    74   37   38 1    
    75   37   39 1    
    76   37  160 1    
    77   38  161 1    
    78   38  162 1    
    79   38  163 1    
    80   39   40 am   BACKBONE|DICT|INTERRES
    81   39  164 1    
    82   40   41 2    
    83   40   42 1    
    84   42   43 1    
    85   42   44 1    
    86   42  165 1    
    87   43  166 1    
    88   43  167 1    
    89   43  168 1    
    90   44   45 am   BACKBONE|DICT|INTERRES
    91   44  169 1    
    92   45   46 2    
    93   45   47 1    
    94   47   48 1    
    95   47   49 1    
    96   47  170 1    
    97   48  171 1    
    98   48  172 1    
    99   48  173 1    
   100   49   50 am   BACKBONE|DICT|INTERRES
   101   49  174 1    
   102   50   51 2    
   103   50   52 1    
   104   52   53 1    
   105   52   54 1    
   106   52  175 1    
   107   53  176 1    
   108   53  177 1    
   109   53  178 1    
   110   54   55 am   BACKBONE|DICT|INTERRES
   111   54  179 1    
   112   55   56 2    
   113   55   57 1    
   114   57   58 1    
   115   57   59 1    
   116   57  180 1    
   117   58  181 1    
   118   58  182 1    
   119   58  183 1    
   120   59   60 am   BACKBONE|DICT|INTERRES
   121   59  184 1    
   122   60   61 2    
   123   60   62 1    
   124   62   63 1    
   125   62   64 1    
   126   62  185 1    
   127   63  186 1    
   128   63  187 1    
   129   63  188 1    
   130   64   65 am   BACKBONE|DICT|INTERRES
   131   64  189 1    
   132   65   66 2    
   133   67   68 2    
   134   67   69 am   BACKBONE|DICT|INTERRES
   135   69   70 1    
   136   69  190 1    
   137   70   71 1    
   138   70   72 1    
   139   70  191 1    
   140   71  192 1    
   141   71  193 1    
   142   71  194 1    
   143   72   73 2    
   144   72   74 am   BACKBONE|DICT|INTERRES
   145   74   75 1    
   146   74  195 1    
   147   75   76 1    
   148   75   77 1    
   149   75  196 1    
   150   76  197 1    
   151   76  198 1    
   152   76  199 1    
   153   77   78 2    
   154   77   79 am   BACKBONE|DICT|INTERRES
   155   79   80 1    
   156   79  200 1    
   157   80   81 1    
   158   80   82 1    
   159   80  201 1    
   160   81  202 1    
   161   81  203 1    
   162   81  204 1    
   163   82   83 2    
   164   82   84 am   BACKBONE|DICT|INTERRES
   165   84   85 1    
   166   84  205 1    
   167   85   86 1    
   168   85   87 1    
   169   85  206 1    
   170   86  207 1    
   171   86  208 1    
   172   86  209 1    
   173   87   88 2    
   174   87   89 am   BACKBONE|DICT|INTERRES
   175   89   90 1    
   176   89  210 1    
   177   90   91 1    
   178   90   92 1    
   179   90  211 1    
   180   91  212 1    
   181   91  213 1    
   182   91  214 1    
   183   92   93 2    
   184   92   94 am   BACKBONE|DICT|INTERRES
   185   94   95 1    
   186   94  215 1    
   187   95   96 1    
   188   95   97 1    
   189   95  216 1    
   190   96  217 1    
   191   96  218 1    
   192   96  219 1    
   193   97   98 2    
   194   97   99 am   BACKBONE|DICT|INTERRES
   195   99  100 1    
   196   99  220 1    
   197  100  101 1    
   198  100  102 1    
   199  100  221 1    
   200  101  222 1    
   201  101  223 1    
   202  101  224 1    
   203  102  103 2    
   204  102  104 am   BACKBONE|DICT|INTERRES
   205  104  105 1    
   206  104  225 1    
   207  105  106 1    
   208  105  107 1    
   209  105  226 1    
   210  106  227 1    
   211  106  228 1    
   212  106  229 1    
   213  107  108 2    
   214  107  109 am   BACKBONE|DICT|INTERRES
   215  109  110 1    
   216  109  230 1    
   217  110  111 1    
   218  110  112 1    
   219  110  231 1    
   220  111  232 1    
   221  111  233 1    
   222  111  234 1    
   223  112  113 2    
   224  112  114 am   BACKBONE|DICT|INTERRES
   225  114  115 1    
   226  114  235 1    
   227  115  116 1    
   228  115  117 1    
   229  115  236 1    
   230  116  237 1    
   231  116  238 1    
   232  116  239 1    
   233  117  118 2    
   234  117  119 am   BACKBONE|DICT|INTERRES
   235  119  120 1    
   236  119  240 1    
   237  120  121 1    
   238  120  124 1    
   239  120  241 1    
   240  121  122 am   BACKBONE|DICT|INTERRES
   241  121  123 2    
   242  122  242 1    
   243  122  243 1    
   244  124  125 1    
   245  124  244 1    
   246  124  245 1    
   247  125  126 1    
   248  126  246 1    
   249  126  247 1    
@<TRIPOS>SUBSTRUCTURE
     1 UNK         1 GROUP             0       ****    0 ROOT    
