@<TRIPOS>MOLECULE
3R540
247   249    1
SMALL
USER_CHARGES


@<TRIPOS>ATOM
      1 CA          2.5539  -18.5805  -47.9630 C.3       0 UNK        -0.1800 
      2 C           3.0418  -17.3108  -47.2842 C.2       0 UNK         0.5000 
      3 O           3.4038  -17.3399  -46.1096 O.2       0 UNK        -0.5000 
      4 N           3.0874  -16.1968  -48.0259 N.am      1 UNK        -0.5000 
      5 CA          3.4755  -14.8608  -47.5420 C.3       1 UNK         0.1400 
      6 C6          2.9787  -13.7328  -48.4772 C.3       23 UNK        -0.0398 
      7 S7          1.1542  -13.7080  -48.5407 S.3       23 UNK        -0.2404 
      8 C8          0.8165  -14.2041  -50.2588 C.3       23 UNK        -0.0205 
      9 C9         -0.5619  -14.8360  -50.3896 C.ar      23 UNK        -0.0193 
     10 C10        -1.7131  -14.0846  -50.1368 C.ar      23 UNK        -0.1150 
     11 C11        -2.9792  -14.6654  -50.2461 C.ar      23 UNK        -0.0193 
     12 C12        -3.0899  -16.0121  -50.6027 C.ar      23 UNK        -0.1150 
     13 C13        -1.9498  -16.7705  -50.8835 C.ar      23 UNK        -0.0193 
     14 C14        -0.6885  -16.1729  -50.7764 C.ar      23 UNK        -0.1150 
     15 C15        -2.1093  -18.2170  -51.3421 C.3       23 UNK        -0.0205 
     16 S16        -0.8572  -19.3593  -50.6729 S.3       23 UNK        -0.2404 
     17 C17        -1.1569  -19.1772  -48.8864 C.3       23 UNK        -0.0398 
     18 CA         -0.8321  -20.4685  -48.1038 C.3       11 UNK         0.1400 
     19 N          -0.5236  -20.1855  -46.7028 N.am      11 UNK        -0.5000 
     20 C          -0.0704  -21.0830  -45.8177 C.2       10 UNK         0.5000 
     21 O           0.1822  -22.2545  -46.0928 O.2       10 UNK        -0.5000 
     22 CA          0.0676  -20.6000  -44.3666 C.3       10 UNK         0.1400 
     23 CB          1.4109  -19.8865  -44.1480 C.3       10 UNK        -0.1800 
     24 N          -1.0461  -19.7284  -43.9869 N.am      10 UNK        -0.5000 
     25 C          -2.3064  -20.1602  -43.8256 C.2       9 UNK         0.5000 
     26 O          -2.6346  -21.3455  -43.8928 O.2       9 UNK        -0.5000 
     27 CA         -3.3870  -19.0861  -43.6055 C.3       9 UNK         0.1400 
     28 CB         -3.4876  -18.7075  -42.1207 C.3       9 UNK        -0.1800 
     29 N          -3.1520  -17.8857  -44.4121 N.am      9 UNK        -0.5000 
     30 C          -3.3048  -17.8427  -45.7452 C.2       8 UNK         0.5000 
     31 O          -3.6850  -18.8021  -46.4134 O.2       8 UNK        -0.5000 
     32 CA         -2.9299  -16.5353  -46.4701 C.3       8 UNK         0.1400 
     33 CB         -4.1559  -15.6220  -46.6056 C.3       8 UNK        -0.1800 
     34 N          -1.8495  -15.7957  -45.8211 N.am      8 UNK        -0.5000 
     35 C          -0.6128  -16.2640  -45.6113 C.2       7 UNK         0.5000 
     36 O          -0.2432  -17.3859  -45.9605 O.2       7 UNK        -0.5000 
     37 CA          0.3597  -15.3493  -44.8437 C.3       7 UNK         0.1400 
     38 CB         -0.0393  -13.8578  -44.8612 C.3       7 UNK        -0.1800 
     39 N           0.5828  -15.7914  -43.4661 N.am      7 UNK        -0.5000 
     40 C          -0.3363  -16.0419  -42.5213 C.2       6 UNK         0.5000 
     41 O          -1.5522  -15.9885  -42.7103 O.2       6 UNK        -0.5000 
     42 CA          0.1931  -16.3928  -41.1212 C.3       6 UNK         0.1400 
     43 CB          0.6430  -17.8592  -41.0582 C.3       6 UNK        -0.1800 
     44 N           1.3240  -15.5380  -40.7637 N.am      6 UNK        -0.5000 
     45 C           1.2875  -14.5361  -39.8756 C.2       5 UNK         0.5000 
     46 O           0.2961  -14.2503  -39.2029 O.2       5 UNK        -0.5000 
     47 CA          2.5777  -13.7055  -39.7069 C.3       5 UNK         0.1400 
     48 CB          3.4222  -14.2562  -38.5476 C.3       5 UNK        -0.1800 
     49 N           3.4015  -13.6657  -40.9171 N.am      5 UNK        -0.5000 
     50 C           3.0534  -13.0505  -42.0553 C.2       4 UNK         0.5000 
     51 O           2.0432  -12.3562  -42.1689 O.2       4 UNK        -0.5000 
     52 CA          3.9692  -13.2499  -43.2810 C.3       4 UNK         0.1400 
     53 CB          4.8432  -12.0048  -43.4957 C.3       4 UNK        -0.1800 
     54 N           4.8380  -14.4340  -43.2536 N.am      4 UNK        -0.5000 
     55 C           4.4507  -15.7093  -43.1114 C.2       3 UNK         0.5000 
     56 O           3.2961  -16.0459  -42.8435 O.2       3 UNK        -0.5000 
     57 CA          5.5353  -16.7705  -43.3602 C.3       3 UNK         0.1400 
     58 CB          5.0475  -18.1969  -43.0470 C.3       3 UNK        -0.1800 
     59 N           5.9088  -16.6958  -44.7686 N.am      3 UNK        -0.5000 
     60 C           7.0162  -16.1214  -45.2601 C.2       2 UNK         0.5000 
     61 O           7.9308  -15.6910  -44.5573 O.2       2 UNK        -0.5000 
     62 CA          7.0918  -15.9527  -46.7941 C.3       2 UNK         0.1400 
     63 CB          7.7826  -17.1640  -47.4380 C.3       2 UNK        -0.1800 
     64 N           5.7682  -15.7783  -47.3968 N.am      2 UNK        -0.5000 
     65 C           4.9733  -14.7189  -47.1866 C.2       1 UNK         0.5000 
     66 O           5.3696  -13.6754  -46.6675 O.2       1 UNK        -0.5000 
     67 C          -1.9492  -21.5226  -48.2398 C.2       11 UNK         0.5000 
     68 O          -1.7805  -22.4892  -48.9813 O.2       11 UNK        -0.5000 
     69 N          -3.0391  -21.3522  -47.4763 N.am      12 UNK        -0.5000 
     70 CA         -4.1540  -22.2946  -47.3883 C.3       12 UNK         0.1400 
     71 CB         -5.2589  -21.7188  -46.4916 C.3       12 UNK        -0.1800 
     72 C          -3.7265  -23.6900  -46.9066 C.2       12 UNK         0.5000 
     73 O          -4.1719  -24.6819  -47.4812 O.2       12 UNK        -0.5000 
     74 N          -2.8466  -23.7445  -45.8983 N.am      13 UNK        -0.5000 
     75 CA         -2.2640  -24.9863  -45.3928 C.3       13 UNK         0.1400 
     76 CB         -1.5188  -24.7077  -44.0782 C.3       13 UNK        -0.1800 
     77 C          -1.3417  -25.6697  -46.4210 C.2       13 UNK         0.5000 
     78 O          -1.4724  -26.8733  -46.6464 O.2       13 UNK        -0.5000 
     79 N          -0.4371  -24.8917  -47.0308 N.am      14 UNK        -0.5000 
     80 CA          0.5607  -25.3657  -47.9904 C.3       14 UNK         0.1400 
     81 CB          1.5989  -24.2591  -48.2338 C.3       14 UNK        -0.1800 
     82 C          -0.0431  -25.8374  -49.3247 C.2       14 UNK         0.5000 
     83 O           0.3530  -26.8875  -49.8316 O.2       14 UNK        -0.5000 
     84 N          -0.9843  -25.0565  -49.8687 N.am      15 UNK        -0.5000 
     85 CA         -1.6117  -25.2869  -51.1720 C.3       15 UNK         0.1400 
     86 CB         -1.7679  -23.9335  -51.8813 C.3       15 UNK        -0.1800 
     87 C          -2.9544  -26.0403  -51.0701 C.2       15 UNK         0.5000 
     88 O          -3.6665  -26.1388  -52.0717 O.2       15 UNK        -0.5000 
     89 N          -3.2766  -26.5541  -49.8719 N.am      16 UNK        -0.5000 
     90 CA         -4.4409  -27.3829  -49.5316 C.3       16 UNK         0.1400 
     91 CB         -4.2888  -28.7867  -50.1521 C.3       16 UNK        -0.1800 
     92 C          -5.7913  -26.7207  -49.8797 C.2       16 UNK         0.5000 
     93 O          -6.7080  -27.3917  -50.3586 O.2       16 UNK        -0.5000 
     94 N          -5.8662  -25.4016  -49.6569 N.am      17 UNK        -0.5000 
     95 CA         -6.9558  -24.4556  -49.9282 C.3       17 UNK         0.1400 
     96 CB         -8.1984  -24.7885  -49.0833 C.3       17 UNK        -0.1800 
     97 C          -7.3286  -24.2868  -51.4164 C.2       17 UNK         0.5000 
     98 O          -7.5261  -23.1567  -51.8613 O.2       17 UNK        -0.5000 
     99 N          -7.4146  -25.3937  -52.1619 N.am      18 UNK        -0.5000 
    100 CA        -7.8540  -25.4677  -53.5555 C.3       18 UNK         0.1400 
    101 CB        -7.9385  -26.9439  -53.9719 C.3       18 UNK        -0.1800 
    102 C         -6.9714  -24.6810  -54.5409 C.2       18 UNK         0.5000 
    103 O         -7.4997  -24.1148  -55.4987 O.2       18 UNK        -0.5000 
    104 N         -5.6569  -24.6503  -54.2869 N.am      19 UNK        -0.5000 
    105 CA        -4.6716  -23.9421  -55.1066 C.3       19 UNK         0.1400 
    106 CB        -3.5315  -24.9137  -55.4582 C.3       19 UNK        -0.1800 
    107 C         -4.1492  -22.6618  -54.4247 C.2       19 UNK         0.5000 
    108 O         -3.2225  -22.0388  -54.9452 O.2       19 UNK        -0.5000 
    109 N         -4.7383  -22.2683  -53.2855 N.am      20 UNK        -0.5000 
    110 CA        -4.3477  -21.1009  -52.4893 C.3       20 UNK         0.1400 
    111 CB        -4.7710  -21.3326  -51.0278 C.3       20 UNK        -0.1800 
    112 C         -4.9155  -19.7874  -53.0699 C.2       20 UNK         0.5000 
    113 O         -5.6159  -19.0502  -52.3740 O.2       20 UNK        -0.5000 
    114 N         -4.6161  -19.5228  -54.3464 N.am      21 UNK        -0.5000 
    115 CA        -5.0349  -18.3315  -55.0796 C.3       21 UNK         0.1400 
    116 CB        -4.8030  -18.5603  -56.5817 C.3       21 UNK        -0.1800 
    117 C         -4.2880  -17.0799  -54.5834 C.2       21 UNK         0.5000 
    118 O         -3.0667  -17.0010  -54.7307 O.2       21 UNK        -0.5000 
    119 N         -5.0353  -16.1354  -54.0040 N.am      22 UNK        -0.5000 
    120 CA        -4.5406  -14.8234  -53.5676 C.3       22 UNK         0.1400 
    121 C         -4.3245  -13.8643  -54.7716 C.2       22 UNK         0.5000 
    122 N         -3.2463  -13.0927  -54.7787 N.am      22 UNK        -0.7600 
    123 O         -5.1430  -13.7943  -55.6863 O.2       22 UNK        -0.5000 
    124 C124       -5.4942  -14.2197  -52.5035 C.3       23 UNK        -0.0398 
    125 S125       -4.7246  -12.9115  -51.4869 S.3       23 UNK        -0.2404 
    126 C126       -4.2239  -13.8293  -49.9948 C.3       23 UNK        -0.0205 
    127 H127        3.3983  -19.2239  -48.2094 H         1 UNK         0.0600 
    128 H128        2.0031  -18.3642  -48.8786 H         1 UNK         0.0600 
    129 H129        1.8963  -19.1273  -47.2904 H         1 UNK         0.0600 
    130 H130        2.7920  -16.2389  -48.9900 H         1 UNK         0.3000 
    131 H131        2.9736  -14.7122  -46.5861 H         1 UNK         0.0600 
    132 H132        3.2998  -12.7556  -48.1121 H         1 UNK         0.0800 
    133 H133        3.4011  -13.8381  -49.4775 H         1 UNK         0.0800 
    134 H134        1.5834  -14.9011  -50.5990 H         1 UNK         0.0800 
    135 H135        0.8816  -13.3294  -50.9073 H         1 UNK         0.0800 
    136 H136       -1.6214  -13.0449  -49.8552 H         1 UNK         0.1150 
    137 H137       -4.0690  -16.4614  -50.6954 H         1 UNK         0.1150 
    138 H138        0.1978  -16.7498  -50.9979 H         1 UNK         0.1150 
    139 H139       -3.0949  -18.5889  -51.0627 H         1 UNK         0.0800 
    140 H140       -2.0615  -18.2434  -52.4312 H         1 UNK         0.0800 
    141 H141       -2.1845  -18.8564  -48.7097 H         1 UNK         0.0800 
    142 H142       -0.5249  -18.3569  -48.5433 H         1 UNK         0.0800 
    143 H143        0.0762  -20.9031  -48.5274 H         1 UNK         0.0600 
    144 H144       -0.6416  -19.2252  -46.3927 H         1 UNK         0.3000 
    145 H145        0.0499  -21.4841  -43.7256 H         1 UNK         0.0600 
    146 H146        1.6217  -19.7748  -43.0865 H         1 UNK         0.0600 
    147 H147        2.2352  -20.4607  -44.5734 H         1 UNK         0.0600 
    148 H148        1.4352  -18.8971  -44.6050 H         1 UNK         0.0600 
    149 H149       -0.8691  -18.7345  -43.9920 H         1 UNK         0.3000 
    150 H150       -4.3457  -19.5142  -43.9063 H         1 UNK         0.0600 
    151 H151       -3.7268  -19.5810  -41.5129 H         1 UNK         0.0600 
    152 H152       -4.2732  -17.9703  -41.9540 H         1 UNK         0.0600 
    153 H153       -2.5541  -18.2929  -41.7418 H         1 UNK         0.0600 
    154 H154       -2.7905  -17.0700  -43.9274 H         1 UNK         0.3000 
    155 H155       -2.5891  -16.7960  -47.4739 H         1 UNK         0.0600 
    156 H156       -4.5479  -15.3271  -45.6314 H         1 UNK         0.0600 
    157 H157       -4.9587  -16.1251  -47.1463 H         1 UNK         0.0600 
    158 H158       -3.9117  -14.7147  -47.1575 H         1 UNK         0.0600 
    159 H159       -2.0788  -14.8791  -45.4661 H         1 UNK         0.3000 
    160 H160        1.3180  -15.4477  -45.3483 H         1 UNK         0.0600 
    161 H161       -0.9311  -13.6618  -44.2651 H         1 UNK         0.0600 
    162 H162       -0.2328  -13.5088  -45.8758 H         1 UNK         0.0600 
    163 H163        0.7626  -13.2387  -44.4608 H         1 UNK         0.0600 
    164 H164        1.5623  -15.9263  -43.2217 H         1 UNK         0.3000 
    165 H165       -0.6300  -16.2614  -40.4158 H         1 UNK         0.0600 
    166 H166        0.8753  -18.1511  -40.0341 H         1 UNK         0.0600 
    167 H167       -0.1334  -18.5335  -41.4204 H         1 UNK         0.0600 
    168 H168        1.5380  -18.0235  -41.6580 H         1 UNK         0.0600 
    169 H169        2.1714  -15.6727  -41.3059 H         1 UNK         0.3000 
    170 H170        2.2834  -12.6830  -39.4609 H         1 UNK         0.0600 
    171 H171        2.8473  -14.2756  -37.6207 H         1 UNK         0.0600 
    172 H172        3.7615  -15.2739  -38.7447 H         1 UNK         0.0600 
    173 H173        4.3013  -13.6364  -38.3702 H         1 UNK         0.0600 
    174 H174        4.2530  -14.2072  -40.9081 H         1 UNK         0.3000 
    175 H175        3.3156  -13.3584  -44.1488 H         1 UNK         0.0600 
    176 H176        5.5470  -11.8630  -42.6747 H         1 UNK         0.0600 
    177 H177        5.4158  -12.0766  -44.4203 H         1 UNK         0.0600 
    178 H178        4.2328  -11.1033  -43.5650 H         1 UNK         0.0600 
    179 H179        5.8080  -14.2655  -43.4805 H         1 UNK         0.3000 
    180 H180        6.3859  -16.5476  -42.7132 H         1 UNK         0.0600 
    181 H181        4.1914  -18.4765  -43.6628 H         1 UNK         0.0600 
    182 H182        4.7445  -18.2863  -42.0031 H         1 UNK         0.0600 
    183 H183        5.8362  -18.9285  -43.2219 H         1 UNK         0.0600 
    184 H184        5.1699  -16.9683  -45.4117 H         1 UNK         0.3000 
    185 H185        7.6875  -15.0622  -47.0056 H         1 UNK         0.0600 
    186 H186        7.8925  -17.0295  -48.5142 H         1 UNK         0.0600 
    187 H187        8.7821  -17.3075  -47.0252 H         1 UNK         0.0600 
    188 H188        7.2222  -18.0845  -47.2691 H         1 UNK         0.0600 
    189 H189        5.3606  -16.5908  -47.8354 H         1 UNK         0.3000 
    190 H190       -3.1304  -20.4988  -46.9304 H         1 UNK         0.3000 
    191 H191       -4.5673  -22.4113  -48.3891 H         1 UNK         0.0600 
    192 H192       -4.9016  -21.5367  -45.4779 H         1 UNK         0.0600 
    193 H193       -6.1051  -22.4038  -46.4251 H         1 UNK         0.0600 
    194 H194       -5.6353  -20.7757  -46.8882 H         1 UNK         0.0600 
    195 H195       -2.5494  -22.8823  -45.4571 H         1 UNK         0.3000 
    196 H196       -3.0828  -25.6748  -45.1734 H         1 UNK         0.0600 
    197 H197       -0.6964  -24.0062  -44.2183 H         1 UNK         0.0600 
    198 H198       -1.1003  -25.6262  -43.6649 H         1 UNK         0.0600 
    199 H199       -2.1891  -24.2883  -43.3277 H         1 UNK         0.0600 
    200 H200       -0.3765  -23.9107  -46.7669 H         1 UNK         0.3000 
    201 H201        1.0764  -26.2174  -47.5419 H         1 UNK         0.0600 
    202 H202        2.1070  -23.9859  -47.3088 H         1 UNK         0.0600 
    203 H203        1.1375  -23.3576  -48.6394 H         1 UNK         0.0600 
    204 H204        2.3629  -24.5855  -48.9404 H         1 UNK         0.0600 
    205 H205       -1.2515  -24.1944  -49.3949 H         1 UNK         0.3000 
    206 H206       -0.9536  -25.9020  -51.7888 H         1 UNK         0.0600 
    207 H207       -0.8317  -23.3751  -51.8837 H         1 UNK         0.0600 
    208 H208       -2.0616  -24.0670  -52.9202 H         1 UNK         0.0600 
    209 H209       -2.5223  -23.3144  -51.4008 H         1 UNK         0.0600 
    210 H210       -2.6406  -26.3690  -49.1082 H         1 UNK         0.3000 
    211 H211       -4.4291  -27.4956  -48.4466 H         1 UNK         0.0600 
    212 H212       -4.3328  -28.7528  -51.2413 H         1 UNK         0.0600 
    213 H213       -5.0810  -29.4547  -49.8120 H         1 UNK         0.0600 
    214 H214       -3.3394  -29.2415  -49.8690 H         1 UNK         0.0600 
    215 H215       -5.0623  -24.9996  -49.1838 H         1 UNK         0.3000 
    216 H216       -6.5875  -23.4858  -49.5909 H         1 UNK         0.0600 
    217 H217       -8.9733  -24.0326  -49.2163 H         1 UNK         0.0600 
    218 H218       -7.9540  -24.8202  -48.0214 H         1 UNK         0.0600 
    219 H219       -8.6319  -25.7509  -49.3568 H         1 UNK         0.0600 
    220 H220       -7.2206  -26.2762  -51.6932 H         1 UNK         0.3000 
    221 H221       -8.8580  -25.0414  -53.6042 H         1 UNK         0.0600 
    222 H222       -6.9677  -27.4365  -53.9006 H         1 UNK         0.0600 
    223 H223       -8.6387  -27.4920  -53.3412 H         1 UNK         0.0600 
    224 H224       -8.2836  -27.0421  -55.0020 H         1 UNK         0.0600 
    225 H225       -5.2983  -25.1475  -53.4798 H         1 UNK         0.3000 
    226 H226       -5.1194  -23.6176  -56.0478 H         1 UNK         0.0600 
    227 H227       -3.9050  -25.7540  -56.0436 H         1 UNK         0.0600 
    228 H228       -2.7602  -24.4250  -56.0546 H         1 UNK         0.0600 
    229 H229       -3.0531  -25.3210  -54.5687 H         1 UNK         0.0600 
    230 H230       -5.5515  -22.7769  -52.9635 H         1 UNK         0.3000 
    231 H231       -3.2587  -21.0175  -52.5032 H         1 UNK         0.0600 
    232 H232       -4.4244  -22.2993  -50.6670 H         1 UNK         0.0600 
    233 H233       -5.8542  -21.3029  -50.9098 H         1 UNK         0.0600 
    234 H234       -4.3504  -20.5701  -50.3717 H         1 UNK         0.0600 
    235 H235       -4.0148  -20.1775  -54.8351 H         1 UNK         0.3000 
    236 H236       -6.1071  -18.1933  -54.9244 H         1 UNK         0.0600 
    237 H237       -5.1083  -17.6874  -57.1602 H         1 UNK         0.0600 
    238 H238       -3.7522  -18.7509  -56.8038 H         1 UNK         0.0600 
    239 H239       -5.3812  -19.4102  -56.9448 H         1 UNK         0.0600 
    240 H240       -6.0324  -16.2772  -53.9365 H         1 UNK         0.3000 
    241 H241       -3.5691  -14.9885  -53.0996 H         1 UNK         0.0600 
    242 H242       -3.1004  -12.4580  -55.5483 H         1 UNK         0.3800 
    243 H243       -2.5770  -13.1200  -54.0249 H         1 UNK         0.3800 
    244 H244       -6.3914  -13.8135  -52.9738 H         1 UNK         0.0800 
    245 H245       -5.8488  -15.0025  -51.8317 H         1 UNK         0.0800 
    246 H246       -5.0465  -14.4532  -49.6419 H         1 UNK         0.0800 
    247 H247       -4.0247  -13.1134  -49.1960 H         1 UNK         0.0800 
@<TRIPOS>BOND
     1    1    2 1    
     2    1  127 1    
     3    1  128 1    
     4    1  129 1    
     5    2    3 2    
     6    2    4 am   BACKBONE|DICT|INTERRES
     7    4    5 1    
     8    4  130 1    
     9    5    6 1    
    10    5   65 1    
    11    5  131 1    
    12    6    7 1    
    13    6  132 1    
    14    6  133 1    
    15    7    8 1    
    16    8    9 1    
    17    8  134 1    
    18    8  135 1    
    19    9   10 ar   
    20    9   14 ar   
    21   10   11 ar   
    22   10  136 1    
    23   11   12 ar   
    24   11  126 1    
    25   12   13 ar   
    26   12  137 1    
    27   13   14 ar   
    28   13   15 1    
    29   14  138 1    
    30   15   16 1    
    31   15  139 1    
    32   15  140 1    
    33   16   17 1    
    34   17   18 1    
    35   17  141 1    
    36   17  142 1    
    37   18   19 1    
    38   18   67 1    
    39   18  143 1    
    40   19   20 am   BACKBONE|DICT|INTERRES
    41   19  144 1    
    42   20   21 2    
    43   20   22 1    
    44   22   23 1    
    45   22   24 1    
    46   22  145 1    
    47   23  146 1    
    48   23  147 1    
    49   23  148 1    
    50   24   25 am   BACKBONE|DICT|INTERRES
    51   24  149 1    
    52   25   26 2    
    53   25   27 1    
    54   27   28 1    
    55   27   29 1    
    56   27  150 1    
    57   28  151 1    
    58   28  152 1    
    59   28  153 1    
    60   29   30 am   BACKBONE|DICT|INTERRES
    61   29  154 1    
    62   30   31 2    
    63   30   32 1    
    64   32   33 1    
    65   32   34 1    
    66   32  155 1    
    67   33  156 1    
    68   33  157 1    
    69   33  158 1    
    70   34   35 am   BACKBONE|DICT|INTERRES
    71   34  159 1    
    72   35   36 2    
    73   35   37 1    
    74   37   38 1    
    75   37   39 1    
    76   37  160 1    
    77   38  161 1    
    78   38  162 1    
    79   38  163 1    
    80   39   40 am   BACKBONE|DICT|INTERRES
    81   39  164 1    
    82   40   41 2    
    83   40   42 1    
    84   42   43 1    
    85   42   44 1    
    86   42  165 1    
    87   43  166 1    
    88   43  167 1    
    89   43  168 1    
    90   44   45 am   BACKBONE|DICT|INTERRES
    91   44  169 1    
    92   45   46 2    
    93   45   47 1    
    94   47   48 1    
    95   47   49 1    
    96   47  170 1    
    97   48  171 1    
    98   48  172 1    
    99   48  173 1    
   100   49   50 am   BACKBONE|DICT|INTERRES
   101   49  174 1    
   102   50   51 2    
   103   50   52 1    
   104   52   53 1    
   105   52   54 1    
   106   52  175 1    
   107   53  176 1    
   108   53  177 1    
   109   53  178 1    
   110   54   55 am   BACKBONE|DICT|INTERRES
   111   54  179 1    
   112   55   56 2    
   113   55   57 1    
   114   57   58 1    
   115   57   59 1    
   116   57  180 1    
   117   58  181 1    
   118   58  182 1    
   119   58  183 1    
   120   59   60 am   BACKBONE|DICT|INTERRES
   121   59  184 1    
   122   60   61 2    
   123   60   62 1    
   124   62   63 1    
   125   62   64 1    
   126   62  185 1    
   127   63  186 1    
   128   63  187 1    
   129   63  188 1    
   130   64   65 am   BACKBONE|DICT|INTERRES
   131   64  189 1    
   132   65   66 2    
   133   67   68 2    
   134   67   69 am   BACKBONE|DICT|INTERRES
   135   69   70 1    
   136   69  190 1    
   137   70   71 1    
   138   70   72 1    
   139   70  191 1    
   140   71  192 1    
   141   71  193 1    
   142   71  194 1    
   143   72   73 2    
   144   72   74 am   BACKBONE|DICT|INTERRES
   145   74   75 1    
   146   74  195 1    
   147   75   76 1    
   148   75   77 1    
   149   75  196 1    
   150   76  197 1    
   151   76  198 1    
   152   76  199 1    
   153   77   78 2    
   154   77   79 am   BACKBONE|DICT|INTERRES
   155   79   80 1    
   156   79  200 1    
   157   80   81 1    
   158   80   82 1    
   159   80  201 1    
   160   81  202 1    
   161   81  203 1    
   162   81  204 1    
   163   82   83 2    
   164   82   84 am   BACKBONE|DICT|INTERRES
   165   84   85 1    
   166   84  205 1    
   167   85   86 1    
   168   85   87 1    
   169   85  206 1    
   170   86  207 1    
   171   86  208 1    
   172   86  209 1    
   173   87   88 2    
   174   87   89 am   BACKBONE|DICT|INTERRES
   175   89   90 1    
   176   89  210 1    
   177   90   91 1    
   178   90   92 1    
   179   90  211 1    
   180   91  212 1    
   181   91  213 1    
   182   91  214 1    
   183   92   93 2    
   184   92   94 am   BACKBONE|DICT|INTERRES
   185   94   95 1    
   186   94  215 1    
   187   95   96 1    
   188   95   97 1    
   189   95  216 1    
   190   96  217 1    
   191   96  218 1    
   192   96  219 1    
   193   97   98 2    
   194   97   99 am   BACKBONE|DICT|INTERRES
   195   99  100 1    
   196   99  220 1    
   197  100  101 1    
   198  100  102 1    
   199  100  221 1    
   200  101  222 1    
   201  101  223 1    
   202  101  224 1    
   203  102  103 2    
   204  102  104 am   BACKBONE|DICT|INTERRES
   205  104  105 1    
   206  104  225 1    
   207  105  106 1    
   208  105  107 1    
   209  105  226 1    
   210  106  227 1    
   211  106  228 1    
   212  106  229 1    
   213  107  108 2    
   214  107  109 am   BACKBONE|DICT|INTERRES
   215  109  110 1    
   216  109  230 1    
   217  110  111 1    
   218  110  112 1    
   219  110  231 1    
   220  111  232 1    
   221  111  233 1    
   222  111  234 1    
   223  112  113 2    
   224  112  114 am   BACKBONE|DICT|INTERRES
   225  114  115 1    
   226  114  235 1    
   227  115  116 1    
   228  115  117 1    
   229  115  236 1    
   230  116  237 1    
   231  116  238 1    
   232  116  239 1    
   233  117  118 2    
   234  117  119 am   BACKBONE|DICT|INTERRES
   235  119  120 1    
   236  119  240 1    
   237  120  121 1    
   238  120  124 1    
   239  120  241 1    
   240  121  122 am   BACKBONE|DICT|INTERRES
   241  121  123 2    
   242  122  242 1    
   243  122  243 1    
   244  124  125 1    
   245  124  244 1    
   246  124  245 1    
   247  125  126 1    
   248  126  246 1    
   249  126  247 1    
@<TRIPOS>SUBSTRUCTURE
     1 UNK         1 GROUP             0       ****    0 ROOT    
