@<TRIPOS>MOLECULE
3R540
247   249    1
SMALL
USER_CHARGES


@<TRIPOS>ATOM
      1 CA         -8.5185  -16.6068  -48.6558 C.3       0 UNK        -0.1800 
      2 C          -7.0267  -16.6010  -48.3604 C.2       0 UNK         0.5000 
      3 O          -6.2316  -17.0626  -49.1812 O.2       0 UNK        -0.5000 
      4 N          -6.6442  -16.0802  -47.1893 N.am      1 UNK        -0.5000 
      5 CA         -5.2699  -16.0421  -46.6810 C.3       1 UNK         0.1400 
      6 C6         -5.2195  -16.0520  -45.1307 C.3       23 UNK        -0.0398 
      7 S7         -6.0754  -17.4614  -44.3442 S.3       23 UNK        -0.2404 
      8 C8         -5.2092  -18.9146  -45.0273 C.3       23 UNK        -0.0205 
      9 C9         -3.6924  -18.8149  -44.9312 C.ar      23 UNK        -0.0193 
     10 C10        -2.9189  -18.7468  -46.0934 C.ar      23 UNK        -0.1150 
     11 C11        -1.5288  -18.6412  -46.0181 C.ar      23 UNK        -0.0193 
     12 C12        -0.9098  -18.6069  -44.7670 C.ar      23 UNK        -0.1150 
     13 C13        -1.6699  -18.6767  -43.5955 C.ar      23 UNK        -0.0193 
     14 C14        -3.0608  -18.7881  -43.6844 C.ar      23 UNK        -0.1150 
     15 C15        -0.9906  -18.6107  -42.2352 C.3       23 UNK        -0.0205 
     16 S16         0.2941  -19.8833  -42.0329 S.3       23 UNK        -0.2404 
     17 C17        -0.6821  -21.4255  -42.0597 C.3       23 UNK        -0.0398 
     18 CA         -0.7870  -22.0824  -43.4606 C.3       11 UNK         0.1400 
     19 N           0.5185  -22.2173  -44.1196 N.am      11 UNK        -0.5000 
     20 C           0.7202  -22.6365  -45.3773 C.2       10 UNK         0.5000 
     21 O          -0.1888  -22.9918  -46.1269 O.2       10 UNK        -0.5000 
     22 CA          2.1788  -22.7496  -45.8584 C.3       10 UNK         0.1400 
     23 CB          2.5762  -21.5374  -46.7112 C.3       10 UNK        -0.1800 
     24 N           3.1338  -22.9029  -44.7600 N.am      10 UNK        -0.5000 
     25 C           3.2505  -24.0051  -44.0046 C.2       9 UNK         0.5000 
     26 O           2.5483  -25.0061  -44.1485 O.2       9 UNK        -0.5000 
     27 CA          4.3135  -23.9773  -42.8902 C.3       9 UNK         0.1400 
     28 CB          5.6370  -24.5694  -43.3972 C.3       9 UNK        -0.1800 
     29 N           4.5604  -22.6304  -42.3728 N.am      9 UNK        -0.5000 
     30 C           3.6912  -21.9294  -41.6307 C.2       8 UNK         0.5000 
     31 O           2.6020  -22.3702  -41.2652 O.2       8 UNK        -0.5000 
     32 CA          4.1021  -20.4921  -41.2541 C.3       8 UNK         0.1400 
     33 CB          4.7723  -20.4693  -39.8722 C.3       8 UNK        -0.1800 
     34 N           5.0028  -19.8806  -42.2369 N.am      8 UNK        -0.5000 
     35 C           4.6295  -19.4996  -43.4651 C.2       7 UNK         0.5000 
     36 O           3.4810  -19.6032  -43.8987 O.2       7 UNK        -0.5000 
     37 CA          5.7359  -18.9761  -44.3859 C.3       7 UNK         0.1400 
     38 CB          6.2672  -20.1218  -45.2712 C.3       7 UNK        -0.1800 
     39 N           5.1968  -17.8897  -45.1988 N.am      7 UNK        -0.5000 
     40 C           5.9191  -17.0600  -45.9607 C.2       6 UNK         0.5000 
     41 O           7.1408  -17.1419  -46.0975 O.2       6 UNK        -0.5000 
     42 CA          5.1569  -15.9267  -46.6746 C.3       6 UNK         0.1400 
     43 CB          4.4514  -16.4613  -47.9309 C.3       6 UNK        -0.1800 
     44 N           4.1901  -15.2171  -45.8288 N.am      6 UNK        -0.5000 
     45 C           4.4833  -14.5836  -44.6800 C.2       5 UNK         0.5000 
     46 O           5.6109  -14.5674  -44.1843 O.2       5 UNK        -0.5000 
     47 CA          3.3582  -13.8034  -43.9642 C.3       5 UNK         0.1400 
     48 CB          3.6638  -12.2964  -43.9597 C.3       5 UNK        -0.1800 
     49 N           2.0293  -13.9991  -44.5415 N.am      5 UNK        -0.5000 
     50 C           1.2758  -15.0958  -44.3975 C.2       4 UNK         0.5000 
     51 O           1.6104  -16.0672  -43.7206 O.2       4 UNK        -0.5000 
     52 CA         -0.0707  -15.1177  -45.1497 C.3       4 UNK         0.1400 
     53 CB         -1.2261  -14.8154  -44.1853 C.3       4 UNK        -0.1800 
     54 N          -0.1618  -14.2139  -46.3028 N.am      4 UNK        -0.5000 
     55 C           0.6241  -14.2643  -47.3885 C.2       3 UNK         0.5000 
     56 O           1.5925  -15.0195  -47.4850 O.2       3 UNK        -0.5000 
     57 CA          0.2591  -13.3073  -48.5468 C.3       3 UNK         0.1400 
     58 CB          1.0224  -13.6319  -49.8483 C.3       3 UNK        -0.1800 
     59 N          -1.1866  -13.2282  -48.8064 N.am      3 UNK        -0.5000 
     60 C          -1.9980  -14.2553  -49.0983 C.2       2 UNK         0.5000 
     61 O          -1.6228  -15.4251  -49.1782 O.2       2 UNK        -0.5000 
     62 CA         -3.4818  -13.9229  -49.3497 C.3       2 UNK         0.1400 
     63 CB         -3.8155  -14.0088  -50.8475 C.3       2 UNK        -0.1800 
     64 N          -4.3492  -14.8411  -48.6135 N.am      2 UNK        -0.5000 
     65 C          -4.4640  -14.8687  -47.2809 C.2       1 UNK         0.5000 
     66 O          -3.9663  -14.0137  -46.5455 O.2       1 UNK        -0.5000 
     67 C          -1.5545  -23.4195  -43.3534 C.2       11 UNK         0.5000 
     68 O          -2.7813  -23.4052  -43.2554 O.2       11 UNK        -0.5000 
     69 N          -0.8286  -24.5476  -43.3832 N.am      12 UNK        -0.5000 
     70 CA         -1.3925  -25.8963  -43.4195 C.3       12 UNK         0.1400 
     71 CB         -0.3002  -26.9043  -43.0315 C.3       12 UNK        -0.1800 
     72 C          -1.9977  -26.2571  -44.7912 C.2       12 UNK         0.5000 
     73 O          -2.9041  -27.0894  -44.8444 O.2       12 UNK        -0.5000 
     74 N          -1.4935  -25.6376  -45.8678 N.am      13 UNK        -0.5000 
     75 CA         -2.0049  -25.7946  -47.2279 C.3       13 UNK         0.1400 
     76 CB         -0.8489  -25.6679  -48.2334 C.3       13 UNK        -0.1800 
     77 C          -3.1075  -24.7619  -47.5098 C.2       13 UNK         0.5000 
     78 O          -4.1864  -25.1429  -47.9663 O.2       13 UNK        -0.5000 
     79 N          -2.8225  -23.4887  -47.1934 N.am      14 UNK        -0.5000 
     80 CA         -3.7054  -22.3260  -47.3218 C.3       14 UNK         0.1400 
     81 CB         -4.8399  -22.4094  -46.2756 C.3       14 UNK        -0.1800 
     82 C          -4.2011  -22.1009  -48.7711 C.2       14 UNK         0.5000 
     83 O          -3.4408  -22.3384  -49.7135 O.2       14 UNK        -0.5000 
     84 N          -5.4510  -21.6268  -48.9148 N.am      15 UNK        -0.5000 
     85 CA         -6.2132  -21.4318  -50.1593 C.3       15 UNK         0.1400 
     86 CB         -6.5342  -22.7958  -50.8039 C.3       15 UNK        -0.1800 
     87 C          -5.5739  -20.4543  -51.1686 C.2       15 UNK         0.5000 
     88 O          -5.8625  -20.5323  -52.3642 O.2       15 UNK        -0.5000 
     89 N          -4.7223  -19.5480  -50.6755 N.am      16 UNK        -0.5000 
     90 CA         -3.8416  -18.6975  -51.4722 C.3       16 UNK         0.1400 
     91 CB         -2.9413  -17.8978  -50.5298 C.3       16 UNK        -0.1800 
     92 C          -4.5591  -17.7637  -52.4576 C.2       16 UNK         0.5000 
     93 O          -4.0883  -17.6007  -53.5820 O.2       16 UNK        -0.5000 
     94 N          -5.6937  -17.1907  -52.0386 N.am      17 UNK        -0.5000 
     95 CA         -6.5177  -16.3162  -52.8756 C.3       17 UNK         0.1400 
     96 CB         -7.5394  -15.5869  -51.9930 C.3       17 UNK        -0.1800 
     97 C          -7.2357  -17.0625  -54.0180 C.2       17 UNK         0.5000 
     98 O          -7.5232  -16.4514  -55.0477 O.2       17 UNK        -0.5000 
     99 N          -7.5177  -18.3571  -53.8185 N.am      18 UNK        -0.5000 
    100 CA        -8.1916  -19.2155  -54.7911 C.3       18 UNK         0.1400 
    101 CB        -9.0099  -20.2825  -54.0458 C.3       18 UNK        -0.1800 
    102 C         -7.1880  -19.8700  -55.7535 C.2       18 UNK         0.5000 
    103 O         -7.4139  -19.8708  -56.9640 O.2       18 UNK        -0.5000 
    104 N         -6.0979  -20.4139  -55.1978 N.am      19 UNK        -0.5000 
    105 CA        -5.0559  -21.1324  -55.9332 C.3       19 UNK         0.1400 
    106 CB        -4.3589  -22.0975  -54.9622 C.3       19 UNK        -0.1800 
    107 C         -4.0303  -20.2088  -56.6211 C.2       19 UNK         0.5000 
    108 O         -3.2630  -20.6879  -57.4561 O.2       19 UNK        -0.5000 
    109 N         -4.0200  -18.9203  -56.2477 N.am      20 UNK        -0.5000 
    110 CA        -3.1110  -17.8477  -56.6805 C.3       20 UNK         0.1400 
    111 CB        -3.1285  -17.6635  -58.2122 C.3       20 UNK        -0.1800 
    112 C         -1.6781  -17.9659  -56.1136 C.2       20 UNK         0.5000 
    113 O         -0.8127  -17.1660  -56.4732 O.2       20 UNK        -0.5000 
    114 N         -1.4595  -18.9271  -55.2127 N.am      21 UNK        -0.5000 
    115 CA        -0.2461  -19.1641  -54.4443 C.3       21 UNK         0.1400 
    116 CB         0.8160  -19.8631  -55.3106 C.3       21 UNK        -0.1800 
    117 C         -0.6502  -20.0348  -53.2488 C.2       21 UNK         0.5000 
    118 O         -1.5278  -20.8872  -53.3998 O.2       21 UNK        -0.5000 
    119 N         -0.0372  -19.7956  -52.0854 N.am      22 UNK        -0.5000 
    120 CA        -0.3225  -20.5241  -50.8401 C.3       22 UNK         0.1400 
    121 C          0.1106  -22.0159  -50.9097 C.2       22 UNK         0.5000 
    122 N         -0.7714  -22.9468  -50.5732 N.am      22 UNK        -0.7600 
    123 O          1.2505  -22.3287  -51.2465 O.2       22 UNK        -0.5000 
    124 C124        0.3027  -19.7973  -49.6216 C.3       23 UNK        -0.0398 
    125 S125       -0.5816  -20.1902  -48.0774 S.3       23 UNK        -0.2404 
    126 C126       -0.7047  -18.5579  -47.2910 C.3       23 UNK        -0.0205 
    127 H127       -9.1046  -16.6269  -47.7368 H         1 UNK         0.0600 
    128 H128       -8.7850  -17.4844  -49.2448 H         1 UNK         0.0600 
    129 H129       -8.7944  -15.7157  -49.2188 H         1 UNK         0.0600 
    130 H130       -7.3443  -15.6990  -46.5690 H         1 UNK         0.3000 
    131 H131       -4.7651  -16.9414  -47.0295 H         1 UNK         0.0600 
    132 H132       -4.1864  -16.0613  -44.7827 H         1 UNK         0.0800 
    133 H133       -5.6605  -15.1364  -44.7327 H         1 UNK         0.0800 
    134 H134       -5.5401  -19.8014  -44.4853 H         1 UNK         0.0800 
    135 H135       -5.5246  -19.0531  -46.0623 H         1 UNK         0.0800 
    136 H136       -3.3915  -18.7806  -47.0645 H         1 UNK         0.1150 
    137 H137        0.1666  -18.5241  -44.6998 H         1 UNK         0.1150 
    138 H138       -3.6580  -18.8382  -42.7848 H         1 UNK         0.1150 
    139 H139       -1.7168  -18.7009  -41.4261 H         1 UNK         0.0800 
    140 H140       -0.5260  -17.6299  -42.1262 H         1 UNK         0.0800 
    141 H141       -1.6767  -21.2210  -41.6594 H         1 UNK         0.0800 
    142 H142       -0.2097  -22.1134  -41.3560 H         1 UNK         0.0800 
    143 H143       -1.3911  -21.4336  -44.0971 H         1 UNK         0.0600 
    144 H144        1.3185  -21.9398  -43.5680 H         1 UNK         0.3000 
    145 H145        2.2466  -23.6391  -46.4884 H         1 UNK         0.0600 
    146 H146        1.9786  -21.5017  -47.6210 H         1 UNK         0.0600 
    147 H147        3.6197  -21.5922  -47.0197 H         1 UNK         0.0600 
    148 H148        2.4260  -20.5974  -46.1790 H         1 UNK         0.0600 
    149 H149        3.7110  -22.1024  -44.5476 H         1 UNK         0.3000 
    150 H150        3.9506  -24.6004  -42.0699 H         1 UNK         0.0600 
    151 H151        6.0587  -23.9773  -44.2105 H         1 UNK         0.0600 
    152 H152        5.4928  -25.5843  -43.7704 H         1 UNK         0.0600 
    153 H153        6.3778  -24.6207  -42.5990 H         1 UNK         0.0600 
    154 H154        5.4419  -22.2029  -42.6135 H         1 UNK         0.3000 
    155 H155        3.1933  -19.8898  -41.2008 H         1 UNK         0.0600 
    156 H156        5.6992  -21.0440  -39.8632 H         1 UNK         0.0600 
    157 H157        4.1144  -20.8951  -39.1132 H         1 UNK         0.0600 
    158 H158        5.0047  -19.4500  -39.5634 H         1 UNK         0.0600 
    159 H159        5.9659  -19.7658  -41.9547 H         1 UNK         0.3000 
    160 H160        6.5488  -18.5815  -43.7728 H         1 UNK         0.0600 
    161 H161        5.5007  -20.4865  -45.9550 H         1 UNK         0.0600 
    162 H162        6.5975  -20.9668  -44.6659 H         1 UNK         0.0600 
    163 H163        7.1222  -19.8066  -45.8685 H         1 UNK         0.0600 
    164 H164        4.1961  -17.7570  -45.1190 H         1 UNK         0.3000 
    165 H165        5.8988  -15.1930  -46.9963 H         1 UNK         0.0600 
    166 H166        4.0449  -15.6467  -48.5304 H         1 UNK         0.0600 
    167 H167        5.1445  -17.0143  -48.5662 H         1 UNK         0.0600 
    168 H168        3.6299  -17.1325  -47.6768 H         1 UNK         0.0600 
    169 H169        3.2420  -15.1643  -46.1854 H         1 UNK         0.3000 
    170 H170        3.3372  -14.1485  -42.9283 H         1 UNK         0.0600 
    171 H171        2.9092  -11.7418  -43.4015 H         1 UNK         0.0600 
    172 H172        3.7000  -11.8908  -44.9716 H         1 UNK         0.0600 
    173 H173        4.6265  -12.0912  -43.4896 H         1 UNK         0.0600 
    174 H174        1.6750  -13.2545  -45.1232 H         1 UNK         0.3000 
    175 H175       -0.2006  -16.1265  -45.5374 H         1 UNK         0.0600 
    176 H176       -1.2309  -15.5128  -43.3469 H         1 UNK         0.0600 
    177 H177       -1.1552  -13.8069  -43.7764 H         1 UNK         0.0600 
    178 H178       -2.1878  -14.9072  -44.6862 H         1 UNK         0.0600 
    179 H179       -0.9455  -13.5767  -46.3104 H         1 UNK         0.3000 
    180 H180        0.5697  -12.3126  -48.2246 H         1 UNK         0.0600 
    181 H181        0.7986  -14.6366  -50.2086 H         1 UNK         0.0600 
    182 H182        2.1008  -13.5731  -49.6952 H         1 UNK         0.0600 
    183 H183        0.7694  -12.9275  -50.6405 H         1 UNK         0.0600 
    184 H184       -1.5873  -12.3022  -48.7481 H         1 UNK         0.3000 
    185 H185       -3.6867  -12.9062  -49.0079 H         1 UNK         0.0600 
    186 H186       -3.2014  -13.3157  -51.4236 H         1 UNK         0.0600 
    187 H187       -3.6394  -15.0088  -51.2447 H         1 UNK         0.0600 
    188 H188       -4.8581  -13.7527  -51.0356 H         1 UNK         0.0600 
    189 H189       -4.7976  -15.5805  -49.1414 H         1 UNK         0.3000 
    190 H190        0.1766  -24.4753  -43.4664 H         1 UNK         0.3000 
    191 H191       -2.1912  -25.9575  -42.6772 H         1 UNK         0.0600 
    192 H192        0.1051  -26.6875  -42.0430 H         1 UNK         0.0600 
    193 H193       -0.6980  -27.9196  -43.0043 H         1 UNK         0.0600 
    194 H194        0.5266  -26.8950  -43.7429 H         1 UNK         0.0600 
    195 H195       -0.8015  -24.9101  -45.7342 H         1 UNK         0.3000 
    196 H196       -2.4359  -26.7912  -47.3457 H         1 UNK         0.0600 
    197 H197       -1.2084  -25.8023  -49.2541 H         1 UNK         0.0600 
    198 H198       -0.0878  -26.4273  -48.0539 H         1 UNK         0.0600 
    199 H199       -0.3650  -24.6923  -48.1812 H         1 UNK         0.0600 
    200 H200       -1.8837  -23.2819  -46.8593 H         1 UNK         0.3000 
    201 H201       -3.0936  -21.4594  -47.0735 H         1 UNK         0.0600 
    202 H202       -5.4410  -21.5021  -46.2561 H         1 UNK         0.0600 
    203 H203       -4.4332  -22.5377  -45.2726 H         1 UNK         0.0600 
    204 H204       -5.5113  -23.2467  -46.4694 H         1 UNK         0.0600 
    205 H205       -5.9760  -21.4567  -48.0689 H         1 UNK         0.3000 
    206 H206       -7.1599  -20.9757  -49.8666 H         1 UNK         0.0600 
    207 H207       -7.0053  -23.4697  -50.0884 H         1 UNK         0.0600 
    208 H208       -7.2215  -22.6848  -51.6435 H         1 UNK         0.0600 
    209 H209       -5.6341  -23.2832  -51.1804 H         1 UNK         0.0600 
    210 H210       -4.5880  -19.5243  -49.6768 H         1 UNK         0.3000 
    211 H211       -3.2143  -19.3635  -52.0629 H         1 UNK         0.0600 
    212 H212       -3.5209  -17.2164  -49.9086 H         1 UNK         0.0600 
    213 H213       -2.2144  -17.3066  -51.0881 H         1 UNK         0.0600 
    214 H214       -2.3865  -18.5534  -49.8636 H         1 UNK         0.0600 
    215 H215       -5.9936  -17.3407  -51.0789 H         1 UNK         0.3000 
    216 H216       -5.8646  -15.5666  -53.3278 H         1 UNK         0.0600 
    217 H217       -8.2443  -16.2861  -51.5431 H         1 UNK         0.0600 
    218 H218       -8.1175  -14.8693  -52.5765 H         1 UNK         0.0600 
    219 H219       -7.0498  -15.0343  -51.1912 H         1 UNK         0.0600 
    220 H220       -7.1871  -18.8008  -52.9720 H         1 UNK         0.3000 
    221 H221       -8.8874  -18.6183  -55.3845 H         1 UNK         0.0600 
    222 H222       -8.3802  -20.9176  -53.4216 H         1 UNK         0.0600 
    223 H223       -9.7614  -19.8232  -53.4035 H         1 UNK         0.0600 
    224 H224       -9.5352  -20.9310  -54.7480 H         1 UNK         0.0600 
    225 H225       -6.0011  -20.3948  -54.1840 H         1 UNK         0.3000 
    226 H226       -5.5262  -21.7287  -56.7179 H         1 UNK         0.0600 
    227 H227       -5.0577  -22.8414  -54.5795 H         1 UNK         0.0600 
    228 H228       -3.5445  -22.6351  -55.4494 H         1 UNK         0.0600 
    229 H229       -3.9404  -21.5686  -54.1062 H         1 UNK         0.0600 
    230 H230       -4.6498  -18.6528  -55.5016 H         1 UNK         0.3000 
    231 H231       -3.5202  -16.9349  -56.2454 H         1 UNK         0.0600 
    232 H232       -2.6370  -18.4880  -58.7286 H         1 UNK         0.0600 
    233 H233       -2.6088  -16.7488  -58.4993 H         1 UNK         0.0600 
    234 H234       -4.1483  -17.5879  -58.5896 H         1 UNK         0.0600 
    235 H235       -2.2287  -19.5318  -54.9535 H         1 UNK         0.3000 
    236 H236        0.1394  -18.2090  -54.0815 H         1 UNK         0.0600 
    237 H237        0.4482  -20.8105  -55.7069 H         1 UNK         0.0600 
    238 H238        1.1140  -19.2408  -56.1544 H         1 UNK         0.0600 
    239 H239        1.7145  -20.0752  -54.7300 H         1 UNK         0.0600 
    240 H240        0.7014  -19.1090  -52.0460 H         1 UNK         0.3000 
    241 H241       -1.4077  -20.5046  -50.7223 H         1 UNK         0.0600 
    242 H242       -0.5002  -23.9141  -50.6186 H         1 UNK         0.3800 
    243 H243       -1.7197  -22.7017  -50.2916 H         1 UNK         0.3800 
    244 H244        0.2550  -18.7173  -49.7694 H         1 UNK         0.0800 
    245 H245        1.3616  -20.0361  -49.5094 H         1 UNK         0.0800 
    246 H246       -1.1648  -17.8422  -47.9731 H         1 UNK         0.0800 
    247 H247        0.2981  -18.1829  -47.0796 H         1 UNK         0.0800 
@<TRIPOS>BOND
     1    1    2 1    
     2    1  127 1    
     3    1  128 1    
     4    1  129 1    
     5    2    3 2    
     6    2    4 am   BACKBONE|DICT|INTERRES
     7    4    5 1    
     8    4  130 1    
     9    5    6 1    
    10    5   65 1    
    11    5  131 1    
    12    6    7 1    
    13    6  132 1    
    14    6  133 1    
    15    7    8 1    
    16    8    9 1    
    17    8  134 1    
    18    8  135 1    
    19    9   10 ar   
    20    9   14 ar   
    21   10   11 ar   
    22   10  136 1    
    23   11   12 ar   
    24   11  126 1    
    25   12   13 ar   
    26   12  137 1    
    27   13   14 ar   
    28   13   15 1    
    29   14  138 1    
    30   15   16 1    
    31   15  139 1    
    32   15  140 1    
    33   16   17 1    
    34   17   18 1    
    35   17  141 1    
    36   17  142 1    
    37   18   19 1    
    38   18   67 1    
    39   18  143 1    
    40   19   20 am   BACKBONE|DICT|INTERRES
    41   19  144 1    
    42   20   21 2    
    43   20   22 1    
    44   22   23 1    
    45   22   24 1    
    46   22  145 1    
    47   23  146 1    
    48   23  147 1    
    49   23  148 1    
    50   24   25 am   BACKBONE|DICT|INTERRES
    51   24  149 1    
    52   25   26 2    
    53   25   27 1    
    54   27   28 1    
    55   27   29 1    
    56   27  150 1    
    57   28  151 1    
    58   28  152 1    
    59   28  153 1    
    60   29   30 am   BACKBONE|DICT|INTERRES
    61   29  154 1    
    62   30   31 2    
    63   30   32 1    
    64   32   33 1    
    65   32   34 1    
    66   32  155 1    
    67   33  156 1    
    68   33  157 1    
    69   33  158 1    
    70   34   35 am   BACKBONE|DICT|INTERRES
    71   34  159 1    
    72   35   36 2    
    73   35   37 1    
    74   37   38 1    
    75   37   39 1    
    76   37  160 1    
    77   38  161 1    
    78   38  162 1    
    79   38  163 1    
    80   39   40 am   BACKBONE|DICT|INTERRES
    81   39  164 1    
    82   40   41 2    
    83   40   42 1    
    84   42   43 1    
    85   42   44 1    
    86   42  165 1    
    87   43  166 1    
    88   43  167 1    
    89   43  168 1    
    90   44   45 am   BACKBONE|DICT|INTERRES
    91   44  169 1    
    92   45   46 2    
    93   45   47 1    
    94   47   48 1    
    95   47   49 1    
    96   47  170 1    
    97   48  171 1    
    98   48  172 1    
    99   48  173 1    
   100   49   50 am   BACKBONE|DICT|INTERRES
   101   49  174 1    
   102   50   51 2    
   103   50   52 1    
   104   52   53 1    
   105   52   54 1    
   106   52  175 1    
   107   53  176 1    
   108   53  177 1    
   109   53  178 1    
   110   54   55 am   BACKBONE|DICT|INTERRES
   111   54  179 1    
   112   55   56 2    
   113   55   57 1    
   114   57   58 1    
   115   57   59 1    
   116   57  180 1    
   117   58  181 1    
   118   58  182 1    
   119   58  183 1    
   120   59   60 am   BACKBONE|DICT|INTERRES
   121   59  184 1    
   122   60   61 2    
   123   60   62 1    
   124   62   63 1    
   125   62   64 1    
   126   62  185 1    
   127   63  186 1    
   128   63  187 1    
   129   63  188 1    
   130   64   65 am   BACKBONE|DICT|INTERRES
   131   64  189 1    
   132   65   66 2    
   133   67   68 2    
   134   67   69 am   BACKBONE|DICT|INTERRES
   135   69   70 1    
   136   69  190 1    
   137   70   71 1    
   138   70   72 1    
   139   70  191 1    
   140   71  192 1    
   141   71  193 1    
   142   71  194 1    
   143   72   73 2    
   144   72   74 am   BACKBONE|DICT|INTERRES
   145   74   75 1    
   146   74  195 1    
   147   75   76 1    
   148   75   77 1    
   149   75  196 1    
   150   76  197 1    
   151   76  198 1    
   152   76  199 1    
   153   77   78 2    
   154   77   79 am   BACKBONE|DICT|INTERRES
   155   79   80 1    
   156   79  200 1    
   157   80   81 1    
   158   80   82 1    
   159   80  201 1    
   160   81  202 1    
   161   81  203 1    
   162   81  204 1    
   163   82   83 2    
   164   82   84 am   BACKBONE|DICT|INTERRES
   165   84   85 1    
   166   84  205 1    
   167   85   86 1    
   168   85   87 1    
   169   85  206 1    
   170   86  207 1    
   171   86  208 1    
   172   86  209 1    
   173   87   88 2    
   174   87   89 am   BACKBONE|DICT|INTERRES
   175   89   90 1    
   176   89  210 1    
   177   90   91 1    
   178   90   92 1    
   179   90  211 1    
   180   91  212 1    
   181   91  213 1    
   182   91  214 1    
   183   92   93 2    
   184   92   94 am   BACKBONE|DICT|INTERRES
   185   94   95 1    
   186   94  215 1    
   187   95   96 1    
   188   95   97 1    
   189   95  216 1    
   190   96  217 1    
   191   96  218 1    
   192   96  219 1    
   193   97   98 2    
   194   97   99 am   BACKBONE|DICT|INTERRES
   195   99  100 1    
   196   99  220 1    
   197  100  101 1    
   198  100  102 1    
   199  100  221 1    
   200  101  222 1    
   201  101  223 1    
   202  101  224 1    
   203  102  103 2    
   204  102  104 am   BACKBONE|DICT|INTERRES
   205  104  105 1    
   206  104  225 1    
   207  105  106 1    
   208  105  107 1    
   209  105  226 1    
   210  106  227 1    
   211  106  228 1    
   212  106  229 1    
   213  107  108 2    
   214  107  109 am   BACKBONE|DICT|INTERRES
   215  109  110 1    
   216  109  230 1    
   217  110  111 1    
   218  110  112 1    
   219  110  231 1    
   220  111  232 1    
   221  111  233 1    
   222  111  234 1    
   223  112  113 2    
   224  112  114 am   BACKBONE|DICT|INTERRES
   225  114  115 1    
   226  114  235 1    
   227  115  116 1    
   228  115  117 1    
   229  115  236 1    
   230  116  237 1    
   231  116  238 1    
   232  116  239 1    
   233  117  118 2    
   234  117  119 am   BACKBONE|DICT|INTERRES
   235  119  120 1    
   236  119  240 1    
   237  120  121 1    
   238  120  124 1    
   239  120  241 1    
   240  121  122 am   BACKBONE|DICT|INTERRES
   241  121  123 2    
   242  122  242 1    
   243  122  243 1    
   244  124  125 1    
   245  124  244 1    
   246  124  245 1    
   247  125  126 1    
   248  126  246 1    
   249  126  247 1    
@<TRIPOS>SUBSTRUCTURE
     1 UNK         1 GROUP             0       ****    0 ROOT    
