@<TRIPOS>MOLECULE
3R540
247   249    1
SMALL
USER_CHARGES


@<TRIPOS>ATOM
      1 CA          3.9237  -11.8503  -48.9576 C.3       0 UNK        -0.1800 
      2 C           2.6780  -11.7581  -48.0881 C.2       0 UNK         0.5000 
      3 O           2.1692  -10.6604  -47.8622 O.2       0 UNK        -0.5000 
      4 N           2.1910  -12.9075  -47.6002 N.am      1 UNK        -0.5000 
      5 CA          1.0076  -13.0462  -46.7385 C.3       1 UNK         0.1400 
      6 C6         -0.3062  -12.5784  -47.4280 C.3       23 UNK        -0.0398 
      7 S7         -1.7318  -13.6164  -46.9568 S.3       23 UNK        -0.2404 
      8 C8         -2.5249  -13.9549  -48.5679 C.3       23 UNK        -0.0205 
      9 C9         -1.8445  -14.9816  -49.4791 C.ar      23 UNK        -0.0193 
     10 C10        -2.5425  -15.4031  -50.6157 C.ar      23 UNK        -0.1150 
     11 C11        -1.9849  -16.3278  -51.5017 C.ar      23 UNK        -0.0193 
     12 C12        -0.7048  -16.8294  -51.2558 C.ar      23 UNK        -0.1150 
     13 C13         0.0145  -16.4144  -50.1327 C.ar      23 UNK        -0.0193 
     14 C14        -0.5642  -15.5034  -49.2434 C.ar      23 UNK        -0.1150 
     15 C15         1.4380  -16.9054  -49.9090 C.3       23 UNK        -0.0205 
     16 S16         1.5676  -18.1193  -48.5608 S.3       23 UNK        -0.2404 
     17 C17         0.8622  -19.6275  -49.3070 C.3       23 UNK        -0.0398 
     18 CA         -0.3200  -20.2306  -48.5104 C.3       11 UNK         0.1400 
     19 N          -0.0015  -20.4551  -47.0942 N.am      11 UNK        -0.5000 
     20 C          -0.7453  -21.1768  -46.2442 C.2       10 UNK         0.5000 
     21 O          -1.8347  -21.6629  -46.5469 O.2       10 UNK        -0.5000 
     22 CA         -0.1683  -21.4197  -44.8363 C.3       10 UNK         0.1400 
     23 CB          1.3698  -21.5144  -44.8241 C.3       10 UNK        -0.1800 
     24 N          -0.5867  -20.3987  -43.8794 N.am      10 UNK        -0.5000 
     25 C          -1.8086  -20.2864  -43.3395 C.2       9 UNK         0.5000 
     26 O          -2.7573  -21.0172  -43.6222 O.2       9 UNK        -0.5000 
     27 CA         -2.0018  -19.1860  -42.2826 C.3       9 UNK         0.1400 
     28 CB         -1.4371  -19.6359  -40.9253 C.3       9 UNK        -0.1800 
     29 N          -1.3462  -17.9431  -42.6852 N.am      9 UNK        -0.5000 
     30 C          -1.9860  -16.8365  -43.0879 C.2       8 UNK         0.5000 
     31 O          -3.2119  -16.7214  -43.0888 O.2       8 UNK        -0.5000 
     32 CA         -1.1274  -15.6408  -43.5550 C.3       8 UNK         0.1400 
     33 CB         -1.1109  -14.5567  -42.4669 C.3       8 UNK        -0.1800 
     34 N           0.2537  -15.9867  -43.8980 N.am      8 UNK        -0.5000 
     35 C           0.6281  -16.7946  -44.9003 C.2       7 UNK         0.5000 
     36 O          -0.1506  -17.3142  -45.6988 O.2       7 UNK        -0.5000 
     37 CA          2.1261  -17.1415  -44.9603 C.3       7 UNK         0.1400 
     38 CB          2.9022  -16.1290  -45.8149 C.3       7 UNK        -0.1800 
     39 N           2.7461  -17.2057  -43.6368 N.am      7 UNK        -0.5000 
     40 C           2.4363  -18.0702  -42.6613 C.2       6 UNK         0.5000 
     41 O           1.5331  -18.9000  -42.7665 O.2       6 UNK        -0.5000 
     42 CA          3.2156  -17.9593  -41.3335 C.3       6 UNK         0.1400 
     43 CB          3.6680  -19.3373  -40.8110 C.3       6 UNK        -0.1800 
     44 N           4.3292  -17.0018  -41.3747 N.am      6 UNK        -0.5000 
     45 C           5.4699  -17.0769  -42.0803 C.2       5 UNK         0.5000 
     46 O           5.8014  -18.0570  -42.7468 O.2       5 UNK        -0.5000 
     47 CA          6.3655  -15.8212  -42.1020 C.3       5 UNK         0.1400 
     48 CB          6.3891  -15.2163  -43.5161 C.3       5 UNK        -0.1800 
     49 N           5.9107  -14.7883  -41.1699 N.am      5 UNK        -0.5000 
     50 C           6.2473  -14.7197  -39.8752 C.2       4 UNK         0.5000 
     51 O           7.0416  -15.4871  -39.3311 O.2       4 UNK        -0.5000 
     52 CA          5.5550  -13.6215  -39.0436 C.3       4 UNK         0.1400 
     53 CB          6.4174  -12.3506  -39.0091 C.3       4 UNK        -0.1800 
     54 N           4.2169  -13.2776  -39.5363 N.am      4 UNK        -0.5000 
     55 C           3.1582  -14.1011  -39.5226 C.2       3 UNK         0.5000 
     56 O           3.1945  -15.2529  -39.0919 O.2       3 UNK        -0.5000 
     57 CA          1.8570  -13.5691  -40.1479 C.3       3 UNK         0.1400 
     58 CB          1.0086  -12.8313  -39.1024 C.3       3 UNK        -0.1800 
     59 N           2.1051  -12.6849  -41.2884 N.am      3 UNK        -0.5000 
     60 C           2.5491  -13.1038  -42.4791 C.2       2 UNK         0.5000 
     61 O           2.7614  -14.2890  -42.7524 O.2       2 UNK        -0.5000 
     62 CA          2.8559  -12.0110  -43.5158 C.3       2 UNK         0.1400 
     63 CB          4.3546  -11.6743  -43.5059 C.3       2 UNK        -0.1800 
     64 N           2.4742  -12.4409  -44.8576 N.am      2 UNK        -0.5000 
     65 C           1.2183  -12.4466  -45.3255 C.2       1 UNK         0.5000 
     66 O           0.2623  -12.0076  -44.6852 O.2       1 UNK        -0.5000 
     67 C          -1.6369  -19.4645  -48.7430 C.2       11 UNK         0.5000 
     68 O          -2.2825  -19.6935  -49.7657 O.2       11 UNK        -0.5000 
     69 N          -2.0469  -18.6352  -47.7725 N.am      12 UNK        -0.5000 
     70 CA         -3.3300  -17.9326  -47.7593 C.3       12 UNK         0.1400 
     71 CB         -3.3951  -17.0413  -46.5156 C.3       12 UNK        -0.1800 
     72 C          -4.5607  -18.8594  -47.8013 C.2       12 UNK         0.5000 
     73 O          -5.6083  -18.4415  -48.2961 O.2       12 UNK        -0.5000 
     74 N          -4.4225  -20.1068  -47.3271 N.am      13 UNK        -0.5000 
     75 CA         -5.4498  -21.1477  -47.3862 C.3       13 UNK         0.1400 
     76 CB         -5.2141  -22.1533  -46.2452 C.3       13 UNK        -0.1800 
     77 C          -5.4951  -21.8219  -48.7746 C.2       13 UNK         0.5000 
     78 O          -5.4245  -23.0488  -48.8673 O.2       13 UNK        -0.5000 
     79 N          -5.6026  -20.9995  -49.8295 N.am      14 UNK        -0.5000 
     80 CA         -5.6825  -21.3593  -51.2479 C.3       14 UNK         0.1400 
     81 CB         -7.0765  -21.9304  -51.5694 C.3       14 UNK        -0.1800 
     82 C          -4.5244  -22.2732  -51.6975 C.2       14 UNK         0.5000 
     83 O          -4.7595  -23.3552  -52.2435 O.2       14 UNK        -0.5000 
     84 N          -3.2909  -21.8317  -51.4148 N.am      15 UNK        -0.5000 
     85 CA         -2.0060  -22.5231  -51.5709 C.3       15 UNK         0.1400 
     86 CB         -1.7387  -22.9628  -53.0244 C.3       15 UNK        -0.1800 
     87 C          -1.8317  -23.6979  -50.5933 C.2       15 UNK         0.5000 
     88 O          -0.8756  -23.7048  -49.8180 O.2       15 UNK        -0.5000 
     89 N          -2.7536  -24.6619  -50.6529 N.am      16 UNK        -0.5000 
     90 CA         -2.7820  -25.8752  -49.8458 C.3       16 UNK         0.1400 
     91 CB         -1.6449  -26.8338  -50.2616 C.3       16 UNK        -0.1800 
     92 C          -4.1730  -26.5112  -49.9755 C.2       16 UNK         0.5000 
     93 O          -4.3066  -27.5896  -50.5539 O.2       16 UNK        -0.5000 
     94 N          -5.1961  -25.8035  -49.4778 N.am      17 UNK        -0.5000 
     95 CA         -6.6090  -26.2005  -49.4543 C.3       17 UNK         0.1400 
     96 CB         -6.8230  -27.4259  -48.5407 C.3       17 UNK        -0.1800 
     97 C          -7.2028  -26.3801  -50.8666 C.2       17 UNK         0.5000 
     98 O          -7.9268  -27.3434  -51.1232 O.2       17 UNK        -0.5000 
     99 N          -6.8696  -25.4326  -51.7539 N.am      18 UNK        -0.5000 
    100 CA        -7.3088  -25.3131  -53.1467 C.3       18 UNK         0.1400 
    101 CB        -8.8447  -25.2204  -53.2607 C.3       18 UNK        -0.1800 
    102 C         -6.6879  -26.3531  -54.0987 C.2       18 UNK         0.5000 
    103 O         -7.1907  -26.5283  -55.2089 O.2       18 UNK        -0.5000 
    104 N         -5.5709  -26.9751  -53.6916 N.am      19 UNK        -0.5000 
    105 CA        -4.7815  -27.8920  -54.5210 C.3       19 UNK         0.1400 
    106 CB        -3.7103  -28.5714  -53.6562 C.3       19 UNK        -0.1800 
    107 C         -4.1315  -27.2018  -55.7374 C.2       19 UNK         0.5000 
    108 O         -4.0181  -27.8228  -56.7949 O.2       19 UNK        -0.5000 
    109 N         -3.7424  -25.9302  -55.5682 N.am      20 UNK        -0.5000 
    110 CA        -3.1965  -25.0695  -56.6230 C.3       20 UNK         0.1400 
    111 CB        -1.6901  -24.8647  -56.3867 C.3       20 UNK        -0.1800 
    112 C         -3.9538  -23.7300  -56.7290 C.2       20 UNK         0.5000 
    113 O         -3.5039  -22.8399  -57.4511 O.2       20 UNK        -0.5000 
    114 N         -5.0836  -23.6037  -56.0126 N.am      21 UNK        -0.5000 
    115 CA        -6.0478  -22.4921  -56.0430 C.3       21 UNK         0.1400 
    116 CB        -6.8675  -22.5529  -57.3476 C.3       21 UNK        -0.1800 
    117 C         -5.4331  -21.0954  -55.7934 C.2       21 UNK         0.5000 
    118 O         -5.8802  -20.1087  -56.3801 O.2       21 UNK        -0.5000 
    119 N         -4.4099  -21.0428  -54.9307 N.am      22 UNK        -0.5000 
    120 CA        -3.5839  -19.8559  -54.6395 C.3       22 UNK         0.1400 
    121 C         -2.6337  -19.4231  -55.8020 C.2       22 UNK         0.5000 
    122 N         -2.4327  -20.2245  -56.8415 N.am      22 UNK        -0.7600 
    123 O         -2.0367  -18.3522  -55.7544 O.2       22 UNK        -0.5000 
    124 C124       -4.3985  -18.6696  -54.0284 C.3       23 UNK        -0.0398 
    125 S125       -3.8114  -18.2019  -52.3654 S.3       23 UNK        -0.2404 
    126 C126       -2.7558  -16.7705  -52.7345 C.3       23 UNK        -0.0205 
    127 H127        3.7201  -11.4441  -49.9483 H         1 UNK         0.0600 
    128 H128        4.2620  -12.8801  -49.0757 H         1 UNK         0.0600 
    129 H129        4.7352  -11.2748  -48.5121 H         1 UNK         0.0600 
    130 H130        2.6619  -13.7696  -47.8351 H         1 UNK         0.3000 
    131 H131        0.9260  -14.1190  -46.5669 H         1 UNK         0.0600 
    132 H132       -0.5275  -11.5321  -47.2101 H         1 UNK         0.0800 
    133 H133       -0.1963  -12.6305  -48.5119 H         1 UNK         0.0800 
    134 H134       -3.5375  -14.3035  -48.3594 H         1 UNK         0.0800 
    135 H135       -2.6330  -13.0154  -49.1115 H         1 UNK         0.0800 
    136 H136       -3.5309  -15.0115  -50.8123 H         1 UNK         0.1150 
    137 H137       -0.2661  -17.5352  -51.9470 H         1 UNK         0.1150 
    138 H138        0.0017  -15.2058  -48.3762 H         1 UNK         0.1150 
    139 H139        1.8523  -17.3322  -50.8237 H         1 UNK         0.0800 
    140 H140        2.0701  -16.0505  -49.6652 H         1 UNK         0.0800 
    141 H141        1.6648  -20.3638  -49.3633 H         1 UNK         0.0800 
    142 H142        0.5732  -19.4379  -50.3421 H         1 UNK         0.0800 
    143 H143       -0.4931  -21.2223  -48.9305 H         1 UNK         0.0600 
    144 H144        0.8614  -20.0465  -46.7679 H         1 UNK         0.3000 
    145 H145       -0.5563  -22.3826  -44.4973 H         1 UNK         0.0600 
    146 H146        1.7308  -21.8300  -43.8449 H         1 UNK         0.0600 
    147 H147        1.7250  -22.2471  -45.5500 H         1 UNK         0.0600 
    148 H148        1.8447  -20.5602  -45.0531 H         1 UNK         0.0600 
    149 H149        0.1499  -19.7831  -43.5442 H         1 UNK         0.3000 
    150 H150       -3.0760  -19.0326  -42.1610 H         1 UNK         0.0600 
    151 H151       -1.9096  -20.5615  -40.5939 H         1 UNK         0.0600 
    152 H152       -1.6191  -18.8848  -40.1566 H         1 UNK         0.0600 
    153 H153       -0.3620  -19.8140  -40.9701 H         1 UNK         0.0600 
    154 H154       -0.3355  -17.9664  -42.7337 H         1 UNK         0.3000 
    155 H155       -1.5981  -15.2269  -44.4476 H         1 UNK         0.0600 
    156 H156       -2.1180  -14.1857  -42.2731 H         1 UNK         0.0600 
    157 H157       -0.5043  -13.7013  -42.7609 H         1 UNK         0.0600 
    158 H158       -0.7201  -14.9424  -41.5256 H         1 UNK         0.0600 
    159 H159        0.9809  -15.6032  -43.3072 H         1 UNK         0.3000 
    160 H160        2.2167  -18.1248  -45.4248 H         1 UNK         0.0600 
    161 H161        2.9517  -15.1537  -45.3340 H         1 UNK         0.0600 
    162 H162        2.4379  -15.9939  -46.7910 H         1 UNK         0.0600 
    163 H163        3.9245  -16.4662  -45.9868 H         1 UNK         0.0600 
    164 H164        3.4350  -16.4967  -43.4306 H         1 UNK         0.3000 
    165 H165        2.5066  -17.5547  -40.6101 H         1 UNK         0.0600 
    166 H166        4.3104  -19.8540  -41.5242 H         1 UNK         0.0600 
    167 H167        4.2131  -19.2434  -39.8719 H         1 UNK         0.0600 
    168 H168        2.8094  -19.9833  -40.6238 H         1 UNK         0.0600 
    169 H169        4.1713  -16.1595  -40.8364 H         1 UNK         0.3000 
    170 H170        7.3802  -16.1296  -41.8417 H         1 UNK         0.0600 
    171 H171        6.7897  -15.9274  -44.2397 H         1 UNK         0.0600 
    172 H172        5.3895  -14.9379  -43.8521 H         1 UNK         0.0600 
    173 H173        7.0183  -14.3269  -43.5557 H         1 UNK         0.0600 
    174 H174        5.2427  -14.1218  -41.5276 H         1 UNK         0.3000 
    175 H175        5.4535  -13.9956  -38.0227 H         1 UNK         0.0600 
    176 H176        6.5354  -11.9165  -40.0028 H         1 UNK         0.0600 
    177 H177        5.9776  -11.5926  -38.3607 H         1 UNK         0.0600 
    178 H178        7.4151  -12.5659  -38.6243 H         1 UNK         0.0600 
    179 H179        4.0967  -12.3469  -39.9074 H         1 UNK         0.3000 
    180 H180        1.2905  -14.4338  -40.4969 H         1 UNK         0.0600 
    181 H181        1.5151  -11.9424  -38.7245 H         1 UNK         0.0600 
    182 H182        0.7943  -13.4755  -38.2486 H         1 UNK         0.0600 
    183 H183        0.0514  -12.5207  -39.5216 H         1 UNK         0.0600 
    184 H184        1.9462  -11.6987  -41.1388 H         1 UNK         0.3000 
    185 H185        2.2973  -11.1079  -43.2605 H         1 UNK         0.0600 
    186 H186        4.6774  -11.3431  -42.5180 H         1 UNK         0.0600 
    187 H187        4.9656  -12.5343  -43.7803 H         1 UNK         0.0600 
    188 H188        4.5800  -10.8694  -44.2058 H         1 UNK         0.0600 
    189 H189        3.2078  -12.8210  -45.4360 H         1 UNK         0.3000 
    190 H190       -1.4240  -18.4581  -46.9916 H         1 UNK         0.3000 
    191 H191       -3.3668  -17.2998  -48.6467 H         1 UNK         0.0600 
    192 H192       -3.3901  -17.6401  -45.6051 H         1 UNK         0.0600 
    193 H193       -2.5465  -16.3614  -46.4754 H         1 UNK         0.0600 
    194 H194       -4.3013  -16.4347  -46.5102 H         1 UNK         0.0600 
    195 H195       -3.5128  -20.4037  -46.9903 H         1 UNK         0.3000 
    196 H196       -6.4272  -20.6902  -47.2203 H         1 UNK         0.0600 
    197 H197       -5.1802  -21.6528  -45.2773 H         1 UNK         0.0600 
    198 H198       -4.2774  -22.6964  -46.3726 H         1 UNK         0.0600 
    199 H199       -6.0165  -22.8907  -46.2023 H         1 UNK         0.0600 
    200 H200       -5.6318  -20.0060  -49.6263 H         1 UNK         0.3000 
    201 H201       -5.5784  -20.4342  -51.8125 H         1 UNK         0.0600 
    202 H202       -7.1723  -22.1616  -52.6301 H         1 UNK         0.0600 
    203 H203       -7.8568  -21.2084  -51.3290 H         1 UNK         0.0600 
    204 H204       -7.2848  -22.8378  -51.0041 H         1 UNK         0.0600 
    205 H205       -3.2119  -20.9498  -50.9120 H         1 UNK         0.3000 
    206 H206       -1.2427  -21.7869  -51.3152 H         1 UNK         0.0600 
    207 H207       -1.7043  -22.1127  -53.7024 H         1 UNK         0.0600 
    208 H208       -2.4894  -23.6607  -53.3924 H         1 UNK         0.0600 
    209 H209       -0.7730  -23.4641  -53.1006 H         1 UNK         0.0600 
    210 H210       -3.5341  -24.5214  -51.2872 H         1 UNK         0.3000 
    211 H211       -2.6447  -25.6051  -48.7967 H         1 UNK         0.0600 
    212 H212       -0.6642  -26.4061  -50.0545 H         1 UNK         0.0600 
    213 H213       -1.7049  -27.7738  -49.7118 H         1 UNK         0.0600 
    214 H214       -1.6871  -27.0698  -51.3250 H         1 UNK         0.0600 
    215 H215       -5.0164  -24.8726  -49.1054 H         1 UNK         0.3000 
    216 H216       -7.1491  -25.3646  -49.0072 H         1 UNK         0.0600 
    217 H217       -7.8853  -27.6396  -48.4174 H         1 UNK         0.0600 
    218 H218       -6.3550  -28.3232  -48.9465 H         1 UNK         0.0600 
    219 H219       -6.4107  -27.2524  -47.5468 H         1 UNK         0.0600 
    220 H220       -6.2232  -24.7115  -51.4559 H         1 UNK         0.3000 
    221 H221       -6.9147  -24.3571  -53.4875 H         1 UNK         0.0600 
    222 H222       -9.3289  -26.1696  -53.0310 H         1 UNK         0.0600 
    223 H223       -9.2451  -24.4648  -52.5848 H         1 UNK         0.0600 
    224 H224       -9.1454  -24.9401  -54.2709 H         1 UNK         0.0600 
    225 H225       -5.2450  -26.8201  -52.7474 H         1 UNK         0.3000 
    226 H226       -5.4536  -28.6650  -54.8999 H         1 UNK         0.0600 
    227 H227       -4.1628  -29.1414  -52.8446 H         1 UNK         0.0600 
    228 H228       -3.1132  -29.2676  -54.2465 H         1 UNK         0.0600 
    229 H229       -3.0279  -27.8438  -53.2161 H         1 UNK         0.0600 
    230 H230       -3.8375  -25.5187  -54.6511 H         1 UNK         0.3000 
    231 H231       -3.3181  -25.5480  -57.5967 H         1 UNK         0.0600 
    232 H232       -1.2421  -24.2738  -57.1865 H         1 UNK         0.0600 
    233 H233       -1.1647  -25.8194  -56.3595 H         1 UNK         0.0600 
    234 H234       -1.4924  -24.3486  -55.4492 H         1 UNK         0.0600 
    235 H235       -5.3735  -24.4108  -55.4834 H         1 UNK         0.3000 
    236 H236       -6.7388  -22.6610  -55.2167 H         1 UNK         0.0600 
    237 H237       -7.3251  -23.5336  -57.4794 H         1 UNK         0.0600 
    238 H238       -7.6750  -21.8198  -57.3421 H         1 UNK         0.0600 
    239 H239       -6.2468  -22.3524  -58.2216 H         1 UNK         0.0600 
    240 H240       -4.1003  -21.9090  -54.5152 H         1 UNK         0.3000 
    241 H241       -2.8911  -20.2050  -53.8758 H         1 UNK         0.0600 
    242 H242       -1.8069  -19.9253  -57.5719 H         1 UNK         0.3800 
    243 H243       -2.9065  -21.1190  -56.9333 H         1 UNK         0.3800 
    244 H244       -4.4061  -17.7933  -54.6789 H         1 UNK         0.0800 
    245 H245       -5.4491  -18.9372  -53.9141 H         1 UNK         0.0800 
    246 H246       -3.3701  -15.9514  -53.1113 H         1 UNK         0.0800 
    247 H247       -2.0557  -17.0244  -53.5302 H         1 UNK         0.0800 
@<TRIPOS>BOND
     1    1    2 1    
     2    1  127 1    
     3    1  128 1    
     4    1  129 1    
     5    2    3 2    
     6    2    4 am   BACKBONE|DICT|INTERRES
     7    4    5 1    
     8    4  130 1    
     9    5    6 1    
    10    5   65 1    
    11    5  131 1    
    12    6    7 1    
    13    6  132 1    
    14    6  133 1    
    15    7    8 1    
    16    8    9 1    
    17    8  134 1    
    18    8  135 1    
    19    9   10 ar   
    20    9   14 ar   
    21   10   11 ar   
    22   10  136 1    
    23   11   12 ar   
    24   11  126 1    
    25   12   13 ar   
    26   12  137 1    
    27   13   14 ar   
    28   13   15 1    
    29   14  138 1    
    30   15   16 1    
    31   15  139 1    
    32   15  140 1    
    33   16   17 1    
    34   17   18 1    
    35   17  141 1    
    36   17  142 1    
    37   18   19 1    
    38   18   67 1    
    39   18  143 1    
    40   19   20 am   BACKBONE|DICT|INTERRES
    41   19  144 1    
    42   20   21 2    
    43   20   22 1    
    44   22   23 1    
    45   22   24 1    
    46   22  145 1    
    47   23  146 1    
    48   23  147 1    
    49   23  148 1    
    50   24   25 am   BACKBONE|DICT|INTERRES
    51   24  149 1    
    52   25   26 2    
    53   25   27 1    
    54   27   28 1    
    55   27   29 1    
    56   27  150 1    
    57   28  151 1    
    58   28  152 1    
    59   28  153 1    
    60   29   30 am   BACKBONE|DICT|INTERRES
    61   29  154 1    
    62   30   31 2    
    63   30   32 1    
    64   32   33 1    
    65   32   34 1    
    66   32  155 1    
    67   33  156 1    
    68   33  157 1    
    69   33  158 1    
    70   34   35 am   BACKBONE|DICT|INTERRES
    71   34  159 1    
    72   35   36 2    
    73   35   37 1    
    74   37   38 1    
    75   37   39 1    
    76   37  160 1    
    77   38  161 1    
    78   38  162 1    
    79   38  163 1    
    80   39   40 am   BACKBONE|DICT|INTERRES
    81   39  164 1    
    82   40   41 2    
    83   40   42 1    
    84   42   43 1    
    85   42   44 1    
    86   42  165 1    
    87   43  166 1    
    88   43  167 1    
    89   43  168 1    
    90   44   45 am   BACKBONE|DICT|INTERRES
    91   44  169 1    
    92   45   46 2    
    93   45   47 1    
    94   47   48 1    
    95   47   49 1    
    96   47  170 1    
    97   48  171 1    
    98   48  172 1    
    99   48  173 1    
   100   49   50 am   BACKBONE|DICT|INTERRES
   101   49  174 1    
   102   50   51 2    
   103   50   52 1    
   104   52   53 1    
   105   52   54 1    
   106   52  175 1    
   107   53  176 1    
   108   53  177 1    
   109   53  178 1    
   110   54   55 am   BACKBONE|DICT|INTERRES
   111   54  179 1    
   112   55   56 2    
   113   55   57 1    
   114   57   58 1    
   115   57   59 1    
   116   57  180 1    
   117   58  181 1    
   118   58  182 1    
   119   58  183 1    
   120   59   60 am   BACKBONE|DICT|INTERRES
   121   59  184 1    
   122   60   61 2    
   123   60   62 1    
   124   62   63 1    
   125   62   64 1    
   126   62  185 1    
   127   63  186 1    
   128   63  187 1    
   129   63  188 1    
   130   64   65 am   BACKBONE|DICT|INTERRES
   131   64  189 1    
   132   65   66 2    
   133   67   68 2    
   134   67   69 am   BACKBONE|DICT|INTERRES
   135   69   70 1    
   136   69  190 1    
   137   70   71 1    
   138   70   72 1    
   139   70  191 1    
   140   71  192 1    
   141   71  193 1    
   142   71  194 1    
   143   72   73 2    
   144   72   74 am   BACKBONE|DICT|INTERRES
   145   74   75 1    
   146   74  195 1    
   147   75   76 1    
   148   75   77 1    
   149   75  196 1    
   150   76  197 1    
   151   76  198 1    
   152   76  199 1    
   153   77   78 2    
   154   77   79 am   BACKBONE|DICT|INTERRES
   155   79   80 1    
   156   79  200 1    
   157   80   81 1    
   158   80   82 1    
   159   80  201 1    
   160   81  202 1    
   161   81  203 1    
   162   81  204 1    
   163   82   83 2    
   164   82   84 am   BACKBONE|DICT|INTERRES
   165   84   85 1    
   166   84  205 1    
   167   85   86 1    
   168   85   87 1    
   169   85  206 1    
   170   86  207 1    
   171   86  208 1    
   172   86  209 1    
   173   87   88 2    
   174   87   89 am   BACKBONE|DICT|INTERRES
   175   89   90 1    
   176   89  210 1    
   177   90   91 1    
   178   90   92 1    
   179   90  211 1    
   180   91  212 1    
   181   91  213 1    
   182   91  214 1    
   183   92   93 2    
   184   92   94 am   BACKBONE|DICT|INTERRES
   185   94   95 1    
   186   94  215 1    
   187   95   96 1    
   188   95   97 1    
   189   95  216 1    
   190   96  217 1    
   191   96  218 1    
   192   96  219 1    
   193   97   98 2    
   194   97   99 am   BACKBONE|DICT|INTERRES
   195   99  100 1    
   196   99  220 1    
   197  100  101 1    
   198  100  102 1    
   199  100  221 1    
   200  101  222 1    
   201  101  223 1    
   202  101  224 1    
   203  102  103 2    
   204  102  104 am   BACKBONE|DICT|INTERRES
   205  104  105 1    
   206  104  225 1    
   207  105  106 1    
   208  105  107 1    
   209  105  226 1    
   210  106  227 1    
   211  106  228 1    
   212  106  229 1    
   213  107  108 2    
   214  107  109 am   BACKBONE|DICT|INTERRES
   215  109  110 1    
   216  109  230 1    
   217  110  111 1    
   218  110  112 1    
   219  110  231 1    
   220  111  232 1    
   221  111  233 1    
   222  111  234 1    
   223  112  113 2    
   224  112  114 am   BACKBONE|DICT|INTERRES
   225  114  115 1    
   226  114  235 1    
   227  115  116 1    
   228  115  117 1    
   229  115  236 1    
   230  116  237 1    
   231  116  238 1    
   232  116  239 1    
   233  117  118 2    
   234  117  119 am   BACKBONE|DICT|INTERRES
   235  119  120 1    
   236  119  240 1    
   237  120  121 1    
   238  120  124 1    
   239  120  241 1    
   240  121  122 am   BACKBONE|DICT|INTERRES
   241  121  123 2    
   242  122  242 1    
   243  122  243 1    
   244  124  125 1    
   245  124  244 1    
   246  124  245 1    
   247  125  126 1    
   248  126  246 1    
   249  126  247 1    
@<TRIPOS>SUBSTRUCTURE
     1 UNK         1 GROUP             0       ****    0 ROOT    
