@<TRIPOS>MOLECULE
3R540
247   249    1
SMALL
USER_CHARGES


@<TRIPOS>ATOM
      1 CA         -1.5812  -15.6769  -43.2190 C.3       0 UNK        -0.1800 
      2 C          -1.9331  -15.0039  -44.5383 C.2       0 UNK         0.5000 
      3 O          -2.9950  -15.2747  -45.0989 O.2       0 UNK        -0.5000 
      4 N          -1.0438  -14.1328  -45.0244 N.am      1 UNK        -0.5000 
      5 CA         -1.1907  -13.3693  -46.2657 C.3       1 UNK         0.1400 
      6 C6         -0.1195  -13.7584  -47.3220 C.3       23 UNK        -0.0398 
      7 S7         -0.3360  -15.4484  -47.9697 S.3       23 UNK        -0.2404 
      8 C8          1.1438  -15.5705  -49.0208 C.3       23 UNK        -0.0205 
      9 C9          1.0209  -16.7087  -50.0207 C.ar      23 UNK        -0.0193 
     10 C10         0.3546  -16.5031  -51.2320 C.ar      23 UNK        -0.1150 
     11 C11         0.2463  -17.5364  -52.1658 C.ar      23 UNK        -0.0193 
     12 C12         0.7968  -18.7867  -51.8728 C.ar      23 UNK        -0.1150 
     13 C13         1.4514  -19.0152  -50.6597 C.ar      23 UNK        -0.0193 
     14 C14         1.5788  -17.9604  -49.7456 C.ar      23 UNK        -0.1150 
     15 C15         2.0076  -20.4103  -50.3756 C.3       23 UNK        -0.0205 
     16 S16         1.9414  -20.9208  -48.6243 S.3       23 UNK        -0.2404 
     17 C17         0.2112  -20.5486  -48.1807 C.3       23 UNK        -0.0398 
     18 CA         -0.4541  -21.6614  -47.3430 C.3       11 UNK         0.1400 
     19 N           0.2112  -21.8796  -46.0519 N.am      11 UNK        -0.5000 
     20 C          -0.0796  -22.8793  -45.2069 C.2       10 UNK         0.5000 
     21 O          -0.9075  -23.7558  -45.4507 O.2       10 UNK        -0.5000 
     22 CA          0.6187  -22.8690  -43.8343 C.3       10 UNK         0.1400 
     23 CB          2.0353  -23.4559  -43.9216 C.3       10 UNK        -0.1800 
     24 N           0.6580  -21.5318  -43.2402 N.am      10 UNK        -0.5000 
     25 C          -0.4330  -20.8542  -42.8533 C.2       9 UNK         0.5000 
     26 O          -1.5717  -21.3173  -42.9002 O.2       9 UNK        -0.5000 
     27 CA         -0.2350  -19.4027  -42.3825 C.3       9 UNK         0.1400 
     28 CB          0.1693  -19.3544  -40.9022 C.3       9 UNK        -0.1800 
     29 N           0.7500  -18.6787  -43.1826 N.am      9 UNK        -0.5000 
     30 C           0.6371  -18.4115  -44.4903 C.2       8 UNK         0.5000 
     31 O          -0.3526  -18.6962  -45.1624 O.2       8 UNK        -0.5000 
     32 CA          1.8635  -17.7759  -45.1702 C.3       8 UNK         0.1400 
     33 CB          1.9078  -16.2601  -44.9366 C.3       8 UNK        -0.1800 
     34 N           3.1217  -18.3697  -44.7180 N.am      8 UNK        -0.5000 
     35 C           3.4753  -19.6453  -44.9247 C.2       7 UNK         0.5000 
     36 O           2.7713  -20.4604  -45.5162 O.2       7 UNK        -0.5000 
     37 CA          4.8184  -20.0938  -44.3240 C.3       7 UNK         0.1400 
     38 CB          5.9927  -19.6116  -45.1890 C.3       7 UNK        -0.1800 
     39 N           4.9920  -19.6172  -42.9517 N.am      7 UNK        -0.5000 
     40 C           4.2630  -20.0430  -41.9106 C.2       6 UNK         0.5000 
     41 O           3.3995  -20.9170  -41.9906 O.2       6 UNK        -0.5000 
     42 CA          4.5091  -19.3358  -40.5640 C.3       6 UNK         0.1400 
     43 CB          5.7122  -19.9561  -39.8379 C.3       6 UNK        -0.1800 
     44 N           4.7051  -17.8857  -40.6844 N.am      6 UNK        -0.5000 
     45 C           3.8008  -17.0419  -41.1981 C.2       5 UNK         0.5000 
     46 O           2.7358  -17.4089  -41.6957 O.2       5 UNK        -0.5000 
     47 CA          4.1543  -15.5444  -41.1958 C.3       5 UNK         0.1400 
     48 CB          4.9739  -15.1847  -42.4446 C.3       5 UNK        -0.1800 
     49 N           2.9440  -14.7228  -41.1770 N.am      5 UNK        -0.5000 
     50 C           2.1118  -14.6082  -40.1342 C.2       4 UNK         0.5000 
     51 O           2.3475  -15.0866  -39.0228 O.2       4 UNK        -0.5000 
     52 CA          0.8177  -13.8038  -40.3788 C.3       4 UNK         0.1400 
     53 CB          0.0011  -13.5794  -39.0934 C.3       4 UNK        -0.1800 
     54 N           1.1065  -12.5044  -40.9874 N.am      4 UNK        -0.5000 
     55 C           1.2380  -12.2774  -42.2979 C.2       3 UNK         0.5000 
     56 O           1.1073  -13.1507  -43.1642 O.2       3 UNK        -0.5000 
     57 CA          1.6215  -10.8465  -42.6996 C.3       3 UNK         0.1400 
     58 CB          3.1409  -10.6381  -42.5942 C.3       3 UNK        -0.1800 
     59 N           1.2029  -10.6451  -44.0775 N.am      3 UNK        -0.5000 
     60 C           0.5802   -9.5694  -44.5699 C.2       2 UNK         0.5000 
     61 O           0.4168   -8.5214  -43.9438 O.2       2 UNK        -0.5000 
     62 CA          0.0223   -9.7007  -46.0029 C.3       2 UNK         0.1400 
     63 CB          0.9812   -9.0565  -47.0158 C.3       2 UNK        -0.1800 
     64 N          -0.2190  -11.0951  -46.3938 N.am      2 UNK        -0.5000 
     65 C          -1.1752  -11.8784  -45.8700 C.2       1 UNK         0.5000 
     66 O          -2.0171  -11.4636  -45.0702 O.2       1 UNK        -0.5000 
     67 C          -1.9578  -21.3584  -47.1774 C.2       11 UNK         0.5000 
     68 O          -2.7645  -21.8604  -47.9611 O.2       11 UNK        -0.5000 
     69 N          -2.3115  -20.5632  -46.1579 N.am      12 UNK        -0.5000 
     70 CA         -3.6917  -20.2455  -45.7943 C.3       12 UNK         0.1400 
     71 CB         -3.7099  -19.1070  -44.7633 C.3       12 UNK        -0.1800 
     72 C          -4.4598  -21.4759  -45.2786 C.2       12 UNK         0.5000 
     73 O          -5.6034  -21.6826  -45.6831 O.2       12 UNK        -0.5000 
     74 N          -3.8094  -22.2929  -44.4369 N.am      13 UNK        -0.5000 
     75 CA         -4.3410  -23.5562  -43.9181 C.3       13 UNK         0.1400 
     76 CB         -3.4223  -24.0843  -42.8061 C.3       13 UNK        -0.1800 
     77 C          -4.5358  -24.6189  -45.0162 C.2       13 UNK         0.5000 
     78 O          -5.5424  -25.3282  -45.0040 O.2       13 UNK        -0.5000 
     79 N          -3.5911  -24.6838  -45.9648 N.am      14 UNK        -0.5000 
     80 CA         -3.6634  -25.5187  -47.1672 C.3       14 UNK         0.1400 
     81 CB         -2.2646  -25.6030  -47.7980 C.3       14 UNK        -0.1800 
     82 C          -4.6841  -25.0090  -48.2060 C.2       14 UNK         0.5000 
     83 O          -5.0627  -25.7697  -49.0972 O.2       14 UNK        -0.5000 
     84 N          -5.0951  -23.7395  -48.0724 N.am      15 UNK        -0.5000 
     85 CA         -5.9934  -22.9804  -48.9415 C.3       15 UNK         0.1400 
     86 CB         -7.4188  -23.5677  -48.9072 C.3       15 UNK        -0.1800 
     87 C          -5.4219  -22.8340  -50.3641 C.2       15 UNK         0.5000 
     88 O          -6.1040  -23.1443  -51.3412 O.2       15 UNK        -0.5000 
     89 N          -4.1694  -22.3601  -50.4483 N.am      16 UNK        -0.5000 
     90 CA         -3.3765  -22.2126  -51.6753 C.3       16 UNK         0.1400 
     91 CB         -2.0355  -21.5454  -51.3294 C.3       16 UNK        -0.1800 
     92 C          -4.0761  -21.4459  -52.8155 C.2       16 UNK         0.5000 
     93 O          -3.9294  -21.8220  -53.9791 O.2       16 UNK        -0.5000 
     94 N          -4.8486  -20.4098  -52.4638 N.am      17 UNK        -0.5000 
     95 CA         -5.6290  -19.6108  -53.4082 C.3       17 UNK         0.1400 
     96 CB         -6.0932  -18.3198  -52.7187 C.3       17 UNK        -0.1800 
     97 C          -6.8272  -20.3786  -53.9986 C.2       17 UNK         0.5000 
     98 O          -7.1103  -20.2329  -55.1876 O.2       17 UNK        -0.5000 
     99 N          -7.4911  -21.2003  -53.1729 N.am      18 UNK        -0.5000 
    100 CA        -8.6185  -22.0470  -53.5742 C.3       18 UNK         0.1400 
    101 CB        -9.4209  -22.4587  -52.3311 C.3       18 UNK        -0.1800 
    102 C         -8.1522  -23.2883  -54.3547 C.2       18 UNK         0.5000 
    103 O         -8.8286  -23.7119  -55.2922 O.2       18 UNK        -0.5000 
    104 N         -6.9808  -23.8191  -53.9784 N.am      19 UNK        -0.5000 
    105 CA        -6.2747  -24.9043  -54.6625 C.3       19 UNK         0.1400 
    106 CB        -5.1756  -25.4344  -53.7280 C.3       19 UNK        -0.1800 
    107 C         -5.6683  -24.4844  -56.0190 C.2       19 UNK         0.5000 
    108 O         -5.2394  -25.3532  -56.7789 O.2       19 UNK        -0.5000 
    109 N         -5.6315  -23.1698  -56.2851 N.am      20 UNK        -0.5000 
    110 CA        -5.0856  -22.4980  -57.4676 C.3       20 UNK         0.1400 
    111 CB        -5.8114  -22.9405  -58.7549 C.3       20 UNK        -0.1800 
    112 C         -3.5504  -22.5960  -57.5781 C.2       20 UNK         0.5000 
    113 O         -2.9993  -22.3873  -58.6604 O.2       20 UNK        -0.5000 
    114 N         -2.8728  -22.8423  -56.4477 N.am      21 UNK        -0.5000 
    115 CA        -1.4132  -22.8262  -56.3240 C.3       21 UNK         0.1400 
    116 CB        -1.0116  -23.4353  -54.9722 C.3       21 UNK        -0.1800 
    117 C         -0.8351  -21.4065  -56.4825 C.2       21 UNK         0.5000 
    118 O          0.3036  -21.2572  -56.9267 O.2       21 UNK        -0.5000 
    119 N         -1.6524  -20.3957  -56.1604 N.am      22 UNK        -0.5000 
    120 CA        -1.3960  -18.9742  -56.4344 C.3       22 UNK         0.1400 
    121 C         -1.5771  -18.5624  -57.9279 C.2       22 UNK         0.5000 
    122 N         -2.0224  -19.4342  -58.8267 N.am      22 UNK        -0.7600 
    123 O         -1.2972  -17.4213  -58.2845 O.2       22 UNK        -0.5000 
    124 C124       -2.2240  -18.0506  -55.5018 C.3       23 UNK        -0.0398 
    125 S125       -1.8962  -18.3517  -53.7330 S.3       23 UNK        -0.2404 
    126 C126       -0.4296  -17.2980  -53.5065 C.3       23 UNK        -0.0205 
    127 H127       -0.5083  -15.6472  -43.0276 H         1 UNK         0.0600 
    128 H128       -2.0944  -15.1830  -42.3942 H         1 UNK         0.0600 
    129 H129       -1.8895  -16.7217  -43.2388 H         1 UNK         0.0600 
    130 H130       -0.2311  -13.8978  -44.4620 H         1 UNK         0.3000 
    131 H131       -2.1733  -13.5433  -46.7090 H         1 UNK         0.0600 
    132 H132       -0.1697  -13.0890  -48.1826 H         1 UNK         0.0800 
    133 H133        0.8858  -13.6706  -46.9056 H         1 UNK         0.0800 
    134 H134        2.0235  -15.7073  -48.3898 H         1 UNK         0.0800 
    135 H135        1.2929  -14.6332  -49.5591 H         1 UNK         0.0800 
    136 H136       -0.0710  -15.5333  -51.4489 H         1 UNK         0.1150 
    137 H137        0.7072  -19.5861  -52.5953 H         1 UNK         0.1150 
    138 H138        2.0977  -18.1148  -48.8105 H         1 UNK         0.1150 
    139 H139        3.0441  -20.4482  -50.7122 H         1 UNK         0.0800 
    140 H140        1.4646  -21.1547  -50.9604 H         1 UNK         0.0800 
    141 H141       -0.3557  -20.3865  -49.0987 H         1 UNK         0.0800 
    142 H142        0.1941  -19.5989  -47.6439 H         1 UNK         0.0800 
    143 H143       -0.3786  -22.5936  -47.9068 H         1 UNK         0.0600 
    144 H144        0.9515  -21.2289  -45.8054 H         1 UNK         0.3000 
    145 H145        0.0380  -23.5084  -43.1663 H         1 UNK         0.0600 
    146 H146        2.5069  -23.4936  -42.9395 H         1 UNK         0.0600 
    147 H147        2.0091  -24.4749  -44.3095 H         1 UNK         0.0600 
    148 H148        2.6798  -22.8740  -44.5790 H         1 UNK         0.0600 
    149 H149        1.5691  -21.0998  -43.1411 H         1 UNK         0.3000 
    150 H150       -1.1917  -18.8891  -42.4877 H         1 UNK         0.0600 
    151 H151        1.1353  -19.8309  -40.7336 H         1 UNK         0.0600 
    152 H152       -0.5647  -19.8672  -40.2794 H         1 UNK         0.0600 
    153 H153        0.2380  -18.3261  -40.5465 H         1 UNK         0.0600 
    154 H154        1.5808  -18.3533  -42.6908 H         1 UNK         0.3000 
    155 H155        1.7761  -17.9520  -46.2445 H         1 UNK         0.0600 
    156 H156        1.0123  -15.7912  -45.3359 H         1 UNK         0.0600 
    157 H157        2.7606  -15.8041  -45.4393 H         1 UNK         0.0600 
    158 H158        1.9637  -16.0089  -43.8774 H         1 UNK         0.0600 
    159 H159        3.7295  -17.7825  -44.1685 H         1 UNK         0.3000 
    160 H160        4.8307  -21.1859  -44.3115 H         1 UNK         0.0600 
    161 H161        6.0553  -18.5231  -45.2183 H         1 UNK         0.0600 
    162 H162        5.8881  -19.9622  -46.2167 H         1 UNK         0.0600 
    163 H163        6.9419  -19.9925  -44.8118 H         1 UNK         0.0600 
    164 H164        5.6792  -18.8945  -42.7973 H         1 UNK         0.3000 
    165 H165        3.6224  -19.4957  -39.9469 H         1 UNK         0.0600 
    166 H166        5.8313  -19.5341  -38.8398 H         1 UNK         0.0600 
    167 H167        6.6417  -19.7938  -40.3850 H         1 UNK         0.0600 
    168 H168        5.5842  -21.0331  -39.7202 H         1 UNK         0.0600 
    169 H169        5.5650  -17.5147  -40.3064 H         1 UNK         0.3000 
    170 H170        4.7444  -15.3206  -40.3047 H         1 UNK         0.0600 
    171 H171        5.9012  -15.7575  -42.4850 H         1 UNK         0.0600 
    172 H172        4.4222  -15.3871  -43.3632 H         1 UNK         0.0600 
    173 H173        5.2460  -14.1290  -42.4453 H         1 UNK         0.0600 
    174 H174        2.6483  -14.3259  -42.0591 H         1 UNK         0.3000 
    175 H175        0.2006  -14.3937  -41.0586 H         1 UNK         0.0600 
    176 H176        0.5625  -13.0082  -38.3531 H         1 UNK         0.0600 
    177 H177       -0.9226  -13.0400  -39.3035 H         1 UNK         0.0600 
    178 H178       -0.2780  -14.5293  -38.6354 H         1 UNK         0.0600 
    179 H179        1.2721  -11.7442  -40.3433 H         1 UNK         0.3000 
    180 H180        1.1047  -10.1479  -42.0382 H         1 UNK         0.0600 
    181 H181        3.6882  -11.3389  -43.2263 H         1 UNK         0.0600 
    182 H182        3.4872  -10.7795  -41.5697 H         1 UNK         0.0600 
    183 H183        3.4203   -9.6283  -42.8951 H         1 UNK         0.0600 
    184 H184        1.2428  -11.4809  -44.6440 H         1 UNK         0.3000 
    185 H185       -0.9276   -9.1630  -46.0389 H         1 UNK         0.0600 
    186 H186        0.5690   -9.0867  -48.0246 H         1 UNK         0.0600 
    187 H187        1.1607   -8.0087  -46.7711 H         1 UNK         0.0600 
    188 H188        1.9488   -9.5598  -47.0315 H         1 UNK         0.0600 
    189 H189        0.4328  -11.4854  -47.0580 H         1 UNK         0.3000 
    190 H190       -1.5814  -20.1183  -45.6083 H         1 UNK         0.3000 
    191 H191       -4.1987  -19.8907  -46.6941 H         1 UNK         0.0600 
    192 H192       -4.7329  -18.8211  -44.5163 H         1 UNK         0.0600 
    193 H193       -3.2081  -18.2189  -45.1484 H         1 UNK         0.0600 
    194 H194       -3.2165  -19.3925  -43.8349 H         1 UNK         0.0600 
    195 H195       -2.8896  -22.0178  -44.1022 H         1 UNK         0.3000 
    196 H196       -5.3194  -23.3505  -43.4793 H         1 UNK         0.0600 
    197 H197       -2.4159  -24.2828  -43.1752 H         1 UNK         0.0600 
    198 H198       -3.3427  -23.3682  -41.9880 H         1 UNK         0.0600 
    199 H199       -3.8090  -25.0145  -42.3881 H         1 UNK         0.0600 
    200 H200       -2.7493  -24.1243  -45.8541 H         1 UNK         0.3000 
    201 H201       -3.9679  -26.5244  -46.8707 H         1 UNK         0.0600 
    202 H202       -1.9082  -24.6217  -48.1132 H         1 UNK         0.0600 
    203 H203       -2.2683  -26.2490  -48.6768 H         1 UNK         0.0600 
    204 H204       -1.5388  -26.0136  -47.0959 H         1 UNK         0.0600 
    205 H205       -4.6846  -23.2063  -47.3177 H         1 UNK         0.3000 
    206 H206       -6.0429  -21.9741  -48.5234 H         1 UNK         0.0600 
    207 H207       -7.7705  -23.6855  -47.8822 H         1 UNK         0.0600 
    208 H208       -8.1211  -22.9068  -49.4149 H         1 UNK         0.0600 
    209 H209       -7.4717  -24.5418  -49.3946 H         1 UNK         0.0600 
    210 H210       -3.6839  -22.1554  -49.5773 H         1 UNK         0.3000 
    211 H211       -3.1684  -23.2181  -52.0443 H         1 UNK         0.0600 
    212 H212       -1.4212  -21.4011  -52.2190 H         1 UNK         0.0600 
    213 H213       -1.4600  -22.1557  -50.6332 H         1 UNK         0.0600 
    214 H214       -2.1818  -20.5645  -50.8754 H         1 UNK         0.0600 
    215 H215       -4.9120  -20.1642  -51.4872 H         1 UNK         0.3000 
    216 H216       -4.9756  -19.3332  -54.2376 H         1 UNK         0.0600 
    217 H217       -6.7294  -18.5276  -51.8576 H         1 UNK         0.0600 
    218 H218       -6.6635  -17.6937  -53.4060 H         1 UNK         0.0600 
    219 H219       -5.2422  -17.7313  -52.3748 H         1 UNK         0.0600 
    220 H220       -7.1408  -21.3334  -52.2343 H         1 UNK         0.3000 
    221 H221       -9.2758  -21.4660  -54.2248 H         1 UNK         0.0600 
    222 H222       -9.7468  -21.5880  -51.7621 H         1 UNK         0.0600 
    223 H223       -8.8364  -23.0967  -51.6684 H         1 UNK         0.0600 
    224 H224      -10.3144  -23.0164  -52.6141 H         1 UNK         0.0600 
    225 H225       -6.5386  -23.4521  -53.1387 H         1 UNK         0.3000 
    226 H226       -6.9860  -25.7102  -54.8535 H         1 UNK         0.0600 
    227 H227       -4.4208  -24.6738  -53.5279 H         1 UNK         0.0600 
    228 H228       -5.5889  -25.7547  -52.7712 H         1 UNK         0.0600 
    229 H229       -4.6672  -26.2935  -54.1673 H         1 UNK         0.0600 
    230 H230       -5.9865  -22.5518  -55.5686 H         1 UNK         0.3000 
    231 H231       -5.3011  -21.4383  -57.3242 H         1 UNK         0.0600 
    232 H232       -6.8931  -22.8637  -58.6436 H         1 UNK         0.0600 
    233 H233       -5.5726  -23.9694  -59.0243 H         1 UNK         0.0600 
    234 H234       -5.5282  -22.3105  -59.5989 H         1 UNK         0.0600 
    235 H235       -3.3966  -22.8893  -55.5797 H         1 UNK         0.3000 
    236 H236       -0.9960  -23.4478  -57.1189 H         1 UNK         0.0600 
    237 H237       -1.3917  -24.4517  -54.8686 H         1 UNK         0.0600 
    238 H238        0.0734  -23.4805  -54.8720 H         1 UNK         0.0600 
    239 H239       -1.3931  -22.8484  -54.1375 H         1 UNK         0.0600 
    240 H240       -2.5529  -20.6214  -55.7623 H         1 UNK         0.3000 
    241 H241       -0.3421  -18.7919  -56.2187 H         1 UNK         0.0600 
    242 H242       -2.1229  -19.1379  -59.7848 H         1 UNK         0.3800 
    243 H243       -2.2367  -20.3917  -58.5809 H         1 UNK         0.3800 
    244 H244       -3.2905  -18.1937  -55.6809 H         1 UNK         0.0800 
    245 H245       -2.0230  -16.9989  -55.7142 H         1 UNK         0.0800 
    246 H246       -0.7233  -16.2526  -53.6135 H         1 UNK         0.0800 
    247 H247        0.2942  -17.4993  -54.2969 H         1 UNK         0.0800 
@<TRIPOS>BOND
     1    1    2 1    
     2    1  127 1    
     3    1  128 1    
     4    1  129 1    
     5    2    3 2    
     6    2    4 am   BACKBONE|DICT|INTERRES
     7    4    5 1    
     8    4  130 1    
     9    5    6 1    
    10    5   65 1    
    11    5  131 1    
    12    6    7 1    
    13    6  132 1    
    14    6  133 1    
    15    7    8 1    
    16    8    9 1    
    17    8  134 1    
    18    8  135 1    
    19    9   10 ar   
    20    9   14 ar   
    21   10   11 ar   
    22   10  136 1    
    23   11   12 ar   
    24   11  126 1    
    25   12   13 ar   
    26   12  137 1    
    27   13   14 ar   
    28   13   15 1    
    29   14  138 1    
    30   15   16 1    
    31   15  139 1    
    32   15  140 1    
    33   16   17 1    
    34   17   18 1    
    35   17  141 1    
    36   17  142 1    
    37   18   19 1    
    38   18   67 1    
    39   18  143 1    
    40   19   20 am   BACKBONE|DICT|INTERRES
    41   19  144 1    
    42   20   21 2    
    43   20   22 1    
    44   22   23 1    
    45   22   24 1    
    46   22  145 1    
    47   23  146 1    
    48   23  147 1    
    49   23  148 1    
    50   24   25 am   BACKBONE|DICT|INTERRES
    51   24  149 1    
    52   25   26 2    
    53   25   27 1    
    54   27   28 1    
    55   27   29 1    
    56   27  150 1    
    57   28  151 1    
    58   28  152 1    
    59   28  153 1    
    60   29   30 am   BACKBONE|DICT|INTERRES
    61   29  154 1    
    62   30   31 2    
    63   30   32 1    
    64   32   33 1    
    65   32   34 1    
    66   32  155 1    
    67   33  156 1    
    68   33  157 1    
    69   33  158 1    
    70   34   35 am   BACKBONE|DICT|INTERRES
    71   34  159 1    
    72   35   36 2    
    73   35   37 1    
    74   37   38 1    
    75   37   39 1    
    76   37  160 1    
    77   38  161 1    
    78   38  162 1    
    79   38  163 1    
    80   39   40 am   BACKBONE|DICT|INTERRES
    81   39  164 1    
    82   40   41 2    
    83   40   42 1    
    84   42   43 1    
    85   42   44 1    
    86   42  165 1    
    87   43  166 1    
    88   43  167 1    
    89   43  168 1    
    90   44   45 am   BACKBONE|DICT|INTERRES
    91   44  169 1    
    92   45   46 2    
    93   45   47 1    
    94   47   48 1    
    95   47   49 1    
    96   47  170 1    
    97   48  171 1    
    98   48  172 1    
    99   48  173 1    
   100   49   50 am   BACKBONE|DICT|INTERRES
   101   49  174 1    
   102   50   51 2    
   103   50   52 1    
   104   52   53 1    
   105   52   54 1    
   106   52  175 1    
   107   53  176 1    
   108   53  177 1    
   109   53  178 1    
   110   54   55 am   BACKBONE|DICT|INTERRES
   111   54  179 1    
   112   55   56 2    
   113   55   57 1    
   114   57   58 1    
   115   57   59 1    
   116   57  180 1    
   117   58  181 1    
   118   58  182 1    
   119   58  183 1    
   120   59   60 am   BACKBONE|DICT|INTERRES
   121   59  184 1    
   122   60   61 2    
   123   60   62 1    
   124   62   63 1    
   125   62   64 1    
   126   62  185 1    
   127   63  186 1    
   128   63  187 1    
   129   63  188 1    
   130   64   65 am   BACKBONE|DICT|INTERRES
   131   64  189 1    
   132   65   66 2    
   133   67   68 2    
   134   67   69 am   BACKBONE|DICT|INTERRES
   135   69   70 1    
   136   69  190 1    
   137   70   71 1    
   138   70   72 1    
   139   70  191 1    
   140   71  192 1    
   141   71  193 1    
   142   71  194 1    
   143   72   73 2    
   144   72   74 am   BACKBONE|DICT|INTERRES
   145   74   75 1    
   146   74  195 1    
   147   75   76 1    
   148   75   77 1    
   149   75  196 1    
   150   76  197 1    
   151   76  198 1    
   152   76  199 1    
   153   77   78 2    
   154   77   79 am   BACKBONE|DICT|INTERRES
   155   79   80 1    
   156   79  200 1    
   157   80   81 1    
   158   80   82 1    
   159   80  201 1    
   160   81  202 1    
   161   81  203 1    
   162   81  204 1    
   163   82   83 2    
   164   82   84 am   BACKBONE|DICT|INTERRES
   165   84   85 1    
   166   84  205 1    
   167   85   86 1    
   168   85   87 1    
   169   85  206 1    
   170   86  207 1    
   171   86  208 1    
   172   86  209 1    
   173   87   88 2    
   174   87   89 am   BACKBONE|DICT|INTERRES
   175   89   90 1    
   176   89  210 1    
   177   90   91 1    
   178   90   92 1    
   179   90  211 1    
   180   91  212 1    
   181   91  213 1    
   182   91  214 1    
   183   92   93 2    
   184   92   94 am   BACKBONE|DICT|INTERRES
   185   94   95 1    
   186   94  215 1    
   187   95   96 1    
   188   95   97 1    
   189   95  216 1    
   190   96  217 1    
   191   96  218 1    
   192   96  219 1    
   193   97   98 2    
   194   97   99 am   BACKBONE|DICT|INTERRES
   195   99  100 1    
   196   99  220 1    
   197  100  101 1    
   198  100  102 1    
   199  100  221 1    
   200  101  222 1    
   201  101  223 1    
   202  101  224 1    
   203  102  103 2    
   204  102  104 am   BACKBONE|DICT|INTERRES
   205  104  105 1    
   206  104  225 1    
   207  105  106 1    
   208  105  107 1    
   209  105  226 1    
   210  106  227 1    
   211  106  228 1    
   212  106  229 1    
   213  107  108 2    
   214  107  109 am   BACKBONE|DICT|INTERRES
   215  109  110 1    
   216  109  230 1    
   217  110  111 1    
   218  110  112 1    
   219  110  231 1    
   220  111  232 1    
   221  111  233 1    
   222  111  234 1    
   223  112  113 2    
   224  112  114 am   BACKBONE|DICT|INTERRES
   225  114  115 1    
   226  114  235 1    
   227  115  116 1    
   228  115  117 1    
   229  115  236 1    
   230  116  237 1    
   231  116  238 1    
   232  116  239 1    
   233  117  118 2    
   234  117  119 am   BACKBONE|DICT|INTERRES
   235  119  120 1    
   236  119  240 1    
   237  120  121 1    
   238  120  124 1    
   239  120  241 1    
   240  121  122 am   BACKBONE|DICT|INTERRES
   241  121  123 2    
   242  122  242 1    
   243  122  243 1    
   244  124  125 1    
   245  124  244 1    
   246  124  245 1    
   247  125  126 1    
   248  126  246 1    
   249  126  247 1    
@<TRIPOS>SUBSTRUCTURE
     1 UNK         1 GROUP             0       ****    0 ROOT    
