@<TRIPOS>MOLECULE
3R540
247   249    1
SMALL
USER_CHARGES


@<TRIPOS>ATOM
      1 CA         -0.1057  -13.8488  -51.3762 C.3       0 UNK        -0.1800 
      2 C           1.0236  -13.5167  -50.4135 C.2       0 UNK         0.5000 
      3 O           1.2297  -12.3480  -50.0875 O.2       0 UNK        -0.5000 
      4 N           1.7564  -14.5403  -49.9553 N.am      1 UNK        -0.5000 
      5 CA          2.9085  -14.4049  -49.0538 C.3       1 UNK         0.1400 
      6 C6          3.9102  -15.5831  -49.2147 C.3       23 UNK        -0.0398 
      7 S7          3.4458  -17.1589  -48.4046 S.3       23 UNK        -0.2404 
      8 C8          3.0059  -18.2307  -49.8127 C.3       23 UNK        -0.0205 
      9 C9          1.6731  -17.8704  -50.4575 C.ar      23 UNK        -0.0193 
     10 C10         1.5581  -17.8280  -51.8497 C.ar      23 UNK        -0.1150 
     11 C11         0.3339  -17.5285  -52.4550 C.ar      23 UNK        -0.0193 
     12 C12        -0.7819  -17.2651  -51.6545 C.ar      23 UNK        -0.1150 
     13 C13        -0.6750  -17.2794  -50.2608 C.ar      23 UNK        -0.0193 
     14 C14         0.5501  -17.5975  -49.6709 C.ar      23 UNK        -0.1150 
     15 C15        -1.8647  -16.8899  -49.3978 C.3       23 UNK        -0.0205 
     16 S16        -2.7765  -18.3319  -48.7747 S.3       23 UNK        -0.2404 
     17 C17        -1.8084  -18.8281  -47.3057 C.3       23 UNK        -0.0398 
     18 CA         -1.3592  -20.3097  -47.3586 C.3       11 UNK         0.1400 
     19 N          -0.2855  -20.6085  -46.4063 N.am      11 UNK        -0.5000 
     20 C           0.3517  -21.7853  -46.3076 C.2       10 UNK         0.5000 
     21 O           0.1585  -22.7324  -47.0682 O.2       10 UNK        -0.5000 
     22 CA          1.3207  -21.9647  -45.1240 C.3       10 UNK         0.1400 
     23 CB          2.7011  -21.3750  -45.4472 C.3       10 UNK        -0.1800 
     24 N           0.7987  -21.3906  -43.8815 N.am      10 UNK        -0.5000 
     25 C          -0.3119  -21.8207  -43.2628 C.2       9 UNK         0.5000 
     26 O          -0.9661  -22.7935  -43.6379 O.2       9 UNK        -0.5000 
     27 CA         -0.8133  -20.9929  -42.0645 C.3       9 UNK         0.1400 
     28 CB         -0.0740  -21.3785  -40.7750 C.3       9 UNK        -0.1800 
     29 N          -0.6970  -19.5523  -42.2959 N.am      9 UNK        -0.5000 
     30 C          -1.3694  -18.8845  -43.2444 C.2       8 UNK         0.5000 
     31 O          -2.2197  -19.4038  -43.9673 O.2       8 UNK        -0.5000 
     32 CA         -0.9816  -17.4113  -43.4709 C.3       8 UNK         0.1400 
     33 CB         -1.6901  -16.4869  -42.4712 C.3       8 UNK        -0.1800 
     34 N           0.4660  -17.2043  -43.4008 N.am      8 UNK        -0.5000 
     35 C           1.3445  -17.7125  -44.2761 C.2       7 UNK         0.5000 
     36 O           1.0069  -18.3108  -45.2957 O.2       7 UNK        -0.5000 
     37 CA          2.8404  -17.5826  -43.9329 C.3       7 UNK         0.1400 
     38 CB          3.4466  -16.2915  -44.4911 C.3       7 UNK        -0.1800 
     39 N           3.0815  -17.6425  -42.4942 N.am      7 UNK        -0.5000 
     40 C           3.0432  -18.7693  -41.7730 C.2       6 UNK         0.5000 
     41 O           2.8321  -19.8809  -42.2572 O.2       6 UNK        -0.5000 
     42 CA          3.2330  -18.6161  -40.2524 C.3       6 UNK         0.1400 
     43 CB          4.7259  -18.5931  -39.8927 C.3       6 UNK        -0.1800 
     44 N           2.5877  -17.4104  -39.7262 N.am      6 UNK        -0.5000 
     45 C           1.2609  -17.2251  -39.6906 C.2       5 UNK         0.5000 
     46 O           0.4473  -18.0670  -40.0688 O.2       5 UNK        -0.5000 
     47 CA          0.7587  -15.8562  -39.1936 C.3       5 UNK         0.1400 
     48 CB          0.6129  -15.8610  -37.6647 C.3       5 UNK        -0.1800 
     49 N           1.5999  -14.7242  -39.5975 N.am      5 UNK        -0.5000 
     50 C           1.8621  -14.3724  -40.8630 C.2       4 UNK         0.5000 
     51 O           1.4863  -15.0163  -41.8464 O.2       4 UNK        -0.5000 
     52 CA          2.7132  -13.1110  -41.0608 C.3       4 UNK         0.1400 
     53 CB          4.2010  -13.4122  -40.8151 C.3       4 UNK        -0.1800 
     54 N           2.5414  -12.6382  -42.4301 N.am      4 UNK        -0.5000 
     55 C           2.4644  -11.3622  -42.8244 C.2       3 UNK         0.5000 
     56 O           2.5626  -10.4058  -42.0542 O.2       3 UNK        -0.5000 
     57 CA          2.2550  -11.0997  -44.3311 C.3       3 UNK         0.1400 
     58 CB          3.5232  -10.4929  -44.9523 C.3       3 UNK        -0.1800 
     59 N           1.9117  -12.3111  -45.0778 N.am      3 UNK        -0.5000 
     60 C           0.6896  -12.8363  -45.2010 C.2       2 UNK         0.5000 
     61 O          -0.3218  -12.2989  -44.7473 O.2       2 UNK        -0.5000 
     62 CA          0.5940  -14.1981  -45.9296 C.3       2 UNK         0.1400 
     63 CB         -0.8528  -14.7069  -46.0501 C.3       2 UNK        -0.1800 
     64 N           1.2129  -14.2496  -47.2594 N.am      2 UNK        -0.5000 
     65 C           2.5134  -14.1507  -47.5782 C.2       1 UNK         0.5000 
     66 O           3.3986  -13.8933  -46.7613 O.2       1 UNK        -0.5000 
     67 C          -2.5608  -21.2578  -47.1685 C.2       11 UNK         0.5000 
     68 O          -3.0234  -21.8551  -48.1395 O.2       11 UNK        -0.5000 
     69 N          -3.0300  -21.4069  -45.9227 N.am      12 UNK        -0.5000 
     70 CA         -4.1319  -22.3000  -45.5613 C.3       12 UNK         0.1400 
     71 CB         -4.4758  -22.1148  -44.0763 C.3       12 UNK        -0.1800 
     72 C          -3.8432  -23.7795  -45.8825 C.2       12 UNK         0.5000 
     73 O          -4.7385  -24.4824  -46.3514 O.2       12 UNK        -0.5000 
     74 N          -2.5993  -24.2122  -45.6433 N.am      13 UNK        -0.5000 
     75 CA         -2.1286  -25.5693  -45.8973 C.3       13 UNK         0.1400 
     76 CB         -0.8529  -25.8255  -45.0775 C.3       13 UNK        -0.1800 
     77 C          -1.8932  -25.8597  -47.3913 C.2       13 UNK         0.5000 
     78 O          -2.5063  -26.7805  -47.9326 O.2       13 UNK        -0.5000 
     79 N          -0.9775  -25.1099  -48.0186 N.am      14 UNK        -0.5000 
     80 CA         -0.4233  -25.4327  -49.3348 C.3       14 UNK         0.1400 
     81 CB          1.0488  -24.9937  -49.3843 C.3       14 UNK        -0.1800 
     82 C          -1.2051  -24.7987  -50.4937 C.2       14 UNK         0.5000 
     83 O          -1.3793  -25.4465  -51.5262 O.2       14 UNK        -0.5000 
     84 N          -1.6560  -23.5508  -50.3147 N.am      15 UNK        -0.5000 
     85 CA         -2.3899  -22.7931  -51.3324 C.3       15 UNK         0.1400 
     86 CB         -1.9862  -21.3126  -51.2525 C.3       15 UNK        -0.1800 
     87 C          -3.9162  -22.9497  -51.2043 C.2       15 UNK         0.5000 
     88 O          -4.6446  -22.3781  -52.0176 O.2       15 UNK        -0.5000 
     89 N          -4.3733  -23.6777  -50.1739 N.am      16 UNK        -0.5000 
     90 CA         -5.7720  -23.8883  -49.7867 C.3       16 UNK         0.1400 
     91 CB         -6.4977  -24.7522  -50.8392 C.3       16 UNK        -0.1800 
     92 C          -6.5026  -22.5654  -49.4649 C.2       16 UNK         0.5000 
     93 O          -7.6814  -22.4159  -49.7855 O.2       16 UNK        -0.5000 
     94 N          -5.7665  -21.6242  -48.8534 N.am      17 UNK        -0.5000 
     95 CA         -6.1433  -20.2332  -48.5814 C.3       17 UNK         0.1400 
     96 CB         -7.3506  -20.1469  -47.6242 C.3       17 UNK        -0.1800 
     97 C          -6.3183  -19.4174  -49.8811 C.2       17 UNK         0.5000 
     98 O          -7.2477  -18.6161  -49.9914 O.2       17 UNK        -0.5000 
     99 N          -5.4035  -19.6513  -50.8352 N.am      18 UNK        -0.5000 
    100 CA        -5.3342  -19.0757  -52.1817 C.3       18 UNK         0.1400 
    101 CB        -5.0557  -17.5599  -52.1249 C.3       18 UNK        -0.1800 
    102 C         -6.5642  -19.4495  -53.0317 C.2       18 UNK         0.5000 
    103 O         -7.2295  -18.5756  -53.5922 O.2       18 UNK        -0.5000 
    104 N         -6.8478  -20.7554  -53.0920 N.am      19 UNK        -0.5000 
    105 CA        -7.9425  -21.3410  -53.8560 C.3       19 UNK         0.1400 
    106 CB        -8.8737  -22.1125  -52.9064 C.3       19 UNK        -0.1800 
    107 C         -7.3379  -22.2409  -54.9405 C.2       19 UNK         0.5000 
    108 O         -7.0925  -23.4237  -54.6975 O.2       19 UNK        -0.5000 
    109 N         -7.0652  -21.6413  -56.1073 N.am      20 UNK        -0.5000 
    110 CA        -6.5498  -22.2273  -57.3552 C.3       20 UNK         0.1400 
    111 CB        -7.4897  -23.3253  -57.8890 C.3       20 UNK        -0.1800 
    112 C         -5.0917  -22.7272  -57.3019 C.2       20 UNK         0.5000 
    113 O         -4.3699  -22.5678  -58.2869 O.2       20 UNK        -0.5000 
    114 N         -4.6695  -23.2982  -56.1673 N.am      21 UNK        -0.5000 
    115 CA        -3.3055  -23.7695  -55.9120 C.3       21 UNK         0.1400 
    116 CB        -3.3125  -24.6727  -54.6706 C.3       21 UNK        -0.1800 
    117 C         -2.2766  -22.6269  -55.7773 C.2       21 UNK         0.5000 
    118 O         -1.0855  -22.8573  -55.9871 O.2       21 UNK        -0.5000 
    119 N         -2.7536  -21.4155  -55.4742 N.am      22 UNK        -0.5000 
    120 CA        -2.0147  -20.1534  -55.5604 C.3       22 UNK         0.1400 
    121 C         -3.0060  -18.9814  -55.7848 C.2       22 UNK         0.5000 
    122 N         -2.5431  -17.8609  -56.3193 N.am      22 UNK        -0.7600 
    123 O         -4.1909  -19.0760  -55.4704 O.2       22 UNK        -0.5000 
    124 C124       -1.0791  -19.9201  -54.3437 C.3       23 UNK        -0.0398 
    125 S125        0.4584  -19.0484  -54.7907 S.3       23 UNK        -0.2404 
    126 C126        0.2323  -17.4370  -53.9716 C.3       23 UNK        -0.0205 
    127 H127       -0.4084  -12.9625  -51.9340 H         1 UNK         0.0600 
    128 H128       -0.9727  -14.2216  -50.8314 H         1 UNK         0.0600 
    129 H129        0.2086  -14.6039  -52.0960 H         1 UNK         0.0600 
    130 H130        1.5340  -15.4850  -50.2424 H         1 UNK         0.3000 
    131 H131        3.4486  -13.5079  -49.3650 H         1 UNK         0.0600 
    132 H132        4.1081  -15.7610  -50.2725 H         1 UNK         0.0800 
    133 H133        4.8723  -15.2878  -48.7930 H         1 UNK         0.0800 
    134 H134        2.9420  -19.2592  -49.4552 H         1 UNK         0.0800 
    135 H135        3.8150  -18.2095  -50.5443 H         1 UNK         0.0800 
    136 H136        2.4205  -18.0318  -52.4691 H         1 UNK         0.1150 
    137 H137       -1.7262  -17.0138  -52.1164 H         1 UNK         0.1150 
    138 H138        0.6431  -17.6130  -48.5954 H         1 UNK         0.1150 
    139 H139       -1.5401  -16.2636  -48.5680 H         1 UNK         0.0800 
    140 H140       -2.5538  -16.2742  -49.9772 H         1 UNK         0.0800 
    141 H141       -2.4137  -18.6278  -46.4216 H         1 UNK         0.0800 
    142 H142       -0.9405  -18.1796  -47.2075 H         1 UNK         0.0800 
    143 H143       -0.9408  -20.4982  -48.3491 H         1 UNK         0.0600 
    144 H144       -0.0038  -19.8549  -45.7859 H         1 UNK         0.3000 
    145 H145        1.4469  -23.0368  -44.9598 H         1 UNK         0.0600 
    146 H146        3.3882  -21.4904  -44.6087 H         1 UNK         0.0600 
    147 H147        3.1452  -21.8817  -46.3047 H         1 UNK         0.0600 
    148 H148        2.6446  -20.3157  -45.6932 H         1 UNK         0.0600 
    149 H149        1.3205  -20.6234  -43.4733 H         1 UNK         0.3000 
    150 H150       -1.8718  -21.2218  -41.9252 H         1 UNK         0.0600 
    151 H151       -0.1836  -22.4435  -40.5674 H         1 UNK         0.0600 
    152 H152       -0.4715  -20.8365  -39.9167 H         1 UNK         0.0600 
    153 H153        0.9925  -21.1653  -40.8388 H         1 UNK         0.0600 
    154 H154       -0.0670  -19.0392  -41.6868 H         1 UNK         0.3000 
    155 H155       -1.3117  -17.1388  -44.4743 H         1 UNK         0.0600 
    156 H156       -1.4520  -16.7474  -41.4408 H         1 UNK         0.0600 
    157 H157       -2.7729  -16.5537  -42.5825 H         1 UNK         0.0600 
    158 H158       -1.4089  -15.4450  -42.6269 H         1 UNK         0.0600 
    159 H159        0.8164  -16.6500  -42.6256 H         1 UNK         0.3000 
    160 H160        3.3589  -18.4187  -44.4061 H         1 UNK         0.0600 
    161 H161        3.0181  -15.4020  -44.0312 H         1 UNK         0.0600 
    162 H162        3.2796  -16.2299  -45.5649 H         1 UNK         0.0600 
    163 H163        4.5244  -16.2615  -44.3316 H         1 UNK         0.0600 
    164 H164        3.2010  -16.7620  -42.0156 H         1 UNK         0.3000 
    165 H165        2.7786  -19.4850  -39.7714 H         1 UNK         0.0600 
    166 H166        4.8704  -18.5601  -38.8126 H         1 UNK         0.0600 
    167 H167        5.2290  -19.4888  -40.2596 H         1 UNK         0.0600 
    168 H168        5.2332  -17.7304  -40.3263 H         1 UNK         0.0600 
    169 H169        3.1897  -16.6710  -39.3951 H         1 UNK         0.3000 
    170 H170       -0.2309  -15.6964  -39.6255 H         1 UNK         0.0600 
    171 H171       -0.0264  -16.6815  -37.3357 H         1 UNK         0.0600 
    172 H172        1.5771  -15.9765  -37.1679 H         1 UNK         0.0600 
    173 H173        0.1595  -14.9359  -37.3084 H         1 UNK         0.0600 
    174 H174        1.9609  -14.1499  -38.8492 H         1 UNK         0.3000 
    175 H175        2.3681  -12.3531  -40.3545 H         1 UNK         0.0600 
    176 H176        4.5737  -14.1795  -41.4952 H         1 UNK         0.0600 
    177 H177        4.8102  -12.5190  -40.9550 H         1 UNK         0.0600 
    178 H178        4.3710  -13.7627  -39.7965 H         1 UNK         0.0600 
    179 H179        2.3707  -13.3677  -43.1079 H         1 UNK         0.3000 
    180 H180        1.4445  -10.3747  -44.4302 H         1 UNK         0.0600 
    181 H181        4.3710  -11.1756  -44.8812 H         1 UNK         0.0600 
    182 H182        3.8030   -9.5664  -44.4491 H         1 UNK         0.0600 
    183 H183        3.3712  -10.2564  -46.0056 H         1 UNK         0.0600 
    184 H184        2.6784  -12.8051  -45.5320 H         1 UNK         0.3000 
    185 H185        1.1232  -14.9088  -45.2975 H         1 UNK         0.0600 
    186 H186       -1.3593  -14.6961  -45.0844 H         1 UNK         0.0600 
    187 H187       -1.4396  -14.0956  -46.7365 H         1 UNK         0.0600 
    188 H188       -0.8732  -15.7358  -46.4068 H         1 UNK         0.0600 
    189 H189        0.5801  -14.4219  -48.0254 H         1 UNK         0.3000 
    190 H190       -2.6214  -20.8547  -45.1732 H         1 UNK         0.3000 
    191 H191       -5.0039  -22.0010  -46.1450 H         1 UNK         0.0600 
    192 H192       -3.6404  -22.3871  -43.4313 H         1 UNK         0.0600 
    193 H193       -5.3260  -22.7361  -43.7924 H         1 UNK         0.0600 
    194 H194       -4.7414  -21.0799  -43.8596 H         1 UNK         0.0600 
    195 H195       -1.9412  -23.5759  -45.2042 H         1 UNK         0.3000 
    196 H196       -2.8913  -26.2661  -45.5428 H         1 UNK         0.0600 
    197 H197       -0.4702  -26.8320  -45.2513 H         1 UNK         0.0600 
    198 H198       -1.0487  -25.7319  -44.0091 H         1 UNK         0.0600 
    199 H199       -0.0589  -25.1222  -45.3307 H         1 UNK         0.0600 
    200 H200       -0.5541  -24.3205  -47.5329 H         1 UNK         0.3000 
    201 H201       -0.4444  -26.5157  -49.4760 H         1 UNK         0.0600 
    202 H202        1.6273  -25.4625  -48.5881 H         1 UNK         0.0600 
    203 H203        1.1535  -23.9130  -49.2824 H         1 UNK         0.0600 
    204 H204        1.5086  -25.2783  -50.3316 H         1 UNK         0.0600 
    205 H205       -1.5201  -23.0971  -49.4203 H         1 UNK         0.3000 
    206 H206       -2.1140  -23.1483  -52.3269 H         1 UNK         0.0600 
    207 H207       -0.9159  -21.1808  -51.4120 H         1 UNK         0.0600 
    208 H208       -2.5071  -20.7336  -52.0119 H         1 UNK         0.0600 
    209 H209       -2.2374  -20.8644  -50.2957 H         1 UNK         0.0600 
    210 H210       -3.6830  -24.0595  -49.5431 H         1 UNK         0.3000 
    211 H211       -5.7536  -24.4553  -48.8557 H         1 UNK         0.0600 
    212 H212       -6.5399  -24.2607  -51.8110 H         1 UNK         0.0600 
    213 H213       -7.5221  -24.9691  -50.5347 H         1 UNK         0.0600 
    214 H214       -5.9921  -25.7081  -50.9747 H         1 UNK         0.0600 
    215 H215       -4.7958  -21.8524  -48.6462 H         1 UNK         0.3000 
    216 H216       -5.2940  -19.7913  -48.0599 H         1 UNK         0.0600 
    217 H217       -7.5175  -19.1180  -47.3040 H         1 UNK         0.0600 
    218 H218       -7.1868  -20.7428  -46.7265 H         1 UNK         0.0600 
    219 H219       -8.2713  -20.4926  -48.0944 H         1 UNK         0.0600 
    220 H220       -4.7231  -20.3727  -50.6479 H         1 UNK         0.3000 
    221 H221       -4.4780  -19.5412  -52.6710 H         1 UNK         0.0600 
    222 H222       -5.8862  -17.0078  -51.6848 H         1 UNK         0.0600 
    223 H223       -4.1630  -17.3478  -51.5380 H         1 UNK         0.0600 
    224 H224       -4.8891  -17.1601  -53.1259 H         1 UNK         0.0600 
    225 H225       -6.2148  -21.4120  -52.6409 H         1 UNK         0.3000 
    226 H226       -8.5400  -20.5700  -54.3468 H         1 UNK         0.0600 
    227 H227       -9.2960  -21.4516  -52.1491 H         1 UNK         0.0600 
    228 H228       -9.7051  -22.5582  -53.4533 H         1 UNK         0.0600 
    229 H229       -8.3535  -22.9170  -52.3885 H         1 UNK         0.0600 
    230 H230       -7.2377  -20.6463  -56.1590 H         1 UNK         0.3000 
    231 H231       -6.5636  -21.4120  -58.0804 H         1 UNK         0.0600 
    232 H232       -8.5084  -22.9536  -57.9993 H         1 UNK         0.0600 
    233 H233       -7.5181  -24.1944  -57.2313 H         1 UNK         0.0600 
    234 H234       -7.1630  -23.6726  -58.8700 H         1 UNK         0.0600 
    235 H235       -5.3543  -23.4253  -55.4264 H         1 UNK         0.3000 
    236 H236       -2.9928  -24.3763  -56.7644 H         1 UNK         0.0600 
    237 H237       -2.3019  -24.9698  -54.3866 H         1 UNK         0.0600 
    238 H238       -3.7651  -24.1733  -53.8167 H         1 UNK         0.0600 
    239 H239       -3.8795  -25.5852  -54.8552 H         1 UNK         0.0600 
    240 H240       -3.7499  -21.3018  -55.3410 H         1 UNK         0.3000 
    241 H241       -1.4108  -20.2204  -56.4679 H         1 UNK         0.0600 
    242 H242       -3.1791  -17.0939  -56.4715 H         1 UNK         0.3800 
    243 H243       -1.5767  -17.7663  -56.5904 H         1 UNK         0.3800 
    244 H244       -1.5936  -19.3857  -53.5450 H         1 UNK         0.0800 
    245 H245       -0.7703  -20.8739  -53.9151 H         1 UNK         0.0800 
    246 H246        1.0001  -16.7516  -54.3329 H         1 UNK         0.0800 
    247 H247       -0.7235  -17.0055  -54.2717 H         1 UNK         0.0800 
@<TRIPOS>BOND
     1    1    2 1    
     2    1  127 1    
     3    1  128 1    
     4    1  129 1    
     5    2    3 2    
     6    2    4 am   BACKBONE|DICT|INTERRES
     7    4    5 1    
     8    4  130 1    
     9    5    6 1    
    10    5   65 1    
    11    5  131 1    
    12    6    7 1    
    13    6  132 1    
    14    6  133 1    
    15    7    8 1    
    16    8    9 1    
    17    8  134 1    
    18    8  135 1    
    19    9   10 ar   
    20    9   14 ar   
    21   10   11 ar   
    22   10  136 1    
    23   11   12 ar   
    24   11  126 1    
    25   12   13 ar   
    26   12  137 1    
    27   13   14 ar   
    28   13   15 1    
    29   14  138 1    
    30   15   16 1    
    31   15  139 1    
    32   15  140 1    
    33   16   17 1    
    34   17   18 1    
    35   17  141 1    
    36   17  142 1    
    37   18   19 1    
    38   18   67 1    
    39   18  143 1    
    40   19   20 am   BACKBONE|DICT|INTERRES
    41   19  144 1    
    42   20   21 2    
    43   20   22 1    
    44   22   23 1    
    45   22   24 1    
    46   22  145 1    
    47   23  146 1    
    48   23  147 1    
    49   23  148 1    
    50   24   25 am   BACKBONE|DICT|INTERRES
    51   24  149 1    
    52   25   26 2    
    53   25   27 1    
    54   27   28 1    
    55   27   29 1    
    56   27  150 1    
    57   28  151 1    
    58   28  152 1    
    59   28  153 1    
    60   29   30 am   BACKBONE|DICT|INTERRES
    61   29  154 1    
    62   30   31 2    
    63   30   32 1    
    64   32   33 1    
    65   32   34 1    
    66   32  155 1    
    67   33  156 1    
    68   33  157 1    
    69   33  158 1    
    70   34   35 am   BACKBONE|DICT|INTERRES
    71   34  159 1    
    72   35   36 2    
    73   35   37 1    
    74   37   38 1    
    75   37   39 1    
    76   37  160 1    
    77   38  161 1    
    78   38  162 1    
    79   38  163 1    
    80   39   40 am   BACKBONE|DICT|INTERRES
    81   39  164 1    
    82   40   41 2    
    83   40   42 1    
    84   42   43 1    
    85   42   44 1    
    86   42  165 1    
    87   43  166 1    
    88   43  167 1    
    89   43  168 1    
    90   44   45 am   BACKBONE|DICT|INTERRES
    91   44  169 1    
    92   45   46 2    
    93   45   47 1    
    94   47   48 1    
    95   47   49 1    
    96   47  170 1    
    97   48  171 1    
    98   48  172 1    
    99   48  173 1    
   100   49   50 am   BACKBONE|DICT|INTERRES
   101   49  174 1    
   102   50   51 2    
   103   50   52 1    
   104   52   53 1    
   105   52   54 1    
   106   52  175 1    
   107   53  176 1    
   108   53  177 1    
   109   53  178 1    
   110   54   55 am   BACKBONE|DICT|INTERRES
   111   54  179 1    
   112   55   56 2    
   113   55   57 1    
   114   57   58 1    
   115   57   59 1    
   116   57  180 1    
   117   58  181 1    
   118   58  182 1    
   119   58  183 1    
   120   59   60 am   BACKBONE|DICT|INTERRES
   121   59  184 1    
   122   60   61 2    
   123   60   62 1    
   124   62   63 1    
   125   62   64 1    
   126   62  185 1    
   127   63  186 1    
   128   63  187 1    
   129   63  188 1    
   130   64   65 am   BACKBONE|DICT|INTERRES
   131   64  189 1    
   132   65   66 2    
   133   67   68 2    
   134   67   69 am   BACKBONE|DICT|INTERRES
   135   69   70 1    
   136   69  190 1    
   137   70   71 1    
   138   70   72 1    
   139   70  191 1    
   140   71  192 1    
   141   71  193 1    
   142   71  194 1    
   143   72   73 2    
   144   72   74 am   BACKBONE|DICT|INTERRES
   145   74   75 1    
   146   74  195 1    
   147   75   76 1    
   148   75   77 1    
   149   75  196 1    
   150   76  197 1    
   151   76  198 1    
   152   76  199 1    
   153   77   78 2    
   154   77   79 am   BACKBONE|DICT|INTERRES
   155   79   80 1    
   156   79  200 1    
   157   80   81 1    
   158   80   82 1    
   159   80  201 1    
   160   81  202 1    
   161   81  203 1    
   162   81  204 1    
   163   82   83 2    
   164   82   84 am   BACKBONE|DICT|INTERRES
   165   84   85 1    
   166   84  205 1    
   167   85   86 1    
   168   85   87 1    
   169   85  206 1    
   170   86  207 1    
   171   86  208 1    
   172   86  209 1    
   173   87   88 2    
   174   87   89 am   BACKBONE|DICT|INTERRES
   175   89   90 1    
   176   89  210 1    
   177   90   91 1    
   178   90   92 1    
   179   90  211 1    
   180   91  212 1    
   181   91  213 1    
   182   91  214 1    
   183   92   93 2    
   184   92   94 am   BACKBONE|DICT|INTERRES
   185   94   95 1    
   186   94  215 1    
   187   95   96 1    
   188   95   97 1    
   189   95  216 1    
   190   96  217 1    
   191   96  218 1    
   192   96  219 1    
   193   97   98 2    
   194   97   99 am   BACKBONE|DICT|INTERRES
   195   99  100 1    
   196   99  220 1    
   197  100  101 1    
   198  100  102 1    
   199  100  221 1    
   200  101  222 1    
   201  101  223 1    
   202  101  224 1    
   203  102  103 2    
   204  102  104 am   BACKBONE|DICT|INTERRES
   205  104  105 1    
   206  104  225 1    
   207  105  106 1    
   208  105  107 1    
   209  105  226 1    
   210  106  227 1    
   211  106  228 1    
   212  106  229 1    
   213  107  108 2    
   214  107  109 am   BACKBONE|DICT|INTERRES
   215  109  110 1    
   216  109  230 1    
   217  110  111 1    
   218  110  112 1    
   219  110  231 1    
   220  111  232 1    
   221  111  233 1    
   222  111  234 1    
   223  112  113 2    
   224  112  114 am   BACKBONE|DICT|INTERRES
   225  114  115 1    
   226  114  235 1    
   227  115  116 1    
   228  115  117 1    
   229  115  236 1    
   230  116  237 1    
   231  116  238 1    
   232  116  239 1    
   233  117  118 2    
   234  117  119 am   BACKBONE|DICT|INTERRES
   235  119  120 1    
   236  119  240 1    
   237  120  121 1    
   238  120  124 1    
   239  120  241 1    
   240  121  122 am   BACKBONE|DICT|INTERRES
   241  121  123 2    
   242  122  242 1    
   243  122  243 1    
   244  124  125 1    
   245  124  244 1    
   246  124  245 1    
   247  125  126 1    
   248  126  246 1    
   249  126  247 1    
@<TRIPOS>SUBSTRUCTURE
     1 UNK         1 GROUP             0       ****    0 ROOT    
