@<TRIPOS>MOLECULE
3R540
247   249    1
SMALL
USER_CHARGES


@<TRIPOS>ATOM
      1 CA          1.1995  -11.9210  -47.6125 C.3       0 UNK        -0.1800 
      2 C           0.4946  -12.1774  -46.2897 C.2       0 UNK         0.5000 
      3 O           1.0955  -12.0075  -45.2294 O.2       0 UNK        -0.5000 
      4 N          -0.7844  -12.5716  -46.3391 N.am      1 UNK        -0.5000 
      5 CA         -1.6132  -12.9401  -45.1797 C.3       1 UNK         0.1400 
      6 C6         -2.9358  -13.6185  -45.6094 C.3       23 UNK        -0.0398 
      7 S7         -2.6393  -15.2737  -46.3127 S.3       23 UNK        -0.2404 
      8 C8         -2.9102  -14.9913  -48.0882 C.3       23 UNK        -0.0205 
      9 C9         -2.6779  -16.2571  -48.9022 C.ar      23 UNK        -0.0193 
     10 C10        -3.7557  -16.9478  -49.4679 C.ar      23 UNK        -0.1150 
     11 C11        -3.5329  -18.0725  -50.2691 C.ar      23 UNK        -0.0193 
     12 C12        -2.2275  -18.5206  -50.4790 C.ar      23 UNK        -0.1150 
     13 C13        -1.1458  -17.8544  -49.9046 C.ar      23 UNK        -0.0193 
     14 C14        -1.3759  -16.7191  -49.1222 C.ar      23 UNK        -0.1150 
     15 C15         0.2704  -18.3407  -50.1627 C.3       23 UNK        -0.0205 
     16 S16         0.8555  -19.4732  -48.8667 S.3       23 UNK        -0.2404 
     17 C17         0.0745  -21.0686  -49.2893 C.3       23 UNK        -0.0398 
     18 CA         -0.7125  -21.7455  -48.1343 C.3       11 UNK         0.1400 
     19 N          -0.0427  -21.6554  -46.8293 N.am      11 UNK        -0.5000 
     20 C          -0.2904  -22.4782  -45.8008 C.2       10 UNK         0.5000 
     21 O          -1.1057  -23.3987  -45.8508 O.2       10 UNK        -0.5000 
     22 CA          0.4718  -22.2158  -44.4886 C.3       10 UNK         0.1400 
     23 CB          1.9441  -22.6355  -44.6142 C.3       10 UNK        -0.1800 
     24 N           0.3957  -20.8251  -44.0420 N.am      10 UNK        -0.5000 
     25 C          -0.7370  -20.1841  -43.7203 C.2       9 UNK         0.5000 
     26 O          -1.8502  -20.7018  -43.7657 O.2       9 UNK        -0.5000 
     27 CA         -0.6186  -18.7045  -43.3125 C.3       9 UNK         0.1400 
     28 CB         -0.3470  -18.5703  -41.8077 C.3       9 UNK        -0.1800 
     29 N           0.4091  -17.9912  -44.0688 N.am      9 UNK        -0.5000 
     30 C           0.3616  -17.7943  -45.3942 C.2       8 UNK         0.5000 
     31 O          -0.5702  -18.1723  -46.1028 O.2       8 UNK        -0.5000 
     32 CA          1.5779  -17.1005  -46.0302 C.3       8 UNK         0.1400 
     33 CB          1.3734  -15.5816  -46.1031 C.3       8 UNK        -0.1800 
     34 N           2.8171  -17.4103  -45.3114 N.am      8 UNK        -0.5000 
     35 C           3.4750  -18.5704  -45.4567 C.2       7 UNK         0.5000 
     36 O           3.1121  -19.4724  -46.2113 O.2       7 UNK        -0.5000 
     37 CA          4.7393  -18.7757  -44.6053 C.3       7 UNK         0.1400 
     38 CB          5.9129  -17.9584  -45.1669 C.3       7 UNK        -0.1800 
     39 N           4.5640  -18.4515  -43.1917 N.am      7 UNK        -0.5000 
     40 C           3.6970  -19.0187  -42.3452 C.2       6 UNK         0.5000 
     41 O           2.8709  -19.8645  -42.6868 O.2       6 UNK        -0.5000 
     42 CA          3.7428  -18.5607  -40.8699 C.3       6 UNK         0.1400 
     43 CB          4.7888  -19.3617  -40.0723 C.3       6 UNK        -0.1800 
     44 N           3.9144  -17.1113  -40.6891 N.am      6 UNK        -0.5000 
     45 C           4.9573  -16.3326  -41.0163 C.2       5 UNK         0.5000 
     46 O           6.0336  -16.7722  -41.4248 O.2       5 UNK        -0.5000 
     47 CA          4.7317  -14.8050  -40.9371 C.3       5 UNK         0.1400 
     48 CB          5.6500  -14.0315  -41.9056 C.3       5 UNK        -0.1800 
     49 N           3.3397  -14.3804  -41.1457 N.am      5 UNK        -0.5000 
     50 C           2.5291  -14.6843  -42.1707 C.2       4 UNK         0.5000 
     51 O           2.8153  -15.4738  -43.0725 O.2       4 UNK        -0.5000 
     52 CA          1.1644  -13.9775  -42.1934 C.3       4 UNK         0.1400 
     53 CB          0.3186  -14.2691  -40.9380 C.3       4 UNK        -0.1800 
     54 N           1.2911  -12.5427  -42.4566 N.am      4 UNK        -0.5000 
     55 C           1.7966  -11.5792  -41.6714 C.2       3 UNK         0.5000 
     56 O           2.2167  -11.7659  -40.5285 O.2       3 UNK        -0.5000 
     57 CA          1.8369  -10.1625  -42.2705 C.3       3 UNK         0.1400 
     58 CB          3.1290   -9.9626  -43.0782 C.3       3 UNK        -0.1800 
     59 N           0.6840   -9.9245  -43.1404 N.am      3 UNK        -0.5000 
     60 C          -0.4632   -9.3524  -42.7475 C.2       2 UNK         0.5000 
     61 O          -0.6376   -8.8615  -41.6315 O.2       2 UNK        -0.5000 
     62 CA         -1.6221   -9.3427  -43.7669 C.3       2 UNK         0.1400 
     63 CB         -1.5569   -8.0854  -44.6472 C.3       2 UNK        -0.1800 
     64 N          -1.6305  -10.5296  -44.6246 N.am      2 UNK        -0.5000 
     65 C          -1.8762  -11.7765  -44.1959 C.2       1 UNK         0.5000 
     66 O          -2.2606  -12.0348  -43.0551 O.2       1 UNK        -0.5000 
     67 C          -2.1971  -21.3266  -48.0727 C.2       11 UNK         0.5000 
     68 O          -3.0079  -21.8835  -48.8173 O.2       11 UNK        -0.5000 
     69 N          -2.5472  -20.4157  -47.1535 N.am      12 UNK        -0.5000 
     70 CA         -3.9329  -20.0692  -46.8414 C.3       12 UNK         0.1400 
     71 CB         -3.9727  -18.7927  -45.9947 C.3       12 UNK        -0.1800 
     72 C          -4.6779  -21.2222  -46.1429 C.2       12 UNK         0.5000 
     73 O          -5.7834  -21.5659  -46.5609 O.2       12 UNK        -0.5000 
     74 N          -4.0507  -21.8310  -45.1247 N.am      13 UNK        -0.5000 
     75 CA         -4.5745  -22.9789  -44.3751 C.3       13 UNK         0.1400 
     76 CB         -3.6713  -23.2640  -43.1660 C.3       13 UNK        -0.1800 
     77 C          -4.7374  -24.2454  -45.2354 C.2       13 UNK         0.5000 
     78 O          -5.6692  -25.0181  -45.0104 O.2       13 UNK        -0.5000 
     79 N          -3.8624  -24.4072  -46.2369 N.am      14 UNK        -0.5000 
     80 CA         -3.9419  -25.4380  -47.2737 C.3       14 UNK         0.1400 
     81 CB         -2.5754  -25.5471  -47.9693 C.3       14 UNK        -0.1800 
     82 C          -5.0552  -25.1892  -48.3149 C.2       14 UNK         0.5000 
     83 O          -5.2215  -26.0152  -49.2132 O.2       14 UNK        -0.5000 
     84 N          -5.7730  -24.0587  -48.2091 N.am      15 UNK        -0.5000 
     85 CA         -6.8460  -23.5978  -49.0947 C.3       15 UNK         0.1400 
     86 CB         -8.0799  -24.5179  -48.9853 C.3       15 UNK        -0.1800 
     87 C          -6.3525  -23.4043  -50.5407 C.2       15 UNK         0.5000 
     88 O          -7.0166  -23.8324  -51.4853 O.2       15 UNK        -0.5000 
     89 N          -5.1622  -22.7969  -50.6660 N.am      16 UNK        -0.5000 
     90 CA         -4.3895  -22.5573  -51.8891 C.3       16 UNK         0.1400 
     91 CB         -5.2450  -21.8737  -52.9773 C.3       16 UNK        -0.1800 
     92 C          -3.6577  -23.8022  -52.4293 C.2       16 UNK         0.5000 
     93 O          -2.8713  -23.6595  -53.3677 O.2       16 UNK        -0.5000 
     94 N          -3.8922  -24.9787  -51.8277 N.am      17 UNK        -0.5000 
     95 CA         -3.3302  -26.2868  -52.1765 C.3       17 UNK         0.1400 
     96 CB         -1.8079  -26.2937  -51.9088 C.3       17 UNK        -0.1800 
     97 C          -3.6819  -26.7371  -53.6137 C.2       17 UNK         0.5000 
     98 O          -4.5461  -26.1465  -54.2666 O.2       17 UNK        -0.5000 
     99 N          -2.9942  -27.7807  -54.0963 N.am      18 UNK        -0.5000 
    100 CA        -3.0881  -28.2664  -55.4776 C.3       18 UNK         0.1400 
    101 CB        -2.4260  -29.6501  -55.5656 C.3       18 UNK        -0.1800 
    102 C         -2.4550  -27.2979  -56.4995 C.2       18 UNK         0.5000 
    103 O         -2.7924  -27.3544  -57.6823 O.2       18 UNK        -0.5000 
    104 N         -1.5536  -26.4275  -56.0229 N.am      19 UNK        -0.5000 
    105 CA        -0.8717  -25.3962  -56.8037 C.3       19 UNK         0.1400 
    106 CB         0.3273  -24.8841  -55.9894 C.3       19 UNK        -0.1800 
    107 C         -1.7800  -24.2159  -57.2006 C.2       19 UNK         0.5000 
    108 O         -1.4462  -23.5066  -58.1504 O.2       19 UNK        -0.5000 
    109 N         -2.8829  -24.0138  -56.4606 N.am      20 UNK        -0.5000 
    110 CA        -3.8129  -22.8821  -56.5500 C.3       20 UNK         0.1400 
    111 CB        -4.5841  -22.8967  -57.8857 C.3       20 UNK        -0.1800 
    112 C         -3.1006  -21.5420  -56.2666 C.2       20 UNK         0.5000 
    113 O         -3.2274  -20.5865  -57.0347 O.2       20 UNK        -0.5000 
    114 N         -2.3562  -21.5163  -55.1522 N.am      21 UNK        -0.5000 
    115 CA        -1.4288  -20.4679  -54.7149 C.3       21 UNK         0.1400 
    116 CB        -0.7646  -20.9280  -53.4078 C.3       21 UNK        -0.1800 
    117 C         -2.0112  -19.0454  -54.5618 C.2       21 UNK         0.5000 
    118 O         -1.2365  -18.0879  -54.5553 O.2       21 UNK        -0.5000 
    119 N         -3.3396  -18.9174  -54.4695 N.am      22 UNK        -0.5000 
    120 CA        -4.0651  -17.6406  -54.5540 C.3       22 UNK         0.1400 
    121 C         -5.2975  -17.7016  -55.5035 C.2       22 UNK         0.5000 
    122 N         -5.3695  -18.6567  -56.4250 N.am      22 UNK        -0.7600 
    123 O         -6.1885  -16.8595  -55.4332 O.2       22 UNK        -0.5000 
    124 C124       -4.3262  -16.9982  -53.1642 C.3       23 UNK        -0.0398 
    125 S125       -5.6168  -17.7908  -52.1313 S.3       23 UNK        -0.2404 
    126 C126       -4.6854  -18.8063  -50.9368 C.3       23 UNK        -0.0205 
    127 H127        0.5486  -12.1195  -48.4642 H         1 UNK         0.0600 
    128 H128        2.0763  -12.5628  -47.6974 H         1 UNK         0.0600 
    129 H129        1.5282  -10.8833  -47.6669 H         1 UNK         0.0600 
    130 H130       -1.2284  -12.6751  -47.2393 H         1 UNK         0.3000 
    131 H131       -1.0413  -13.6734  -44.6079 H         1 UNK         0.0600 
    132 H132       -3.5963  -13.7608  -44.7518 H         1 UNK         0.0800 
    133 H133       -3.4869  -12.9948  -46.3150 H         1 UNK         0.0800 
    134 H134       -3.9244  -14.6196  -48.2421 H         1 UNK         0.0800 
    135 H135       -2.2359  -14.2111  -48.4421 H         1 UNK         0.0800 
    136 H136       -4.7658  -16.5970  -49.3104 H         1 UNK         0.1150 
    137 H137       -2.0520  -19.3845  -51.1012 H         1 UNK         0.1150 
    138 H138       -0.5403  -16.1933  -48.6839 H         1 UNK         0.1150 
    139 H139        0.3438  -18.8221  -51.1381 H         1 UNK         0.0800 
    140 H140        0.9442  -17.4835  -50.2009 H         1 UNK         0.0800 
    141 H141        0.8864  -21.7324  -49.5887 H         1 UNK         0.0800 
    142 H142       -0.5456  -20.9654  -50.1802 H         1 UNK         0.0800 
    143 H143       -0.7380  -22.8074  -48.3884 H         1 UNK         0.0600 
    144 H144        0.6188  -20.8983  -46.7166 H         1 UNK         0.3000 
    145 H145        0.0117  -22.8330  -43.7141 H         1 UNK         0.0600 
    146 H146        2.4613  -22.5463  -43.6587 H         1 UNK         0.0600 
    147 H147        2.0289  -23.6747  -44.9344 H         1 UNK         0.0600 
    148 H148        2.4785  -22.0222  -45.3404 H         1 UNK         0.0600 
    149 H149        1.2775  -20.3400  -43.9157 H         1 UNK         0.3000 
    150 H150       -1.5763  -18.2250  -43.5258 H         1 UNK         0.0600 
    151 H151       -1.1418  -19.0413  -41.2280 H         1 UNK         0.0600 
    152 H152       -0.3023  -17.5251  -41.5060 H         1 UNK         0.0600 
    153 H153        0.5896  -19.0465  -41.5208 H         1 UNK         0.0600 
    154 H154        1.2272  -17.6802  -43.5663 H         1 UNK         0.3000 
    155 H155        1.6727  -17.4580  -47.0554 H         1 UNK         0.0600 
    156 H156        2.2305  -15.0872  -46.5601 H         1 UNK         0.0600 
    157 H157        1.2183  -15.1432  -45.1201 H         1 UNK         0.0600 
    158 H158        0.4975  -15.3388  -46.7047 H         1 UNK         0.0600 
    159 H159        3.1323  -16.7314  -44.6248 H         1 UNK         0.3000 
    160 H160        5.0047  -19.8333  -44.6639 H         1 UNK         0.0600 
    161 H161        5.7332  -16.8858  -45.0820 H         1 UNK         0.0600 
    162 H162        6.0778  -18.1831  -46.2216 H         1 UNK         0.0600 
    163 H163        6.8390  -18.1847  -44.6380 H         1 UNK         0.0600 
    164 H164        5.2070  -17.7718  -42.7962 H         1 UNK         0.3000 
    165 H165        2.7664  -18.7932  -40.4430 H         1 UNK         0.0600 
    166 H166        4.7869  -19.0750  -39.0207 H         1 UNK         0.0600 
    167 H167        4.5744  -20.4301  -40.1185 H         1 UNK         0.0600 
    168 H168        5.7982  -19.2180  -40.4581 H         1 UNK         0.0600 
    169 H169        3.0820  -16.6256  -40.3872 H         1 UNK         0.3000 
    170 H170        4.9952  -14.5115  -39.9202 H         1 UNK         0.0600 
    171 H171        6.7023  -14.2192  -41.6888 H         1 UNK         0.0600 
    172 H172        5.4710  -14.3182  -42.9427 H         1 UNK         0.0600 
    173 H173        5.4915  -12.9560  -41.8241 H         1 UNK         0.0600 
    174 H174        2.9998  -13.6726  -40.5027 H         1 UNK         0.3000 
    175 H175        0.6147  -14.3868  -43.0402 H         1 UNK         0.0600 
    176 H176        0.7722  -13.8832  -40.0254 H         1 UNK         0.0600 
    177 H177       -0.6740  -13.8269  -41.0277 H         1 UNK         0.0600 
    178 H178        0.1843  -15.3414  -40.8005 H         1 UNK         0.0600 
    179 H179        1.0854  -12.2798  -43.4175 H         1 UNK         0.3000 
    180 H180        1.8398   -9.4471  -41.4455 H         1 UNK         0.0600 
    181 H181        3.1927   -8.9484  -43.4727 H         1 UNK         0.0600 
    182 H182        3.1922  -10.6537  -43.9197 H         1 UNK         0.0600 
    183 H183        4.0084  -10.1249  -42.4536 H         1 UNK         0.0600 
    184 H184        0.7297  -10.3412  -44.0627 H         1 UNK         0.3000 
    185 H185       -2.5591   -9.3198  -43.2063 H         1 UNK         0.0600 
    186 H186       -2.4096   -8.0331  -45.3244 H         1 UNK         0.0600 
    187 H187       -1.5717   -7.1812  -44.0372 H         1 UNK         0.0600 
    188 H188       -0.6473   -8.0608  -45.2487 H         1 UNK         0.0600 
    189 H189       -1.3278  -10.4046  -45.5794 H         1 UNK         0.3000 
    190 H190       -1.8244  -19.9497  -46.6174 H         1 UNK         0.3000 
    191 H191       -4.4472  -19.8596  -47.7816 H         1 UNK         0.0600 
    192 H192       -4.9993  -18.4917  -45.7836 H         1 UNK         0.0600 
    193 H193       -3.4945  -17.9729  -46.5267 H         1 UNK         0.0600 
    194 H194       -3.4596  -18.9167  -45.0417 H         1 UNK         0.0600 
    195 H195       -3.1576  -21.4611  -44.8047 H         1 UNK         0.3000 
    196 H196       -5.5641  -22.7068  -44.0028 H         1 UNK         0.0600 
    197 H197       -2.6505  -23.4945  -43.4730 H         1 UNK         0.0600 
    198 H198       -3.6332  -22.4076  -42.4926 H         1 UNK         0.0600 
    199 H199       -4.0421  -24.1128  -42.5902 H         1 UNK         0.0600 
    200 H200       -3.0741  -23.7707  -46.2912 H         1 UNK         0.3000 
    201 H201       -4.1563  -26.3935  -46.7913 H         1 UNK         0.0600 
    202 H202       -2.3321  -24.6372  -48.5182 H         1 UNK         0.0600 
    203 H203       -2.5640  -26.3728  -48.6816 H         1 UNK         0.0600 
    204 H204       -1.7772  -25.7315  -47.2502 H         1 UNK         0.0600 
    205 H205       -5.5490  -23.4207  -47.4539 H         1 UNK         0.3000 
    206 H206       -7.1400  -22.6099  -48.7379 H         1 UNK         0.0600 
    207 H207       -8.4032  -24.6197  -47.9493 H         1 UNK         0.0600 
    208 H208       -8.9204  -24.1112  -49.5487 H         1 UNK         0.0600 
    209 H209       -7.8793  -25.5168  -49.3737 H         1 UNK         0.0600 
    210 H210       -4.6735  -22.5298  -49.8159 H         1 UNK         0.3000 
    211 H211       -3.6035  -21.8617  -51.5957 H         1 UNK         0.0600 
    212 H212       -4.6172  -21.3880  -53.7182 H         1 UNK         0.0600 
    213 H213       -5.8957  -21.1064  -52.5581 H         1 UNK         0.0600 
    214 H214       -5.8753  -22.5894  -53.5062 H         1 UNK         0.0600 
    215 H215       -4.5760  -24.9985  -51.0818 H         1 UNK         0.3000 
    216 H216       -3.7970  -27.0052  -51.5015 H         1 UNK         0.0600 
    217 H217       -1.4014  -27.3050  -51.9309 H         1 UNK         0.0600 
    218 H218       -1.2623  -25.7019  -52.6448 H         1 UNK         0.0600 
    219 H219       -1.5800  -25.8841  -50.9249 H         1 UNK         0.0600 
    220 H220       -2.3172  -28.2388  -53.5034 H         1 UNK         0.3000 
    221 H221       -4.1437  -28.3746  -55.7360 H         1 UNK         0.0600 
    222 H222       -2.9071  -30.3613  -54.8939 H         1 UNK         0.0600 
    223 H223       -1.3669  -29.6072  -55.3087 H         1 UNK         0.0600 
    224 H224       -2.5026  -30.0562  -56.5751 H         1 UNK         0.0600 
    225 H225       -1.3365  -26.4620  -55.0385 H         1 UNK         0.3000 
    226 H226       -0.4970  -25.8508  -57.7232 H         1 UNK         0.0600 
    227 H227        0.0095  -24.4254  -55.0516 H         1 UNK         0.0600 
    228 H228        1.0189  -25.6926  -55.7518 H         1 UNK         0.0600 
    229 H229        0.8876  -24.1329  -56.5477 H         1 UNK         0.0600 
    230 H230       -3.0481  -24.6415  -55.6842 H         1 UNK         0.3000 
    231 H231       -4.5416  -23.0225  -55.7507 H         1 UNK         0.0600 
    232 H232       -3.9304  -22.7113  -58.7383 H         1 UNK         0.0600 
    233 H233       -5.3575  -22.1278  -57.8956 H         1 UNK         0.0600 
    234 H234       -5.0776  -23.8556  -58.0440 H         1 UNK         0.0600 
    235 H235       -2.3713  -22.3530  -54.5720 H         1 UNK         0.3000 
    236 H236       -0.6524  -20.4012  -55.4794 H         1 UNK         0.0600 
    237 H237       -0.0377  -20.1958  -53.0558 H         1 UNK         0.0600 
    238 H238       -1.4988  -21.0776  -52.6171 H         1 UNK         0.0600 
    239 H239       -0.2319  -21.8690  -53.5475 H         1 UNK         0.0600 
    240 H240       -3.9130  -19.7461  -54.4924 H         1 UNK         0.3000 
    241 H241       -3.4169  -16.9365  -55.0792 H         1 UNK         0.0600 
    242 H242       -6.1664  -18.6784  -57.0415 H         1 UNK         0.3800 
    243 H243       -4.5932  -19.2896  -56.5929 H         1 UNK         0.3800 
    244 H244       -4.6358  -15.9619  -53.3070 H         1 UNK         0.0800 
    245 H245       -3.3866  -16.9299  -52.6179 H         1 UNK         0.0800 
    246 H246       -5.3684  -19.1774  -50.1717 H         1 UNK         0.0800 
    247 H247       -4.3118  -19.6805  -51.4647 H         1 UNK         0.0800 
@<TRIPOS>BOND
     1    1    2 1    
     2    1  127 1    
     3    1  128 1    
     4    1  129 1    
     5    2    3 2    
     6    2    4 am   BACKBONE|DICT|INTERRES
     7    4    5 1    
     8    4  130 1    
     9    5    6 1    
    10    5   65 1    
    11    5  131 1    
    12    6    7 1    
    13    6  132 1    
    14    6  133 1    
    15    7    8 1    
    16    8    9 1    
    17    8  134 1    
    18    8  135 1    
    19    9   10 ar   
    20    9   14 ar   
    21   10   11 ar   
    22   10  136 1    
    23   11   12 ar   
    24   11  126 1    
    25   12   13 ar   
    26   12  137 1    
    27   13   14 ar   
    28   13   15 1    
    29   14  138 1    
    30   15   16 1    
    31   15  139 1    
    32   15  140 1    
    33   16   17 1    
    34   17   18 1    
    35   17  141 1    
    36   17  142 1    
    37   18   19 1    
    38   18   67 1    
    39   18  143 1    
    40   19   20 am   BACKBONE|DICT|INTERRES
    41   19  144 1    
    42   20   21 2    
    43   20   22 1    
    44   22   23 1    
    45   22   24 1    
    46   22  145 1    
    47   23  146 1    
    48   23  147 1    
    49   23  148 1    
    50   24   25 am   BACKBONE|DICT|INTERRES
    51   24  149 1    
    52   25   26 2    
    53   25   27 1    
    54   27   28 1    
    55   27   29 1    
    56   27  150 1    
    57   28  151 1    
    58   28  152 1    
    59   28  153 1    
    60   29   30 am   BACKBONE|DICT|INTERRES
    61   29  154 1    
    62   30   31 2    
    63   30   32 1    
    64   32   33 1    
    65   32   34 1    
    66   32  155 1    
    67   33  156 1    
    68   33  157 1    
    69   33  158 1    
    70   34   35 am   BACKBONE|DICT|INTERRES
    71   34  159 1    
    72   35   36 2    
    73   35   37 1    
    74   37   38 1    
    75   37   39 1    
    76   37  160 1    
    77   38  161 1    
    78   38  162 1    
    79   38  163 1    
    80   39   40 am   BACKBONE|DICT|INTERRES
    81   39  164 1    
    82   40   41 2    
    83   40   42 1    
    84   42   43 1    
    85   42   44 1    
    86   42  165 1    
    87   43  166 1    
    88   43  167 1    
    89   43  168 1    
    90   44   45 am   BACKBONE|DICT|INTERRES
    91   44  169 1    
    92   45   46 2    
    93   45   47 1    
    94   47   48 1    
    95   47   49 1    
    96   47  170 1    
    97   48  171 1    
    98   48  172 1    
    99   48  173 1    
   100   49   50 am   BACKBONE|DICT|INTERRES
   101   49  174 1    
   102   50   51 2    
   103   50   52 1    
   104   52   53 1    
   105   52   54 1    
   106   52  175 1    
   107   53  176 1    
   108   53  177 1    
   109   53  178 1    
   110   54   55 am   BACKBONE|DICT|INTERRES
   111   54  179 1    
   112   55   56 2    
   113   55   57 1    
   114   57   58 1    
   115   57   59 1    
   116   57  180 1    
   117   58  181 1    
   118   58  182 1    
   119   58  183 1    
   120   59   60 am   BACKBONE|DICT|INTERRES
   121   59  184 1    
   122   60   61 2    
   123   60   62 1    
   124   62   63 1    
   125   62   64 1    
   126   62  185 1    
   127   63  186 1    
   128   63  187 1    
   129   63  188 1    
   130   64   65 am   BACKBONE|DICT|INTERRES
   131   64  189 1    
   132   65   66 2    
   133   67   68 2    
   134   67   69 am   BACKBONE|DICT|INTERRES
   135   69   70 1    
   136   69  190 1    
   137   70   71 1    
   138   70   72 1    
   139   70  191 1    
   140   71  192 1    
   141   71  193 1    
   142   71  194 1    
   143   72   73 2    
   144   72   74 am   BACKBONE|DICT|INTERRES
   145   74   75 1    
   146   74  195 1    
   147   75   76 1    
   148   75   77 1    
   149   75  196 1    
   150   76  197 1    
   151   76  198 1    
   152   76  199 1    
   153   77   78 2    
   154   77   79 am   BACKBONE|DICT|INTERRES
   155   79   80 1    
   156   79  200 1    
   157   80   81 1    
   158   80   82 1    
   159   80  201 1    
   160   81  202 1    
   161   81  203 1    
   162   81  204 1    
   163   82   83 2    
   164   82   84 am   BACKBONE|DICT|INTERRES
   165   84   85 1    
   166   84  205 1    
   167   85   86 1    
   168   85   87 1    
   169   85  206 1    
   170   86  207 1    
   171   86  208 1    
   172   86  209 1    
   173   87   88 2    
   174   87   89 am   BACKBONE|DICT|INTERRES
   175   89   90 1    
   176   89  210 1    
   177   90   91 1    
   178   90   92 1    
   179   90  211 1    
   180   91  212 1    
   181   91  213 1    
   182   91  214 1    
   183   92   93 2    
   184   92   94 am   BACKBONE|DICT|INTERRES
   185   94   95 1    
   186   94  215 1    
   187   95   96 1    
   188   95   97 1    
   189   95  216 1    
   190   96  217 1    
   191   96  218 1    
   192   96  219 1    
   193   97   98 2    
   194   97   99 am   BACKBONE|DICT|INTERRES
   195   99  100 1    
   196   99  220 1    
   197  100  101 1    
   198  100  102 1    
   199  100  221 1    
   200  101  222 1    
   201  101  223 1    
   202  101  224 1    
   203  102  103 2    
   204  102  104 am   BACKBONE|DICT|INTERRES
   205  104  105 1    
   206  104  225 1    
   207  105  106 1    
   208  105  107 1    
   209  105  226 1    
   210  106  227 1    
   211  106  228 1    
   212  106  229 1    
   213  107  108 2    
   214  107  109 am   BACKBONE|DICT|INTERRES
   215  109  110 1    
   216  109  230 1    
   217  110  111 1    
   218  110  112 1    
   219  110  231 1    
   220  111  232 1    
   221  111  233 1    
   222  111  234 1    
   223  112  113 2    
   224  112  114 am   BACKBONE|DICT|INTERRES
   225  114  115 1    
   226  114  235 1    
   227  115  116 1    
   228  115  117 1    
   229  115  236 1    
   230  116  237 1    
   231  116  238 1    
   232  116  239 1    
   233  117  118 2    
   234  117  119 am   BACKBONE|DICT|INTERRES
   235  119  120 1    
   236  119  240 1    
   237  120  121 1    
   238  120  124 1    
   239  120  241 1    
   240  121  122 am   BACKBONE|DICT|INTERRES
   241  121  123 2    
   242  122  242 1    
   243  122  243 1    
   244  124  125 1    
   245  124  244 1    
   246  124  245 1    
   247  125  126 1    
   248  126  246 1    
   249  126  247 1    
@<TRIPOS>SUBSTRUCTURE
     1 UNK         1 GROUP             0       ****    0 ROOT    
