@<TRIPOS>MOLECULE
3R540
247   249    1
SMALL
USER_CHARGES


@<TRIPOS>ATOM
      1 CA          5.0163   -9.7266  -49.1461 C.3       0 UNK        -0.1800 
      2 C           4.8207  -10.7868  -48.0724 C.2       0 UNK         0.5000 
      3 O           4.8832  -10.4736  -46.8837 O.2       0 UNK        -0.5000 
      4 N           4.5684  -12.0370  -48.4840 N.am      1 UNK        -0.5000 
      5 CA          4.3549  -13.2019  -47.6116 C.3       1 UNK         0.1400 
      6 C6          4.2608  -14.5211  -48.4221 C.3       23 UNK        -0.0398 
      7 S7          2.9337  -14.5244  -49.6853 S.3       23 UNK        -0.2404 
      8 C8          1.7521  -15.7200  -48.9870 C.3       23 UNK        -0.0205 
      9 C9          1.9879  -17.1206  -49.5301 C.ar      23 UNK        -0.0193 
     10 C10         1.3121  -17.5459  -50.6780 C.ar      23 UNK        -0.1150 
     11 C11         1.5301  -18.8246  -51.1976 C.ar      23 UNK        -0.0193 
     12 C12         2.4348  -19.6789  -50.5630 C.ar      23 UNK        -0.1150 
     13 C13         3.1087  -19.2711  -49.4080 C.ar      23 UNK        -0.0193 
     14 C14         2.8780  -17.9911  -48.8934 C.ar      23 UNK        -0.1150 
     15 C15         4.1007  -20.2064  -48.7292 C.3       23 UNK        -0.0205 
     16 S16         3.3409  -21.7753  -48.2009 S.3       23 UNK        -0.2404 
     17 C17         2.1802  -21.1914  -46.9228 C.3       23 UNK        -0.0398 
     18 CA          1.0898  -22.2338  -46.5840 C.3       11 UNK         0.1400 
     19 N           0.4695  -21.9581  -45.2877 N.am      11 UNK        -0.5000 
     20 C          -0.3596  -22.7858  -44.6387 C.2       10 UNK         0.5000 
     21 O          -0.6739  -23.9017  -45.0516 O.2       10 UNK        -0.5000 
     22 CA         -0.9727  -22.2604  -43.3278 C.3       10 UNK         0.1400 
     23 CB          0.0291  -22.3733  -42.1691 C.3       10 UNK        -0.1800 
     24 N          -1.4436  -20.8788  -43.4403 N.am      10 UNK        -0.5000 
     25 C          -2.4329  -20.4847  -44.2555 C.2       9 UNK         0.5000 
     26 O          -3.0748  -21.2514  -44.9730 O.2       9 UNK        -0.5000 
     27 CA         -2.7291  -18.9764  -44.3139 C.3       9 UNK         0.1400 
     28 CB         -3.5585  -18.5360  -43.0986 C.3       9 UNK        -0.1800 
     29 N          -1.5163  -18.1640  -44.4059 N.am      9 UNK        -0.5000 
     30 C          -0.6383  -18.2179  -45.4183 C.2       8 UNK         0.5000 
     31 O          -0.7662  -18.9442  -46.4021 O.2       8 UNK        -0.5000 
     32 CA          0.6261  -17.3551  -45.2828 C.3       8 UNK         0.1400 
     33 CB          0.3035  -15.8768  -45.5427 C.3       8 UNK        -0.1800 
     34 N           1.2578  -17.4967  -43.9721 N.am      8 UNK        -0.5000 
     35 C           1.7131  -18.6453  -43.4528 C.2       7 UNK         0.5000 
     36 O           1.7008  -19.7208  -44.0481 O.2       7 UNK        -0.5000 
     37 CA          2.2160  -18.5952  -42.0022 C.3       7 UNK         0.1400 
     38 CB          3.6614  -18.0798  -41.9376 C.3       7 UNK        -0.1800 
     39 N           1.3521  -17.7665  -41.1627 N.am      7 UNK        -0.5000 
     40 C           0.1087  -18.1054  -40.7946 C.2       6 UNK         0.5000 
     41 O          -0.4286  -19.1721  -41.0957 O.2       6 UNK        -0.5000 
     42 CA         -0.6766  -17.0570  -39.9851 C.3       6 UNK         0.1400 
     43 CB         -0.2830  -17.1084  -38.5013 C.3       6 UNK        -0.1800 
     44 N          -0.4878  -15.6963  -40.4929 N.am      6 UNK        -0.5000 
     45 C          -0.9432  -15.2706  -41.6790 C.2       5 UNK         0.5000 
     46 O          -1.5839  -15.9776  -42.4564 O.2       5 UNK        -0.5000 
     47 CA         -0.5973  -13.8254  -42.0845 C.3       5 UNK         0.1400 
     48 CB         -1.6143  -12.8416  -41.4877 C.3       5 UNK        -0.1800 
     49 N           0.7585  -13.3863  -41.7378 N.am      5 UNK        -0.5000 
     50 C           1.8962  -14.0095  -42.0740 C.2       4 UNK         0.5000 
     51 O           1.9367  -15.1231  -42.5957 O.2       4 UNK        -0.5000 
     52 CA          3.1922  -13.2166  -41.8414 C.3       4 UNK         0.1400 
     53 CB          4.4575  -14.0639  -42.0646 C.3       4 UNK        -0.1800 
     54 N           3.1989  -12.1026  -42.7831 N.am      4 UNK        -0.5000 
     55 C           2.8617  -10.8392  -42.4912 C.2       3 UNK         0.5000 
     56 O           2.6317  -10.4407  -41.3490 O.2       3 UNK        -0.5000 
     57 CA          2.7072   -9.8669  -43.6789 C.3       3 UNK         0.1400 
     58 CB          4.0189   -9.1088  -43.9288 C.3       3 UNK        -0.1800 
     59 N           2.2924  -10.5404  -44.9125 N.am      3 UNK        -0.5000 
     60 C           1.1088  -11.1514  -45.0821 C.2       2 UNK         0.5000 
     61 O           0.1967  -11.0991  -44.2568 O.2       2 UNK        -0.5000 
     62 CA          0.9019  -11.9804  -46.3665 C.3       2 UNK         0.1400 
     63 CB         -0.0665  -11.2663  -47.3213 C.3       2 UNK        -0.1800 
     64 N           2.1298  -12.2972  -47.0981 N.am      2 UNK        -0.5000 
     65 C           3.1562  -13.0352  -46.6502 C.2       1 UNK         0.5000 
     66 O           3.2038  -13.5289  -45.5238 O.2       1 UNK        -0.5000 
     67 C           0.0373  -22.3683  -47.7048 C.2       11 UNK         0.5000 
     68 O           0.1003  -23.3222  -48.4803 O.2       11 UNK        -0.5000 
     69 N          -0.9454  -21.4565  -47.7337 N.am      12 UNK        -0.5000 
     70 CA         -2.0757  -21.4929  -48.6603 C.3       12 UNK         0.1400 
     71 CB         -2.9046  -20.2073  -48.5300 C.3       12 UNK        -0.1800 
     72 C          -2.9541  -22.7404  -48.4730 C.2       12 UNK         0.5000 
     73 O          -3.2993  -23.3840  -49.4625 O.2       12 UNK        -0.5000 
     74 N          -3.2587  -23.0922  -47.2159 N.am      13 UNK        -0.5000 
     75 CA         -4.0054  -24.2989  -46.8549 C.3       13 UNK         0.1400 
     76 CB         -4.3219  -24.2800  -45.3521 C.3       13 UNK        -0.1800 
     77 C          -3.2782  -25.6005  -47.2432 C.2       13 UNK         0.5000 
     78 O          -3.9320  -26.5489  -47.6785 O.2       13 UNK        -0.5000 
     79 N          -1.9455  -25.6172  -47.1001 N.am      14 UNK        -0.5000 
     80 CA         -1.0830  -26.7197  -47.5236 C.3       14 UNK         0.1400 
     81 CB          0.3156  -26.5464  -46.9114 C.3       14 UNK        -0.1800 
     82 C          -1.0012  -26.8516  -49.0562 C.2       14 UNK         0.5000 
     83 O          -1.0282  -27.9727  -49.5658 O.2       14 UNK        -0.5000 
     84 N          -0.9093  -25.7141  -49.7606 N.am      15 UNK        -0.5000 
     85 CA         -0.8880  -25.6383  -51.2215 C.3       15 UNK         0.1400 
     86 CB         -0.4842  -24.2206  -51.6621 C.3       15 UNK        -0.1800 
     87 C          -2.2342  -26.0431  -51.8479 C.2       15 UNK         0.5000 
     88 O          -2.2554  -26.8684  -52.7610 O.2       15 UNK        -0.5000 
     89 N          -3.3242  -25.4427  -51.3461 N.am      16 UNK        -0.5000 
     90 CA         -4.7351  -25.6532  -51.6997 C.3       16 UNK         0.1400 
     91 CB         -5.1695  -27.0911  -51.3539 C.3       16 UNK        -0.1800 
     92 C          -5.1255  -25.2705  -53.1460 C.2       16 UNK         0.5000 
     93 O          -6.2826  -25.4628  -53.5255 O.2       16 UNK        -0.5000 
     94 N          -4.1805  -24.7214  -53.9224 N.am      17 UNK        -0.5000 
     95 CA         -4.3254  -24.3452  -55.3275 C.3       17 UNK         0.1400 
     96 CB         -2.9796  -23.8197  -55.8497 C.3       17 UNK        -0.1800 
     97 C          -5.4395  -23.3064  -55.5364 C.2       17 UNK         0.5000 
     98 O          -5.3320  -22.1901  -55.0253 O.2       17 UNK        -0.5000 
     99 N          -6.4916  -23.7155  -56.2572 N.am      18 UNK        -0.5000 
    100 CA        -7.7094  -22.9589  -56.5716 C.3       18 UNK         0.1400 
    101 CB        -7.3765  -21.6904  -57.3864 C.3       18 UNK        -0.1800 
    102 C         -8.6056  -22.6494  -55.3513 C.2       18 UNK         0.5000 
    103 O         -9.5014  -21.8131  -55.4684 O.2       18 UNK        -0.5000 
    104 N         -8.3613  -23.3095  -54.2067 N.am      19 UNK        -0.5000 
    105 CA        -9.0886  -23.2485  -52.9255 C.3       19 UNK         0.1400 
    106 CB       -10.5326  -23.7573  -53.0988 C.3       19 UNK        -0.1800 
    107 C         -9.0697  -21.8895  -52.1850 C.2       19 UNK         0.5000 
    108 O         -9.3429  -21.8607  -50.9848 O.2       19 UNK        -0.5000 
    109 N         -8.7393  -20.8036  -52.8913 N.am      20 UNK        -0.5000 
    110 CA        -8.6301  -19.4284  -52.4082 C.3       20 UNK         0.1400 
    111 CB        -8.3035  -18.4974  -53.5881 C.3       20 UNK        -0.1800 
    112 C         -7.6603  -19.1873  -51.2258 C.2       20 UNK         0.5000 
    113 O         -8.0509  -18.4729  -50.3035 O.2       20 UNK        -0.5000 
    114 N         -6.4311  -19.7234  -51.1893 N.am      21 UNK        -0.5000 
    115 CA        -5.7082  -20.5041  -52.1915 C.3       21 UNK         0.1400 
    116 CB        -5.4420  -21.9041  -51.6168 C.3       21 UNK        -0.1800 
    117 C         -4.3775  -19.8170  -52.5317 C.2       21 UNK         0.5000 
    118 O         -3.9168  -18.9596  -51.7753 O.2       21 UNK        -0.5000 
    119 N         -3.8090  -20.2193  -53.6735 N.am      22 UNK        -0.5000 
    120 CA        -2.5156  -19.8518  -54.2844 C.3       22 UNK         0.1400 
    121 C         -2.1930  -18.3422  -54.5116 C.2       22 UNK         0.5000 
    122 N         -2.8865  -17.4023  -53.8878 N.am      22 UNK        -0.7600 
    123 O         -1.3128  -18.0201  -55.3051 O.2       22 UNK        -0.5000 
    124 C124       -1.3153  -20.6459  -53.6961 C.3       23 UNK        -0.0398 
    125 S125       -0.7513  -20.1318  -52.0371 S.3       23 UNK        -0.2404 
    126 C126        0.8016  -19.2811  -52.4504 C.3       23 UNK        -0.0205 
    127 H127        4.2714   -8.9388  -49.0347 H         1 UNK         0.0600 
    128 H128        4.9240  -10.1434  -50.1493 H         1 UNK         0.0600 
    129 H129        6.0053   -9.2779  -49.0535 H         1 UNK         0.0600 
    130 H130        4.5123  -12.2275  -49.4749 H         1 UNK         0.3000 
    131 H131        5.2408  -13.2773  -46.9775 H         1 UNK         0.0600 
    132 H132        5.2050  -14.6900  -48.9414 H         1 UNK         0.0800 
    133 H133        4.1495  -15.3737  -47.7507 H         1 UNK         0.0800 
    134 H134        1.8186  -15.7187  -47.9000 H         1 UNK         0.0800 
    135 H135        0.7391  -15.3948  -49.2285 H         1 UNK         0.0800 
    136 H136        0.6184  -16.8794  -51.1714 H         1 UNK         0.1150 
    137 H137        2.6090  -20.6681  -50.9631 H         1 UNK         0.1150 
    138 H138        3.3989  -17.6679  -48.0036 H         1 UNK         0.1150 
    139 H139        4.9098  -20.4253  -49.4272 H         1 UNK         0.0800 
    140 H140        4.5623  -19.7270  -47.8645 H         1 UNK         0.0800 
    141 H141        1.7296  -20.2414  -47.2150 H         1 UNK         0.0800 
    142 H142        2.7819  -20.9815  -46.0382 H         1 UNK         0.0800 
    143 H143        1.5785  -23.2056  -46.4846 H         1 UNK         0.0600 
    144 H144        0.7106  -21.0693  -44.8549 H         1 UNK         0.3000 
    145 H145       -1.8349  -22.8874  -43.0915 H         1 UNK         0.0600 
    146 H146       -0.4270  -22.0765  -41.2245 H         1 UNK         0.0600 
    147 H147        0.3787  -23.3999  -42.0539 H         1 UNK         0.0600 
    148 H148        0.9045  -21.7435  -42.3289 H         1 UNK         0.0600 
    149 H149       -0.9810  -20.1893  -42.8579 H         1 UNK         0.3000 
    150 H150       -3.3202  -18.7905  -45.2129 H         1 UNK         0.0600 
    151 H151       -4.4684  -19.1307  -43.0091 H         1 UNK         0.0600 
    152 H152       -3.8599  -17.4921  -43.1861 H         1 UNK         0.0600 
    153 H153       -3.0000  -18.6451  -42.1683 H         1 UNK         0.0600 
    154 H154       -1.3543  -17.5062  -43.6485 H         1 UNK         0.3000 
    155 H155        1.3435  -17.6889  -46.0353 H         1 UNK         0.0600 
    156 H156       -0.1444  -15.7394  -46.5273 H         1 UNK         0.0600 
    157 H157        1.2048  -15.2675  -45.4991 H         1 UNK         0.0600 
    158 H158       -0.3993  -15.4814  -44.8113 H         1 UNK         0.0600 
    159 H159        1.3616  -16.6467  -43.4211 H         1 UNK         0.3000 
    160 H160        2.2022  -19.6128  -41.6058 H         1 UNK         0.0600 
    161 H161        3.7537  -17.0768  -42.3539 H         1 UNK         0.0600 
    162 H162        4.3292  -18.7295  -42.5045 H         1 UNK         0.0600 
    163 H163        4.0269  -18.0534  -40.9111 H         1 UNK         0.0600 
    164 H164        1.6859  -16.8378  -40.9489 H         1 UNK         0.3000 
    165 H165       -1.7374  -17.3050  -40.0636 H         1 UNK         0.0600 
    166 H166       -0.8921  -16.4260  -37.9083 H         1 UNK         0.0600 
    167 H167       -0.4286  -18.1099  -38.0941 H         1 UNK         0.0600 
    168 H168        0.7639  -16.8417  -38.3509 H         1 UNK         0.0600 
    169 H169        0.0373  -15.0551  -39.9168 H         1 UNK         0.3000 
    170 H170       -0.6776  -13.7671  -43.1713 H         1 UNK         0.0600 
    171 H171       -2.6347  -13.1287  -41.7454 H         1 UNK         0.0600 
    172 H172       -1.5475  -12.8032  -40.3998 H         1 UNK         0.0600 
    173 H173       -1.4565  -11.8329  -41.8706 H         1 UNK         0.0600 
    174 H174        0.8315  -12.4631  -41.3340 H         1 UNK         0.3000 
    175 H175        3.1965  -12.8620  -40.8088 H         1 UNK         0.0600 
    176 H176        4.5032  -14.4656  -43.0780 H         1 UNK         0.0600 
    177 H177        5.3588  -13.4736  -41.8996 H         1 UNK         0.0600 
    178 H178        4.4891  -14.9058  -41.3724 H         1 UNK         0.0600 
    179 H179        3.3010  -12.3645  -43.7580 H         1 UNK         0.3000 
    180 H180        1.9361   -9.1399  -43.4157 H         1 UNK         0.0600 
    181 H181        4.8328   -9.7883  -44.1848 H         1 UNK         0.0600 
    182 H182        4.3229   -8.5520  -43.0416 H         1 UNK         0.0600 
    183 H183        3.9126   -8.3918  -44.7431 H         1 UNK         0.0600 
    184 H184        2.9939  -10.6241  -45.6383 H         1 UNK         0.3000 
    185 H185        0.4466  -12.9249  -46.0635 H         1 UNK         0.0600 
    186 H186       -1.0132  -11.0445  -46.8268 H         1 UNK         0.0600 
    187 H187        0.3464  -10.3223  -47.6792 H         1 UNK         0.0600 
    188 H188       -0.2936  -11.8857  -48.1893 H         1 UNK         0.0600 
    189 H189        2.2009  -11.9226  -48.0330 H         1 UNK         0.3000 
    190 H190       -0.9147  -20.6692  -47.0897 H         1 UNK         0.3000 
    191 H191       -1.6700  -21.5323  -49.6716 H         1 UNK         0.0600 
    192 H192       -2.3063  -19.3303  -48.7780 H         1 UNK         0.0600 
    193 H193       -3.7556  -20.2194  -49.2110 H         1 UNK         0.0600 
    194 H194       -3.2912  -20.0760  -47.5192 H         1 UNK         0.0600 
    195 H195       -2.9734  -22.4874  -46.4501 H         1 UNK         0.3000 
    196 H196       -4.9511  -24.2765  -47.4003 H         1 UNK         0.0600 
    197 H197       -4.8909  -25.1636  -45.0606 H         1 UNK         0.0600 
    198 H198       -4.9182  -23.4070  -45.0864 H         1 UNK         0.0600 
    199 H199       -3.4133  -24.2599  -44.7498 H         1 UNK         0.0600 
    200 H200       -1.4895  -24.8187  -46.6706 H         1 UNK         0.3000 
    201 H201       -1.5064  -27.6474  -47.1331 H         1 UNK         0.0600 
    202 H202        0.2685  -26.5246  -45.8225 H         1 UNK         0.0600 
    203 H203        0.7914  -25.6235  -47.2429 H         1 UNK         0.0600 
    204 H204        0.9698  -27.3725  -47.1927 H         1 UNK         0.0600 
    205 H205       -0.8212  -24.8351  -49.2579 H         1 UNK         0.3000 
    206 H206       -0.1276  -26.3331  -51.5840 H         1 UNK         0.0600 
    207 H207        0.5043  -23.9582  -51.2847 H         1 UNK         0.0600 
    208 H208       -0.4479  -24.1427  -52.7493 H         1 UNK         0.0600 
    209 H209       -1.1850  -23.4668  -51.3018 H         1 UNK         0.0600 
    210 H210       -3.1829  -24.7477  -50.6126 H         1 UNK         0.3000 
    211 H211       -5.2989  -24.9788  -51.0538 H         1 UNK         0.0600 
    212 H212       -4.6847  -27.8266  -51.9963 H         1 UNK         0.0600 
    213 H213       -6.2466  -27.2155  -51.4707 H         1 UNK         0.0600 
    214 H214       -4.9264  -27.3366  -50.3199 H         1 UNK         0.0600 
    215 H215       -3.2654  -24.5980  -53.5180 H         1 UNK         0.3000 
    216 H216       -4.5727  -25.2507  -55.8852 H         1 UNK         0.0600 
    217 H217       -3.0452  -23.5658  -56.9084 H         1 UNK         0.0600 
    218 H218       -2.1940  -24.5681  -55.7431 H         1 UNK         0.0600 
    219 H219       -2.6635  -22.9229  -55.3183 H         1 UNK         0.0600 
    220 H220       -6.4862  -24.6673  -56.5975 H         1 UNK         0.3000 
    221 H221       -8.3041  -23.6099  -57.2137 H         1 UNK         0.0600 
    222 H222       -6.8665  -20.9398  -56.7821 H         1 UNK         0.0600 
    223 H223       -6.7399  -21.9245  -58.2396 H         1 UNK         0.0600 
    224 H224       -8.2829  -21.2280  -57.7790 H         1 UNK         0.0600 
    225 H225       -7.5880  -23.9668  -54.2113 H         1 UNK         0.3000 
    226 H226       -8.5721  -23.9508  -52.2694 H         1 UNK         0.0600 
    227 H227      -10.5492  -24.7506  -53.5475 H         1 UNK         0.0600 
    228 H228      -11.0397  -23.8288  -52.1358 H         1 UNK         0.0600 
    229 H229      -11.1250  -23.0934  -53.7289 H         1 UNK         0.0600 
    230 H230       -8.6319  -20.9372  -53.8893 H         1 UNK         0.3000 
    231 H231       -9.6256  -19.1567  -52.0513 H         1 UNK         0.0600 
    232 H232       -7.3508  -18.7451  -54.0560 H         1 UNK         0.0600 
    233 H233       -8.2466  -17.4581  -53.2615 H         1 UNK         0.0600 
    234 H234       -9.0752  -18.5521  -54.3563 H         1 UNK         0.0600 
    235 H235       -5.8408  -19.4460  -50.4186 H         1 UNK         0.3000 
    236 H236       -6.2611  -20.5918  -53.1233 H         1 UNK         0.0600 
    237 H237       -6.3566  -22.4878  -51.5359 H         1 UNK         0.0600 
    238 H238       -4.7510  -22.4677  -52.2428 H         1 UNK         0.0600 
    239 H239       -5.0033  -21.8425  -50.6226 H         1 UNK         0.0600 
    240 H240       -4.3309  -20.9099  -54.2115 H         1 UNK         0.3000 
    241 H241       -2.6339  -20.2279  -55.3016 H         1 UNK         0.0600 
    242 H242       -2.6815  -16.4293  -54.0477 H         1 UNK         0.3800 
    243 H243       -3.5040  -17.6833  -53.1333 H         1 UNK         0.3800 
    244 H244       -1.5770  -21.7017  -53.6287 H         1 UNK         0.0800 
    245 H245       -0.4739  -20.6064  -54.3897 H         1 UNK         0.0800 
    246 H246        1.4428  -19.9505  -53.0259 H         1 UNK         0.0800 
    247 H247        0.5887  -18.4260  -53.0939 H         1 UNK         0.0800 
@<TRIPOS>BOND
     1    1    2 1    
     2    1  127 1    
     3    1  128 1    
     4    1  129 1    
     5    2    3 2    
     6    2    4 am   BACKBONE|DICT|INTERRES
     7    4    5 1    
     8    4  130 1    
     9    5    6 1    
    10    5   65 1    
    11    5  131 1    
    12    6    7 1    
    13    6  132 1    
    14    6  133 1    
    15    7    8 1    
    16    8    9 1    
    17    8  134 1    
    18    8  135 1    
    19    9   10 ar   
    20    9   14 ar   
    21   10   11 ar   
    22   10  136 1    
    23   11   12 ar   
    24   11  126 1    
    25   12   13 ar   
    26   12  137 1    
    27   13   14 ar   
    28   13   15 1    
    29   14  138 1    
    30   15   16 1    
    31   15  139 1    
    32   15  140 1    
    33   16   17 1    
    34   17   18 1    
    35   17  141 1    
    36   17  142 1    
    37   18   19 1    
    38   18   67 1    
    39   18  143 1    
    40   19   20 am   BACKBONE|DICT|INTERRES
    41   19  144 1    
    42   20   21 2    
    43   20   22 1    
    44   22   23 1    
    45   22   24 1    
    46   22  145 1    
    47   23  146 1    
    48   23  147 1    
    49   23  148 1    
    50   24   25 am   BACKBONE|DICT|INTERRES
    51   24  149 1    
    52   25   26 2    
    53   25   27 1    
    54   27   28 1    
    55   27   29 1    
    56   27  150 1    
    57   28  151 1    
    58   28  152 1    
    59   28  153 1    
    60   29   30 am   BACKBONE|DICT|INTERRES
    61   29  154 1    
    62   30   31 2    
    63   30   32 1    
    64   32   33 1    
    65   32   34 1    
    66   32  155 1    
    67   33  156 1    
    68   33  157 1    
    69   33  158 1    
    70   34   35 am   BACKBONE|DICT|INTERRES
    71   34  159 1    
    72   35   36 2    
    73   35   37 1    
    74   37   38 1    
    75   37   39 1    
    76   37  160 1    
    77   38  161 1    
    78   38  162 1    
    79   38  163 1    
    80   39   40 am   BACKBONE|DICT|INTERRES
    81   39  164 1    
    82   40   41 2    
    83   40   42 1    
    84   42   43 1    
    85   42   44 1    
    86   42  165 1    
    87   43  166 1    
    88   43  167 1    
    89   43  168 1    
    90   44   45 am   BACKBONE|DICT|INTERRES
    91   44  169 1    
    92   45   46 2    
    93   45   47 1    
    94   47   48 1    
    95   47   49 1    
    96   47  170 1    
    97   48  171 1    
    98   48  172 1    
    99   48  173 1    
   100   49   50 am   BACKBONE|DICT|INTERRES
   101   49  174 1    
   102   50   51 2    
   103   50   52 1    
   104   52   53 1    
   105   52   54 1    
   106   52  175 1    
   107   53  176 1    
   108   53  177 1    
   109   53  178 1    
   110   54   55 am   BACKBONE|DICT|INTERRES
   111   54  179 1    
   112   55   56 2    
   113   55   57 1    
   114   57   58 1    
   115   57   59 1    
   116   57  180 1    
   117   58  181 1    
   118   58  182 1    
   119   58  183 1    
   120   59   60 am   BACKBONE|DICT|INTERRES
   121   59  184 1    
   122   60   61 2    
   123   60   62 1    
   124   62   63 1    
   125   62   64 1    
   126   62  185 1    
   127   63  186 1    
   128   63  187 1    
   129   63  188 1    
   130   64   65 am   BACKBONE|DICT|INTERRES
   131   64  189 1    
   132   65   66 2    
   133   67   68 2    
   134   67   69 am   BACKBONE|DICT|INTERRES
   135   69   70 1    
   136   69  190 1    
   137   70   71 1    
   138   70   72 1    
   139   70  191 1    
   140   71  192 1    
   141   71  193 1    
   142   71  194 1    
   143   72   73 2    
   144   72   74 am   BACKBONE|DICT|INTERRES
   145   74   75 1    
   146   74  195 1    
   147   75   76 1    
   148   75   77 1    
   149   75  196 1    
   150   76  197 1    
   151   76  198 1    
   152   76  199 1    
   153   77   78 2    
   154   77   79 am   BACKBONE|DICT|INTERRES
   155   79   80 1    
   156   79  200 1    
   157   80   81 1    
   158   80   82 1    
   159   80  201 1    
   160   81  202 1    
   161   81  203 1    
   162   81  204 1    
   163   82   83 2    
   164   82   84 am   BACKBONE|DICT|INTERRES
   165   84   85 1    
   166   84  205 1    
   167   85   86 1    
   168   85   87 1    
   169   85  206 1    
   170   86  207 1    
   171   86  208 1    
   172   86  209 1    
   173   87   88 2    
   174   87   89 am   BACKBONE|DICT|INTERRES
   175   89   90 1    
   176   89  210 1    
   177   90   91 1    
   178   90   92 1    
   179   90  211 1    
   180   91  212 1    
   181   91  213 1    
   182   91  214 1    
   183   92   93 2    
   184   92   94 am   BACKBONE|DICT|INTERRES
   185   94   95 1    
   186   94  215 1    
   187   95   96 1    
   188   95   97 1    
   189   95  216 1    
   190   96  217 1    
   191   96  218 1    
   192   96  219 1    
   193   97   98 2    
   194   97   99 am   BACKBONE|DICT|INTERRES
   195   99  100 1    
   196   99  220 1    
   197  100  101 1    
   198  100  102 1    
   199  100  221 1    
   200  101  222 1    
   201  101  223 1    
   202  101  224 1    
   203  102  103 2    
   204  102  104 am   BACKBONE|DICT|INTERRES
   205  104  105 1    
   206  104  225 1    
   207  105  106 1    
   208  105  107 1    
   209  105  226 1    
   210  106  227 1    
   211  106  228 1    
   212  106  229 1    
   213  107  108 2    
   214  107  109 am   BACKBONE|DICT|INTERRES
   215  109  110 1    
   216  109  230 1    
   217  110  111 1    
   218  110  112 1    
   219  110  231 1    
   220  111  232 1    
   221  111  233 1    
   222  111  234 1    
   223  112  113 2    
   224  112  114 am   BACKBONE|DICT|INTERRES
   225  114  115 1    
   226  114  235 1    
   227  115  116 1    
   228  115  117 1    
   229  115  236 1    
   230  116  237 1    
   231  116  238 1    
   232  116  239 1    
   233  117  118 2    
   234  117  119 am   BACKBONE|DICT|INTERRES
   235  119  120 1    
   236  119  240 1    
   237  120  121 1    
   238  120  124 1    
   239  120  241 1    
   240  121  122 am   BACKBONE|DICT|INTERRES
   241  121  123 2    
   242  122  242 1    
   243  122  243 1    
   244  124  125 1    
   245  124  244 1    
   246  124  245 1    
   247  125  126 1    
   248  126  246 1    
   249  126  247 1    
@<TRIPOS>SUBSTRUCTURE
     1 UNK         1 GROUP             0       ****    0 ROOT    
