@<TRIPOS>MOLECULE
3R540
247   249    1
SMALL
USER_CHARGES


@<TRIPOS>ATOM
      1 CA         -2.8676  -14.4911  -47.4154 C.3       0 UNK        -0.1800 
      2 C          -1.7041  -14.4216  -48.3943 C.2       0 UNK         0.5000 
      3 O          -1.6090  -13.4709  -49.1701 O.2       0 UNK        -0.5000 
      4 N          -0.8174  -15.4232  -48.3554 N.am      1 UNK        -0.5000 
      5 CA          0.3611  -15.5476  -49.2241 C.3       1 UNK         0.1400 
      6 C6          0.9189  -16.9936  -49.2053 C.3       23 UNK        -0.0398 
      7 S7         -0.1061  -18.1438  -50.1787 S.3       23 UNK        -0.2404 
      8 C8         -0.8509  -19.2160  -48.9059 C.3       23 UNK        -0.0205 
      9 C9         -2.1279  -18.6541  -48.2890 C.ar      23 UNK        -0.0193 
     10 C10        -3.1337  -18.1231  -49.1015 C.ar      23 UNK        -0.1150 
     11 C11        -4.3471  -17.6938  -48.5574 C.ar      23 UNK        -0.0193 
     12 C12        -4.5572  -17.8135  -47.1813 C.ar      23 UNK        -0.1150 
     13 C13        -3.5590  -18.3332  -46.3508 C.ar      23 UNK        -0.0193 
     14 C14        -2.3403  -18.7341  -46.9088 C.ar      23 UNK        -0.1150 
     15 C15        -3.8044  -18.4494  -44.8526 C.3       23 UNK        -0.0205 
     16 S16        -4.2997  -20.1385  -44.3719 S.3       23 UNK        -0.2404 
     17 C17        -2.7550  -20.8191  -43.6758 C.3       23 UNK        -0.0398 
     18 CA         -1.9053  -21.5995  -44.7173 C.3       11 UNK         0.1400 
     19 N          -0.5110  -21.1386  -44.7354 N.am      11 UNK        -0.5000 
     20 C           0.4408  -21.4720  -45.6183 C.2       10 UNK         0.5000 
     21 O           0.2529  -22.2427  -46.5585 O.2       10 UNK        -0.5000 
     22 CA          1.8492  -20.8859  -45.3865 C.3       10 UNK         0.1400 
     23 CB          2.0818  -19.6562  -46.2758 C.3       10 UNK        -0.1800 
     24 N           2.1116  -20.5250  -43.9902 N.am      10 UNK        -0.5000 
     25 C           2.1848  -21.3959  -42.9729 C.2       9 UNK         0.5000 
     26 O           2.0475  -22.6128  -43.1046 O.2       9 UNK        -0.5000 
     27 CA          2.4017  -20.8004  -41.5702 C.3       9 UNK         0.1400 
     28 CB          3.8779  -20.4420  -41.3408 C.3       9 UNK        -0.1800 
     29 N           1.5676  -19.6188  -41.3499 N.am      9 UNK        -0.5000 
     30 C           0.2431  -19.6616  -41.1476 C.2       8 UNK         0.5000 
     31 O          -0.4028  -20.7061  -41.0592 O.2       8 UNK        -0.5000 
     32 CA         -0.4935  -18.3107  -41.0667 C.3       8 UNK         0.1400 
     33 CB         -0.4477  -17.7601  -39.6337 C.3       8 UNK        -0.1800 
     34 N           0.0282  -17.3046  -41.9946 N.am      8 UNK        -0.5000 
     35 C           0.0574  -17.4376  -43.3289 C.2       7 UNK         0.5000 
     36 O          -0.3741  -18.4175  -43.9281 O.2       7 UNK        -0.5000 
     37 CA          0.7348  -16.3211  -44.1343 C.3       7 UNK         0.1400 
     38 CB         -0.2375  -15.1564  -44.3571 C.3       7 UNK        -0.1800 
     39 N           1.9620  -15.8411  -43.5036 N.am      7 UNK        -0.5000 
     40 C           3.0427  -16.5920  -43.2483 C.2       6 UNK         0.5000 
     41 O           3.1339  -17.7829  -43.5477 O.2       6 UNK        -0.5000 
     42 CA          4.1909  -15.9086  -42.4893 C.3       6 UNK         0.1400 
     43 CB          5.0881  -15.1057  -43.4428 C.3       6 UNK        -0.1800 
     44 N           3.6826  -15.0235  -41.4428 N.am      6 UNK        -0.5000 
     45 C           3.2940  -15.4324  -40.2288 C.2       5 UNK         0.5000 
     46 O           3.3658  -16.6005  -39.8452 O.2       5 UNK        -0.5000 
     47 CA          2.7153  -14.3566  -39.2884 C.3       5 UNK         0.1400 
     48 CB          3.8414  -13.6608  -38.5090 C.3       5 UNK        -0.1800 
     49 N           1.9122  -13.3441  -39.9796 N.am      5 UNK        -0.5000 
     50 C           0.7361  -13.5926  -40.5706 C.2       4 UNK         0.5000 
     51 O           0.2200  -14.7088  -40.6203 O.2       4 UNK        -0.5000 
     52 CA          0.0293  -12.4049  -41.2542 C.3       4 UNK         0.1400 
     53 CB         -0.6884  -11.5370  -40.2089 C.3       4 UNK        -0.1800 
     54 N           0.8660  -11.5448  -42.1037 N.am      4 UNK        -0.5000 
     55 C           1.7635  -11.9507  -43.0118 C.2       3 UNK         0.5000 
     56 O           2.1807  -13.1063  -43.1012 O.2       3 UNK        -0.5000 
     57 CA          2.2972  -10.8880  -43.9917 C.3       3 UNK         0.1400 
     58 CB          3.5170  -10.1731  -43.3919 C.3       3 UNK        -0.1800 
     59 N           2.6871  -11.5073  -45.2616 N.am      3 UNK        -0.5000 
     60 C           1.8379  -12.1116  -46.1045 C.2       2 UNK         0.5000 
     61 O           0.6104  -12.0123  -46.0216 O.2       2 UNK        -0.5000 
     62 CA          2.4603  -12.9986  -47.1980 C.3       2 UNK         0.1400 
     63 CB          3.6605  -13.8247  -46.6843 C.3       2 UNK        -0.1800 
     64 N           1.4396  -13.9053  -47.7176 N.am      2 UNK        -0.5000 
     65 C           1.4874  -14.5395  -48.8940 C.2       1 UNK         0.5000 
     66 O           2.3948  -14.3726  -49.7108 O.2       1 UNK        -0.5000 
     67 C          -2.0625  -23.1302  -44.5565 C.2       11 UNK         0.5000 
     68 O          -3.1396  -23.6577  -44.8331 O.2       11 UNK        -0.5000 
     69 N          -0.9842  -23.8330  -44.1764 N.am      12 UNK        -0.5000 
     70 CA         -0.8716  -25.2928  -44.2401 C.3       12 UNK         0.1400 
     71 CB          0.4621  -25.7151  -43.6063 C.3       12 UNK        -0.1800 
     72 C          -0.9893  -25.8531  -45.6765 C.2       12 UNK         0.5000 
     73 O          -1.3679  -27.0131  -45.8422 O.2       12 UNK        -0.5000 
     74 N          -0.6933  -25.0181  -46.6812 N.am      13 UNK        -0.5000 
     75 CA         -0.8778  -25.2846  -48.1026 C.3       13 UNK         0.1400 
     76 CB          0.4706  -25.6896  -48.7258 C.3       13 UNK        -0.1800 
     77 C          -1.5006  -24.0380  -48.7567 C.2       13 UNK         0.5000 
     78 O          -0.9708  -23.5307  -49.7472 O.2       13 UNK        -0.5000 
     79 N          -2.6163  -23.5608  -48.1770 N.am      14 UNK        -0.5000 
     80 CA         -3.3204  -22.3160  -48.5242 C.3       14 UNK         0.1400 
     81 CB         -4.5934  -22.1903  -47.6729 C.3       14 UNK        -0.1800 
     82 C          -3.6894  -22.1524  -50.0104 C.2       14 UNK         0.5000 
     83 O          -3.7781  -21.0255  -50.4919 O.2       14 UNK        -0.5000 
     84 N          -3.8868  -23.2747  -50.7145 N.am      15 UNK        -0.5000 
     85 CA         -4.1746  -23.3021  -52.1452 C.3       15 UNK         0.1400 
     86 CB         -4.5952  -24.7216  -52.5520 C.3       15 UNK        -0.1800 
     87 C          -3.0136  -22.8092  -53.0267 C.2       15 UNK         0.5000 
     88 O          -3.2772  -22.3425  -54.1369 O.2       15 UNK        -0.5000 
     89 N          -1.7701  -22.9367  -52.5351 N.am      16 UNK        -0.5000 
     90 CA         -0.5121  -22.5803  -53.2009 C.3       16 UNK         0.1400 
     91 CB         -0.3789  -21.0479  -53.3078 C.3       16 UNK        -0.1800 
     92 C          -0.3587  -23.2919  -54.5610 C.2       16 UNK         0.5000 
     93 O          -0.1685  -22.6386  -55.5865 O.2       16 UNK        -0.5000 
     94 N          -0.5309  -24.6233  -54.5508 N.am      17 UNK        -0.5000 
     95 CA         -0.5761  -25.5084  -55.7263 C.3       17 UNK         0.1400 
     96 CB          0.8008  -25.5746  -56.4203 C.3       17 UNK        -0.1800 
     97 C          -1.7265  -25.1547  -56.6986 C.2       17 UNK         0.5000 
     98 O          -1.5813  -25.2910  -57.9140 O.2       17 UNK        -0.5000 
     99 N          -2.8427  -24.6862  -56.1212 N.am      18 UNK        -0.5000 
    100 CA        -4.0674  -24.1893  -56.7575 C.3       18 UNK         0.1400 
    101 CB        -4.7255  -25.2713  -57.6385 C.3       18 UNK        -0.1800 
    102 C         -3.9055  -22.8407  -57.4923 C.2       18 UNK         0.5000 
    103 O         -4.8278  -22.4354  -58.2017 O.2       18 UNK        -0.5000 
    104 N         -2.7731  -22.1463  -57.3017 N.am      19 UNK        -0.5000 
    105 CA        -2.5305  -20.8183  -57.8679 C.3       19 UNK         0.1400 
    106 CB        -1.0216  -20.5341  -57.9030 C.3       19 UNK        -0.1800 
    107 C         -3.2674  -19.7097  -57.0949 C.2       19 UNK         0.5000 
    108 O         -3.7041  -18.7372  -57.7121 O.2       19 UNK        -0.5000 
    109 N         -3.3932  -19.8717  -55.7704 N.am      20 UNK        -0.5000 
    110 CA        -4.0970  -18.9377  -54.8901 C.3       20 UNK         0.1400 
    111 CB        -3.3102  -18.7824  -53.5792 C.3       20 UNK        -0.1800 
    112 C         -5.5346  -19.4094  -54.6150 C.2       20 UNK         0.5000 
    113 O         -6.4410  -18.5777  -54.5478 O.2       20 UNK        -0.5000 
    114 N         -5.7148  -20.7330  -54.4845 N.am      21 UNK        -0.5000 
    115 CA        -6.9496  -21.4682  -54.1836 C.3       21 UNK         0.1400 
    116 CB        -8.0229  -21.2573  -55.2690 C.3       21 UNK        -0.1800 
    117 C         -7.4916  -21.2013  -52.7642 C.2       21 UNK         0.5000 
    118 O         -7.5285  -22.1283  -51.9554 O.2       21 UNK        -0.5000 
    119 N         -7.8742  -19.9491  -52.4846 N.am      22 UNK        -0.5000 
    120 CA        -8.2667  -19.4188  -51.1627 C.3       22 UNK         0.1400 
    121 C         -9.4973  -20.1091  -50.4945 C.2       22 UNK         0.5000 
    122 N        -10.3718  -20.7639  -51.2485 N.am      22 UNK        -0.7600 
    123 O         -9.6901  -20.0227  -49.2846 O.2       22 UNK        -0.5000 
    124 C124       -7.0457  -19.2746  -50.2084 C.3       23 UNK        -0.0398 
    125 S125       -5.8336  -18.0918  -50.8898 S.3       23 UNK        -0.2404 
    126 C126       -5.4081  -17.0606  -49.4492 C.3       23 UNK        -0.0205 
    127 H127       -3.8133  -14.5120  -47.9567 H         1 UNK         0.0600 
    128 H128       -2.8631  -13.6172  -46.7641 H         1 UNK         0.0600 
    129 H129       -2.8168  -15.3816  -46.7888 H         1 UNK         0.0600 
    130 H130       -0.9809  -16.1976  -47.7289 H         1 UNK         0.3000 
    131 H131        0.0469  -15.3174  -50.2446 H         1 UNK         0.0600 
    132 H132        1.0366  -17.3534  -48.1823 H         1 UNK         0.0800 
    133 H133        1.9151  -17.0363  -49.6502 H         1 UNK         0.0800 
    134 H134       -0.1148  -19.4491  -48.1385 H         1 UNK         0.0800 
    135 H135       -1.0970  -20.1652  -49.3829 H         1 UNK         0.0800 
    136 H136       -2.9800  -18.0604  -50.1696 H         1 UNK         0.1150 
    137 H137       -5.4950  -17.4896  -46.7524 H         1 UNK         0.1150 
    138 H138       -1.5692  -19.1342  -46.2678 H         1 UNK         0.1150 
    139 H139       -2.9216  -18.1263  -44.3028 H         1 UNK         0.0800 
    140 H140       -4.5995  -17.7643  -44.5550 H         1 UNK         0.0800 
    141 H141       -3.0213  -21.4452  -42.8218 H         1 UNK         0.0800 
    142 H142       -2.1926  -20.0011  -43.2319 H         1 UNK         0.0800 
    143 H143       -2.2858  -21.3776  -45.7150 H         1 UNK         0.0600 
    144 H144       -0.2765  -20.4179  -44.0612 H         1 UNK         0.3000 
    145 H145        2.5732  -21.6523  -45.6703 H         1 UNK         0.0600 
    146 H146        3.0640  -19.2178  -46.0980 H         1 UNK         0.0600 
    147 H147        2.0368  -19.9269  -47.3310 H         1 UNK         0.0600 
    148 H148        1.3332  -18.8849  -46.0966 H         1 UNK         0.0600 
    149 H149        2.2725  -19.5402  -43.7991 H         1 UNK         0.3000 
    150 H150        2.1237  -21.5609  -40.8372 H         1 UNK         0.0600 
    151 H151        4.5135  -21.3204  -41.4583 H         1 UNK         0.0600 
    152 H152        4.0374  -20.0571  -40.3333 H         1 UNK         0.0600 
    153 H153        4.2293  -19.6879  -42.0451 H         1 UNK         0.0600 
    154 H154        2.0176  -18.7183  -41.4364 H         1 UNK         0.3000 
    155 H155       -1.5383  -18.4894  -41.3280 H         1 UNK         0.0600 
    156 H156        0.5667  -17.4857  -39.3409 H         1 UNK         0.0600 
    157 H157       -0.8107  -18.4979  -38.9170 H         1 UNK         0.0600 
    158 H158       -1.0761  -16.8753  -39.5324 H         1 UNK         0.0600 
    159 H159        0.3550  -16.4361  -41.5815 H         1 UNK         0.3000 
    160 H160        1.0045  -16.7270  -45.1106 H         1 UNK         0.0600 
    161 H161       -0.5280  -14.6897  -43.4164 H         1 UNK         0.0600 
    162 H162       -1.1484  -15.4958  -44.8514 H         1 UNK         0.0600 
    163 H163        0.2088  -14.3901  -44.9861 H         1 UNK         0.0600 
    164 H164        1.9889  -14.8549  -43.2493 H         1 UNK         0.3000 
    165 H165        4.8005  -16.6928  -42.0351 H         1 UNK         0.0600 
    166 H166        5.9814  -14.7497  -42.9298 H         1 UNK         0.0600 
    167 H167        5.4174  -15.7176  -44.2836 H         1 UNK         0.0600 
    168 H168        4.5715  -14.2355  -43.8472 H         1 UNK         0.0600 
    169 H169        3.4952  -14.0665  -41.7145 H         1 UNK         0.3000 
    170 H170        2.0688  -14.8643  -38.5693 H         1 UNK         0.0600 
    171 H171        4.4463  -14.3874  -37.9648 H         1 UNK         0.0600 
    172 H172        4.5087  -13.1086  -39.1720 H         1 UNK         0.0600 
    173 H173        3.4399  -12.9606  -37.7763 H         1 UNK         0.0600 
    174 H174        2.2783  -12.4037  -40.0057 H         1 UNK         0.3000 
    175 H175       -0.7351  -12.8292  -41.9071 H         1 UNK         0.0600 
    176 H176        0.0200  -11.0169  -39.5630 H         1 UNK         0.0600 
    177 H177       -1.3217  -10.7879  -40.6844 H         1 UNK         0.0600 
    178 H178       -1.3316  -12.1437  -39.5698 H         1 UNK         0.0600 
    179 H179        0.6241  -10.5646  -42.0906 H         1 UNK         0.3000 
    180 H180        1.5109  -10.1561  -44.1875 H         1 UNK         0.0600 
    181 H181        4.3280  -10.8709  -43.1785 H         1 UNK         0.0600 
    182 H182        3.2586   -9.6745  -42.4568 H         1 UNK         0.0600 
    183 H183        3.9000   -9.4102  -44.0700 H         1 UNK         0.0600 
    184 H184        3.6760  -11.6589  -45.3907 H         1 UNK         0.3000 
    185 H185        2.7928  -12.3356  -47.9991 H         1 UNK         0.0600 
    186 H186        4.4696  -13.1901  -46.3226 H         1 UNK         0.0600 
    187 H187        3.3609  -14.4857  -45.8707 H         1 UNK         0.0600 
    188 H188        4.0832  -14.4465  -47.4733 H         1 UNK         0.0600 
    189 H189        0.6176  -13.9989  -47.1364 H         1 UNK         0.3000 
    190 H190       -0.1373  -23.3275  -43.9504 H         1 UNK         0.3000 
    191 H191       -1.6857  -25.7196  -43.6510 H         1 UNK         0.0600 
    192 H192        1.3128  -25.3003  -44.1488 H         1 UNK         0.0600 
    193 H193        0.5693  -26.8005  -43.6053 H         1 UNK         0.0600 
    194 H194        0.5309  -25.3804  -42.5710 H         1 UNK         0.0600 
    195 H195       -0.3891  -24.0717  -46.4643 H         1 UNK         0.3000 
    196 H196       -1.5864  -26.1027  -48.2465 H         1 UNK         0.0600 
    197 H197        0.3620  -25.9085  -49.7886 H         1 UNK         0.0600 
    198 H198        0.8712  -26.5843  -48.2490 H         1 UNK         0.0600 
    199 H199        1.2119  -24.8958  -48.6248 H         1 UNK         0.0600 
    200 H200       -2.9663  -24.0466  -47.3624 H         1 UNK         0.3000 
    201 H201       -2.6555  -21.4944  -48.2594 H         1 UNK         0.0600 
    202 H202       -4.3703  -22.1983  -46.6087 H         1 UNK         0.0600 
    203 H203       -5.2938  -23.0016  -47.8741 H         1 UNK         0.0600 
    204 H204       -5.1083  -21.2505  -47.8802 H         1 UNK         0.0600 
    205 H205       -3.8002  -24.1622  -50.2426 H         1 UNK         0.3000 
    206 H206       -5.0118  -22.6308  -52.3222 H         1 UNK         0.0600 
    207 H207       -5.4683  -25.0488  -51.9869 H         1 UNK         0.0600 
    208 H208       -4.8634  -24.7654  -53.6078 H         1 UNK         0.0600 
    209 H209       -3.7952  -25.4437  -52.3839 H         1 UNK         0.0600 
    210 H210       -1.6647  -23.2844  -51.5860 H         1 UNK         0.3000 
    211 H211        0.2940  -22.9413  -52.5605 H         1 UNK         0.0600 
    212 H212       -1.1027  -20.6279  -54.0051 H         1 UNK         0.0600 
    213 H213        0.6134  -20.7672  -53.6619 H         1 UNK         0.0600 
    214 H214       -0.5285  -20.5690  -52.3398 H         1 UNK         0.0600 
    215 H215       -0.6975  -25.0702  -53.6598 H         1 UNK         0.3000 
    216 H216       -0.7997  -26.5071  -55.3486 H         1 UNK         0.0600 
    217 H217        0.8096  -26.3384  -57.1986 H         1 UNK         0.0600 
    218 H218        1.5882  -25.8279  -55.7104 H         1 UNK         0.0600 
    219 H219        1.0653  -24.6274  -56.8911 H         1 UNK         0.0600 
    220 H220       -2.8152  -24.5690  -55.1193 H         1 UNK         0.3000 
    221 H221       -4.7575  -23.9842  -55.9385 H         1 UNK         0.0600 
    222 H222       -4.1459  -25.4704  -58.5400 H         1 UNK         0.0600 
    223 H223       -4.8367  -26.2095  -57.0949 H         1 UNK         0.0600 
    224 H224       -5.7222  -24.9633  -57.9566 H         1 UNK         0.0600 
    225 H225       -2.0524  -22.5231  -56.6973 H         1 UNK         0.3000 
    226 H226       -2.8936  -20.8091  -58.8979 H         1 UNK         0.0600 
    227 H227       -0.4776  -21.3349  -58.4043 H         1 UNK         0.0600 
    228 H228       -0.8146  -19.6099  -58.4436 H         1 UNK         0.0600 
    229 H229       -0.6081  -20.4217  -56.9003 H         1 UNK         0.0600 
    230 H230       -3.0458  -20.7246  -55.3455 H         1 UNK         0.3000 
    231 H231       -4.1526  -17.9523  -55.3574 H         1 UNK         0.0600 
    232 H232       -2.2809  -18.4784  -53.7686 H         1 UNK         0.0600 
    233 H233       -3.2882  -19.7071  -53.0014 H         1 UNK         0.0600 
    234 H234       -3.7573  -18.0141  -52.9493 H         1 UNK         0.0600 
    235 H235       -4.8786  -21.3064  -54.5222 H         1 UNK         0.3000 
    236 H236       -6.6723  -22.5231  -54.2174 H         1 UNK         0.0600 
    237 H237       -8.3705  -20.2253  -55.3152 H         1 UNK         0.0600 
    238 H238       -7.6399  -21.5244  -56.2541 H         1 UNK         0.0600 
    239 H239       -8.8943  -21.8847  -55.0782 H         1 UNK         0.0600 
    240 H240       -7.7269  -19.2551  -53.2109 H         1 UNK         0.3000 
    241 H241       -8.6280  -18.4094  -51.3624 H         1 UNK         0.0600 
    242 H242      -11.1721  -21.1998  -50.8179 H         1 UNK         0.3800 
    243 H243      -10.2321  -20.8404  -52.2433 H         1 UNK         0.3800 
    244 H244       -6.5554  -20.2366  -50.0523 H         1 UNK         0.0800 
    245 H245       -7.3560  -18.9255  -49.2228 H         1 UNK         0.0800 
    246 H246       -6.3113  -16.8214  -48.8862 H         1 UNK         0.0800 
    247 H247       -5.0173  -16.1098  -49.8138 H         1 UNK         0.0800 
@<TRIPOS>BOND
     1    1    2 1    
     2    1  127 1    
     3    1  128 1    
     4    1  129 1    
     5    2    3 2    
     6    2    4 am   BACKBONE|DICT|INTERRES
     7    4    5 1    
     8    4  130 1    
     9    5    6 1    
    10    5   65 1    
    11    5  131 1    
    12    6    7 1    
    13    6  132 1    
    14    6  133 1    
    15    7    8 1    
    16    8    9 1    
    17    8  134 1    
    18    8  135 1    
    19    9   10 ar   
    20    9   14 ar   
    21   10   11 ar   
    22   10  136 1    
    23   11   12 ar   
    24   11  126 1    
    25   12   13 ar   
    26   12  137 1    
    27   13   14 ar   
    28   13   15 1    
    29   14  138 1    
    30   15   16 1    
    31   15  139 1    
    32   15  140 1    
    33   16   17 1    
    34   17   18 1    
    35   17  141 1    
    36   17  142 1    
    37   18   19 1    
    38   18   67 1    
    39   18  143 1    
    40   19   20 am   BACKBONE|DICT|INTERRES
    41   19  144 1    
    42   20   21 2    
    43   20   22 1    
    44   22   23 1    
    45   22   24 1    
    46   22  145 1    
    47   23  146 1    
    48   23  147 1    
    49   23  148 1    
    50   24   25 am   BACKBONE|DICT|INTERRES
    51   24  149 1    
    52   25   26 2    
    53   25   27 1    
    54   27   28 1    
    55   27   29 1    
    56   27  150 1    
    57   28  151 1    
    58   28  152 1    
    59   28  153 1    
    60   29   30 am   BACKBONE|DICT|INTERRES
    61   29  154 1    
    62   30   31 2    
    63   30   32 1    
    64   32   33 1    
    65   32   34 1    
    66   32  155 1    
    67   33  156 1    
    68   33  157 1    
    69   33  158 1    
    70   34   35 am   BACKBONE|DICT|INTERRES
    71   34  159 1    
    72   35   36 2    
    73   35   37 1    
    74   37   38 1    
    75   37   39 1    
    76   37  160 1    
    77   38  161 1    
    78   38  162 1    
    79   38  163 1    
    80   39   40 am   BACKBONE|DICT|INTERRES
    81   39  164 1    
    82   40   41 2    
    83   40   42 1    
    84   42   43 1    
    85   42   44 1    
    86   42  165 1    
    87   43  166 1    
    88   43  167 1    
    89   43  168 1    
    90   44   45 am   BACKBONE|DICT|INTERRES
    91   44  169 1    
    92   45   46 2    
    93   45   47 1    
    94   47   48 1    
    95   47   49 1    
    96   47  170 1    
    97   48  171 1    
    98   48  172 1    
    99   48  173 1    
   100   49   50 am   BACKBONE|DICT|INTERRES
   101   49  174 1    
   102   50   51 2    
   103   50   52 1    
   104   52   53 1    
   105   52   54 1    
   106   52  175 1    
   107   53  176 1    
   108   53  177 1    
   109   53  178 1    
   110   54   55 am   BACKBONE|DICT|INTERRES
   111   54  179 1    
   112   55   56 2    
   113   55   57 1    
   114   57   58 1    
   115   57   59 1    
   116   57  180 1    
   117   58  181 1    
   118   58  182 1    
   119   58  183 1    
   120   59   60 am   BACKBONE|DICT|INTERRES
   121   59  184 1    
   122   60   61 2    
   123   60   62 1    
   124   62   63 1    
   125   62   64 1    
   126   62  185 1    
   127   63  186 1    
   128   63  187 1    
   129   63  188 1    
   130   64   65 am   BACKBONE|DICT|INTERRES
   131   64  189 1    
   132   65   66 2    
   133   67   68 2    
   134   67   69 am   BACKBONE|DICT|INTERRES
   135   69   70 1    
   136   69  190 1    
   137   70   71 1    
   138   70   72 1    
   139   70  191 1    
   140   71  192 1    
   141   71  193 1    
   142   71  194 1    
   143   72   73 2    
   144   72   74 am   BACKBONE|DICT|INTERRES
   145   74   75 1    
   146   74  195 1    
   147   75   76 1    
   148   75   77 1    
   149   75  196 1    
   150   76  197 1    
   151   76  198 1    
   152   76  199 1    
   153   77   78 2    
   154   77   79 am   BACKBONE|DICT|INTERRES
   155   79   80 1    
   156   79  200 1    
   157   80   81 1    
   158   80   82 1    
   159   80  201 1    
   160   81  202 1    
   161   81  203 1    
   162   81  204 1    
   163   82   83 2    
   164   82   84 am   BACKBONE|DICT|INTERRES
   165   84   85 1    
   166   84  205 1    
   167   85   86 1    
   168   85   87 1    
   169   85  206 1    
   170   86  207 1    
   171   86  208 1    
   172   86  209 1    
   173   87   88 2    
   174   87   89 am   BACKBONE|DICT|INTERRES
   175   89   90 1    
   176   89  210 1    
   177   90   91 1    
   178   90   92 1    
   179   90  211 1    
   180   91  212 1    
   181   91  213 1    
   182   91  214 1    
   183   92   93 2    
   184   92   94 am   BACKBONE|DICT|INTERRES
   185   94   95 1    
   186   94  215 1    
   187   95   96 1    
   188   95   97 1    
   189   95  216 1    
   190   96  217 1    
   191   96  218 1    
   192   96  219 1    
   193   97   98 2    
   194   97   99 am   BACKBONE|DICT|INTERRES
   195   99  100 1    
   196   99  220 1    
   197  100  101 1    
   198  100  102 1    
   199  100  221 1    
   200  101  222 1    
   201  101  223 1    
   202  101  224 1    
   203  102  103 2    
   204  102  104 am   BACKBONE|DICT|INTERRES
   205  104  105 1    
   206  104  225 1    
   207  105  106 1    
   208  105  107 1    
   209  105  226 1    
   210  106  227 1    
   211  106  228 1    
   212  106  229 1    
   213  107  108 2    
   214  107  109 am   BACKBONE|DICT|INTERRES
   215  109  110 1    
   216  109  230 1    
   217  110  111 1    
   218  110  112 1    
   219  110  231 1    
   220  111  232 1    
   221  111  233 1    
   222  111  234 1    
   223  112  113 2    
   224  112  114 am   BACKBONE|DICT|INTERRES
   225  114  115 1    
   226  114  235 1    
   227  115  116 1    
   228  115  117 1    
   229  115  236 1    
   230  116  237 1    
   231  116  238 1    
   232  116  239 1    
   233  117  118 2    
   234  117  119 am   BACKBONE|DICT|INTERRES
   235  119  120 1    
   236  119  240 1    
   237  120  121 1    
   238  120  124 1    
   239  120  241 1    
   240  121  122 am   BACKBONE|DICT|INTERRES
   241  121  123 2    
   242  122  242 1    
   243  122  243 1    
   244  124  125 1    
   245  124  244 1    
   246  124  245 1    
   247  125  126 1    
   248  126  246 1    
   249  126  247 1    
@<TRIPOS>SUBSTRUCTURE
     1 UNK         1 GROUP             0       ****    0 ROOT    
