@<TRIPOS>MOLECULE
3R540
247   249    1
SMALL
USER_CHARGES


@<TRIPOS>ATOM
      1 CA         -0.5714  -15.9422  -48.4887 C.3       0 UNK        -0.1800 
      2 C           0.2359  -14.6557  -48.3985 C.2       0 UNK         0.5000 
      3 O          -0.1612  -13.7294  -47.6909 O.2       0 UNK        -0.5000 
      4 N           1.3798  -14.6029  -49.0953 N.am      1 UNK        -0.5000 
      5 CA          2.2794  -13.4413  -49.1987 C.3       1 UNK         0.1400 
      6 C6          3.4413  -13.7038  -50.1864 C.3       23 UNK        -0.0398 
      7 S7          2.8771  -13.8283  -51.9144 S.3       23 UNK        -0.2404 
      8 C8          3.2695  -15.5578  -52.3316 C.3       23 UNK        -0.0205 
      9 C9          2.1667  -16.5292  -51.9331 C.ar      23 UNK        -0.0193 
     10 C10         0.8774  -16.3683  -52.4477 C.ar      23 UNK        -0.1150 
     11 C11        -0.1279  -17.2959  -52.1654 C.ar      23 UNK        -0.0193 
     12 C12         0.1719  -18.4047  -51.3661 C.ar      23 UNK        -0.1150 
     13 C13         1.4542  -18.5744  -50.8325 C.ar      23 UNK        -0.0193 
     14 C14         2.4450  -17.6273  -51.1137 C.ar      23 UNK        -0.1150 
     15 C15         1.7922  -19.8041  -49.9987 C.3       23 UNK        -0.0205 
     16 S16         1.6470  -19.4982  -48.2087 S.3       23 UNK        -0.2404 
     17 C17        -0.1368  -19.7453  -47.9348 C.3       23 UNK        -0.0398 
     18 CA         -0.4709  -21.1454  -47.3598 C.3       11 UNK         0.1400 
     19 N          -0.0423  -21.3369  -45.9674 N.am      11 UNK        -0.5000 
     20 C          -0.1610  -22.4898  -45.2863 C.2       10 UNK         0.5000 
     21 O          -0.5560  -23.5412  -45.7903 O.2       10 UNK        -0.5000 
     22 CA          0.1366  -22.4553  -43.7743 C.3       10 UNK         0.1400 
     23 CB          1.6434  -22.5505  -43.4943 C.3       10 UNK        -0.1800 
     24 N          -0.4286  -21.2709  -43.1250 N.am      10 UNK        -0.5000 
     25 C          -1.7436  -21.0197  -43.0318 C.2       9 UNK         0.5000 
     26 O          -2.6149  -21.8052  -43.4011 O.2       9 UNK        -0.5000 
     27 CA         -2.1569  -19.6347  -42.5032 C.3       9 UNK         0.1400 
     28 CB         -2.2617  -19.6260  -40.9708 C.3       9 UNK        -0.1800 
     29 N          -1.2368  -18.5910  -42.9552 N.am      9 UNK        -0.5000 
     30 C          -1.1446  -18.1800  -44.2285 C.2       8 UNK         0.5000 
     31 O          -1.8887  -18.5750  -45.1259 O.2       8 UNK        -0.5000 
     32 CA          0.0023  -17.2126  -44.5675 C.3       8 UNK         0.1400 
     33 CB         -0.4469  -15.7604  -44.3831 C.3       8 UNK        -0.1800 
     34 N           1.1991  -17.4727  -43.7645 N.am      8 UNK        -0.5000 
     35 C           1.9945  -18.5370  -43.9554 C.2       7 UNK         0.5000 
     36 O           1.8072  -19.3576  -44.8509 O.2       7 UNK        -0.5000 
     37 CA          3.1469  -18.7731  -42.9561 C.3       7 UNK         0.1400 
     38 CB          4.4700  -18.1982  -43.4795 C.3       7 UNK        -0.1800 
     39 N           2.8779  -18.2370  -41.6224 N.am      7 UNK        -0.5000 
     40 C           1.8824  -18.6542  -40.8300 C.2       6 UNK         0.5000 
     41 O           1.1500  -19.6019  -41.1146 O.2       6 UNK        -0.5000 
     42 CA          1.6225  -17.8572  -39.5360 C.3       6 UNK         0.1400 
     43 CB          2.2040  -18.6031  -38.3260 C.3       6 UNK        -0.1800 
     44 N           2.1317  -16.4788  -39.5378 N.am      6 UNK        -0.5000 
     45 C           1.7874  -15.5117  -40.4004 C.2       5 UNK         0.5000 
     46 O           1.0663  -15.6968  -41.3835 O.2       5 UNK        -0.5000 
     47 CA          2.4019  -14.1244  -40.1380 C.3       5 UNK         0.1400 
     48 CB          3.8182  -14.0354  -40.7210 C.3       5 UNK        -0.1800 
     49 N           1.5884  -13.0440  -40.6966 N.am      5 UNK        -0.5000 
     50 C           0.4490  -12.6048  -40.1442 C.2       4 UNK         0.5000 
     51 O          -0.0216  -13.0666  -39.1030 O.2       4 UNK        -0.5000 
     52 CA         -0.2784  -11.4348  -40.8339 C.3       4 UNK         0.1400 
     53 CB          0.0070  -10.1182  -40.0940 C.3       4 UNK        -0.1800 
     54 N           0.0834  -11.2662  -42.2408 N.am      4 UNK        -0.5000 
     55 C          -0.4178  -11.9903  -43.2488 C.2       3 UNK         0.5000 
     56 O          -1.2390  -12.8937  -43.0944 O.2       3 UNK        -0.5000 
     57 CA          0.0413  -11.6216  -44.6743 C.3       3 UNK         0.1400 
     58 CB          0.4356  -10.1361  -44.8295 C.3       3 UNK        -0.1800 
     59 N           1.1100  -12.4841  -45.1820 N.am      3 UNK        -0.5000 
     60 C           2.3264  -12.6912  -44.6517 C.2       2 UNK         0.5000 
     61 O           2.6842  -12.2387  -43.5628 O.2       2 UNK        -0.5000 
     62 CA          3.3288  -13.5306  -45.4779 C.3       2 UNK         0.1400 
     63 CB          3.6612  -14.8546  -44.7811 C.3       2 UNK        -0.1800 
     64 N           2.8728  -13.8304  -46.8359 N.am      2 UNK        -0.5000 
     65 C           2.8494  -12.9530  -47.8477 C.2       1 UNK         0.5000 
     66 O           3.2493  -11.7924  -47.7471 O.2       1 UNK        -0.5000 
     67 C          -1.9726  -21.4416  -47.5338 C.2       11 UNK         0.5000 
     68 O          -2.3281  -22.1950  -48.4380 O.2       11 UNK        -0.5000 
     69 N          -2.8201  -20.8841  -46.6574 N.am      12 UNK        -0.5000 
     70 CA         -4.2676  -21.1073  -46.6570 C.3       12 UNK         0.1400 
     71 CB         -4.9359  -20.1945  -45.6188 C.3       12 UNK        -0.1800 
     72 C          -4.6508  -22.5821  -46.4280 C.2       12 UNK         0.5000 
     73 O          -5.4952  -23.1037  -47.1560 O.2       12 UNK        -0.5000 
     74 N          -3.9901  -23.2419  -45.4656 N.am      13 UNK        -0.5000 
     75 CA         -4.1596  -24.6645  -45.1539 C.3       13 UNK         0.1400 
     76 CB         -3.3753  -25.0060  -43.8782 C.3       13 UNK        -0.1800 
     77 C          -3.7459  -25.5957  -46.3103 C.2       13 UNK         0.5000 
     78 O          -4.4044  -26.6105  -46.5394 O.2       13 UNK        -0.5000 
     79 N          -2.6904  -25.2143  -47.0414 N.am      14 UNK        -0.5000 
     80 CA         -2.2156  -25.8872  -48.2530 C.3       14 UNK         0.1400 
     81 CB         -0.7360  -25.5243  -48.4634 C.3       14 UNK        -0.1800 
     82 C          -3.0349  -25.5342  -49.5127 C.2       14 UNK         0.5000 
     83 O          -2.7238  -26.0423  -50.5919 O.2       14 UNK        -0.5000 
     84 N          -4.0183  -24.6308  -49.3824 N.am      15 UNK        -0.5000 
     85 CA         -4.8341  -24.0447  -50.4491 C.3       15 UNK         0.1400 
     86 CB         -5.7886  -25.0950  -51.0519 C.3       15 UNK        -0.1800 
     87 C          -3.9814  -23.3292  -51.5160 C.2       15 UNK         0.5000 
     88 O          -4.2936  -23.4054  -52.7042 O.2       15 UNK        -0.5000 
     89 N          -2.9176  -22.6490  -51.0668 N.am      16 UNK        -0.5000 
     90 CA         -1.8702  -21.9910  -51.8535 C.3       16 UNK         0.1400 
     91 CB         -2.4448  -20.8144  -52.6651 C.3       16 UNK        -0.1800 
     92 C          -1.0461  -22.9834  -52.6999 C.2       16 UNK         0.5000 
     93 O          -0.6097  -22.6430  -53.7985 O.2       16 UNK        -0.5000 
     94 N          -0.8597  -24.1982  -52.1601 N.am      17 UNK        -0.5000 
     95 CA         -0.2796  -25.3796  -52.8064 C.3       17 UNK         0.1400 
     96 CB          1.2002  -25.1542  -53.1829 C.3       17 UNK        -0.1800 
     97 C          -1.1593  -25.8488  -53.9825 C.2       17 UNK         0.5000 
     98 O          -0.6647  -26.0458  -55.0939 O.2       17 UNK        -0.5000 
     99 N          -2.4618  -25.9951  -53.6933 N.am      18 UNK        -0.5000 
    100 CA        -3.5479  -26.3373  -54.6170 C.3       18 UNK         0.1400 
    101 CB        -3.4006  -27.7882  -55.1211 C.3       18 UNK        -0.1800 
    102 C         -3.7040  -25.3063  -55.7567 C.2       18 UNK         0.5000 
    103 O         -3.7149  -25.6710  -56.9342 O.2       18 UNK        -0.5000 
    104 N         -3.8292  -24.0312  -55.3732 N.am      19 UNK        -0.5000 
    105 CA        -4.0325  -22.8850  -56.2580 C.3       19 UNK         0.1400 
    106 CB        -2.7036  -22.1383  -56.4673 C.3       19 UNK        -0.1800 
    107 C         -5.1565  -21.9889  -55.7058 C.2       19 UNK         0.5000 
    108 O         -5.0289  -20.7631  -55.6885 O.2       19 UNK        -0.5000 
    109 N         -6.2437  -22.6356  -55.2579 N.am      20 UNK        -0.5000 
    110 CA        -7.5215  -22.0513  -54.8328 C.3       20 UNK         0.1400 
    111 CB        -8.2578  -21.4522  -56.0497 C.3       20 UNK        -0.1800 
    112 C         -7.4184  -21.0555  -53.6573 C.2       20 UNK         0.5000 
    113 O         -8.1965  -20.1012  -53.5975 O.2       20 UNK        -0.5000 
    114 N         -6.4580  -21.2848  -52.7474 N.am      21 UNK        -0.5000 
    115 CA        -6.2006  -20.4966  -51.5312 C.3       21 UNK         0.1400 
    116 CB        -7.3087  -20.7442  -50.4871 C.3       21 UNK        -0.1800 
    117 C         -5.9569  -18.9989  -51.8135 C.2       21 UNK         0.5000 
    118 O         -6.4370  -18.1398  -51.0726 O.2       21 UNK        -0.5000 
    119 N         -5.2264  -18.7326  -52.9037 N.am      22 UNK        -0.5000 
    120 CA        -4.9141  -17.4044  -53.4562 C.3       22 UNK         0.1400 
    121 C         -6.1018  -16.7245  -54.2052 C.2       22 UNK         0.5000 
    122 N         -7.2449  -17.3739  -54.3961 N.am      22 UNK        -0.7600 
    123 O         -5.9765  -15.5881  -54.6537 O.2       22 UNK        -0.5000 
    124 C124       -4.2311  -16.4259  -52.4522 C.3       23 UNK        -0.0398 
    125 S125       -2.8293  -17.1240  -51.5102 S.3       23 UNK        -0.2404 
    126 C126       -1.5153  -17.1097  -52.7684 C.3       23 UNK        -0.0205 
    127 H127        0.0075  -16.7501  -48.9354 H         1 UNK         0.0600 
    128 H128       -1.4605  -15.7815  -49.0975 H         1 UNK         0.0600 
    129 H129       -0.8914  -16.2621  -47.4979 H         1 UNK         0.0600 
    130 H130        1.6322  -15.3924  -49.6737 H         1 UNK         0.3000 
    131 H131        1.6820  -12.6142  -49.5883 H         1 UNK         0.0600 
    132 H132        4.1644  -12.8859  -50.1606 H         1 UNK         0.0800 
    133 H133        3.9936  -14.6001  -49.8993 H         1 UNK         0.0800 
    134 H134        3.4051  -15.6254  -53.4119 H         1 UNK         0.0800 
    135 H135        4.2275  -15.8400  -51.8924 H         1 UNK         0.0800 
    136 H136        0.6651  -15.5240  -53.0888 H         1 UNK         0.1150 
    137 H137       -0.5968  -19.1357  -51.1660 H         1 UNK         0.1150 
    138 H138        3.4426  -17.7673  -50.7211 H         1 UNK         0.1150 
    139 H139        1.1628  -20.6483  -50.2841 H         1 UNK         0.0800 
    140 H140        2.8166  -20.1125  -50.2127 H         1 UNK         0.0800 
    141 H141       -0.6563  -19.5774  -48.8786 H         1 UNK         0.0800 
    142 H142       -0.4898  -18.9608  -47.2675 H         1 UNK         0.0800 
    143 H143        0.0616  -21.8872  -47.9590 H         1 UNK         0.0600 
    144 H144        0.3801  -20.5366  -45.5065 H         1 UNK         0.3000 
    145 H145       -0.3381  -23.3298  -43.3244 H         1 UNK         0.0600 
    146 H146        2.0423  -23.4983  -43.8575 H         1 UNK         0.0600 
    147 H147        2.2025  -21.7569  -43.9869 H         1 UNK         0.0600 
    148 H148        1.8524  -22.4967  -42.4256 H         1 UNK         0.0600 
    149 H149        0.2218  -20.5947  -42.7431 H         1 UNK         0.3000 
    150 H150       -3.1467  -19.4069  -42.9039 H         1 UNK         0.0600 
    151 H151       -2.5547  -18.6437  -40.6002 H         1 UNK         0.0600 
    152 H152       -1.3224  -19.8997  -40.4920 H         1 UNK         0.0600 
    153 H153       -3.0154  -20.3384  -40.6332 H         1 UNK         0.0600 
    154 H154       -0.5654  -18.2495  -42.2831 H         1 UNK         0.3000 
    155 H155        0.2609  -17.3513  -45.6189 H         1 UNK         0.0600 
    156 H156       -0.7425  -15.5586  -43.3533 H         1 UNK         0.0600 
    157 H157       -1.3013  -15.5287  -45.0200 H         1 UNK         0.0600 
    158 H158        0.3489  -15.0670  -44.6455 H         1 UNK         0.0600 
    159 H159        1.3598  -16.8553  -42.9739 H         1 UNK         0.3000 
    160 H160        3.2690  -19.8537  -42.8605 H         1 UNK         0.0600 
    161 H161        4.6552  -18.5060  -44.5096 H         1 UNK         0.0600 
    162 H162        5.3110  -18.5479  -42.8807 H         1 UNK         0.0600 
    163 H163        4.4752  -17.1102  -43.4514 H         1 UNK         0.0600 
    164 H164        3.4356  -17.4525  -41.3204 H         1 UNK         0.3000 
    165 H165        0.5391  -17.8016  -39.4126 H         1 UNK         0.0600 
    166 H166        1.9331  -18.1121  -37.3911 H         1 UNK         0.0600 
    167 H167        1.8237  -19.6244  -38.2754 H         1 UNK         0.0600 
    168 H168        3.2922  -18.6600  -38.3741 H         1 UNK         0.0600 
    169 H169        2.7522  -16.2424  -38.7767 H         1 UNK         0.3000 
    170 H170        2.4712  -13.9808  -39.0575 H         1 UNK         0.0600 
    171 H171        4.2838  -13.0798  -40.4795 H         1 UNK         0.0600 
    172 H172        4.4629  -14.8207  -40.3246 H         1 UNK         0.0600 
    173 H173        3.8052  -14.1333  -41.8036 H         1 UNK         0.0600 
    174 H174        1.8869  -12.6566  -41.5844 H         1 UNK         0.3000 
    175 H175       -1.3505  -11.6326  -40.7683 H         1 UNK         0.0600 
    176 H176        1.0660   -9.8589  -40.1282 H         1 UNK         0.0600 
    177 H177       -0.5560   -9.2916  -40.5278 H         1 UNK         0.0600 
    178 H178       -0.2799  -10.1890  -39.0439 H         1 UNK         0.0600 
    179 H179        0.7794  -10.5658  -42.4522 H         1 UNK         0.3000 
    180 H180       -0.8186  -11.7961  -45.3230 H         1 UNK         0.0600 
    181 H181        0.6031   -9.8889  -45.8780 H         1 UNK         0.0600 
    182 H182        1.3477   -9.8878  -44.2862 H         1 UNK         0.0600 
    183 H183       -0.3566   -9.4794  -44.4675 H         1 UNK         0.0600 
    184 H184        0.8959  -12.9412  -46.0620 H         1 UNK         0.3000 
    185 H185        4.2515  -12.9512  -45.5520 H         1 UNK         0.0600 
    186 H186        2.7612  -15.3956  -44.4952 H         1 UNK         0.0600 
    187 H187        4.2575  -15.5048  -45.4217 H         1 UNK         0.0600 
    188 H188        4.2472  -14.6779  -43.8816 H         1 UNK         0.0600 
    189 H189        2.5189  -14.7607  -47.0033 H         1 UNK         0.3000 
    190 H190       -2.4576  -20.2356  -45.9642 H         1 UNK         0.3000 
    191 H191       -4.6406  -20.8212  -47.6428 H         1 UNK         0.0600 
    192 H192       -4.6121  -20.4296  -44.6054 H         1 UNK         0.0600 
    193 H193       -6.0209  -20.3006  -45.6486 H         1 UNK         0.0600 
    194 H194       -4.7056  -19.1460  -45.8088 H         1 UNK         0.0600 
    195 H195       -3.3425  -22.7243  -44.8759 H         1 UNK         0.3000 
    196 H196       -5.2198  -24.8355  -44.9567 H         1 UNK         0.0600 
    197 H197       -3.5024  -26.0554  -43.6093 H         1 UNK         0.0600 
    198 H198       -3.7190  -24.4097  -43.0328 H         1 UNK         0.0600 
    199 H199       -2.3074  -24.8250  -44.0028 H         1 UNK         0.0600 
    200 H200       -2.1678  -24.3945  -46.7487 H         1 UNK         0.3000 
    201 H201       -2.2863  -26.9672  -48.1101 H         1 UNK         0.0600 
    202 H202       -0.1365  -25.8010  -47.5959 H         1 UNK         0.0600 
    203 H203       -0.6045  -24.4545  -48.6305 H         1 UNK         0.0600 
    204 H204       -0.3175  -26.0473  -49.3242 H         1 UNK         0.0600 
    205 H205       -4.1863  -24.2496  -48.4592 H         1 UNK         0.3000 
    206 H206       -5.4437  -23.2733  -49.9780 H         1 UNK         0.0600 
    207 H207       -6.4802  -24.6359  -51.7594 H         1 UNK         0.0600 
    208 H208       -5.2483  -25.8786  -51.5834 H         1 UNK         0.0600 
    209 H209       -6.3888  -25.5700  -50.2759 H         1 UNK         0.0600 
    210 H210       -2.7690  -22.6156  -50.0568 H         1 UNK         0.3000 
    211 H211       -1.1693  -21.5734  -51.1298 H         1 UNK         0.0600 
    212 H212       -3.1868  -21.1383  -53.3931 H         1 UNK         0.0600 
    213 H213       -1.6589  -20.2926  -53.2112 H         1 UNK         0.0600 
    214 H214       -2.9154  -20.0885  -52.0045 H         1 UNK         0.0600 
    215 H215       -1.3054  -24.3817  -51.2720 H         1 UNK         0.3000 
    216 H216       -0.3065  -26.1798  -52.0654 H         1 UNK         0.0600 
    217 H217        1.6535  -26.0802  -53.5380 H         1 UNK         0.0600 
    218 H218        1.7786  -24.8186  -52.3222 H         1 UNK         0.0600 
    219 H219        1.3155  -24.4137  -53.9745 H         1 UNK         0.0600 
    220 H220       -2.7431  -25.8247  -52.7342 H         1 UNK         0.3000 
    221 H221       -4.4690  -26.2872  -54.0346 H         1 UNK         0.0600 
    222 H222       -2.5140  -27.9163  -55.7426 H         1 UNK         0.0600 
    223 H223       -3.3305  -28.4884  -54.2888 H         1 UNK         0.0600 
    224 H224       -4.2637  -28.0818  -55.7196 H         1 UNK         0.0600 
    225 H225       -3.8582  -23.8217  -54.3752 H         1 UNK         0.3000 
    226 H226       -4.3787  -23.2296  -57.2343 H         1 UNK         0.0600 
    227 H227       -1.9252  -22.8108  -56.8282 H         1 UNK         0.0600 
    228 H228       -2.8149  -21.3421  -57.2040 H         1 UNK         0.0600 
    229 H229       -2.3485  -21.6821  -55.5447 H         1 UNK         0.0600 
    230 H230       -6.2154  -23.6453  -55.2740 H         1 UNK         0.3000 
    231 H231       -8.1244  -22.8816  -54.4626 H         1 UNK         0.0600 
    232 H232       -7.7405  -20.5758  -56.4420 H         1 UNK         0.0600 
    233 H233       -8.3438  -22.1799  -56.8567 H         1 UNK         0.0600 
    234 H234       -9.2703  -21.1442  -55.7860 H         1 UNK         0.0600 
    235 H235       -5.8307  -22.0645  -52.9148 H         1 UNK         0.3000 
    236 H236       -5.2674  -20.8611  -51.1050 H         1 UNK         0.0600 
    237 H237       -8.2674  -20.3398  -50.8133 H         1 UNK         0.0600 
    238 H238       -7.4429  -21.8088  -50.2964 H         1 UNK         0.0600 
    239 H239       -7.0613  -20.2742  -49.5344 H         1 UNK         0.0600 
    240 H240       -4.9377  -19.5111  -53.4805 H         1 UNK         0.3000 
    241 H241       -4.1848  -17.6057  -54.2411 H         1 UNK         0.0600 
    242 H242       -7.9914  -16.9152  -54.8932 H         1 UNK         0.3800 
    243 H243       -7.3922  -18.3094  -54.0328 H         1 UNK         0.3800 
    244 H244       -3.8770  -15.5357  -52.9744 H         1 UNK         0.0800 
    245 H245       -4.9615  -16.0635  -51.7277 H         1 UNK         0.0800 
    246 H246       -1.5636  -16.1684  -53.3177 H         1 UNK         0.0800 
    247 H247       -1.7008  -17.9005  -53.4954 H         1 UNK         0.0800 
@<TRIPOS>BOND
     1    1    2 1    
     2    1  127 1    
     3    1  128 1    
     4    1  129 1    
     5    2    3 2    
     6    2    4 am   BACKBONE|DICT|INTERRES
     7    4    5 1    
     8    4  130 1    
     9    5    6 1    
    10    5   65 1    
    11    5  131 1    
    12    6    7 1    
    13    6  132 1    
    14    6  133 1    
    15    7    8 1    
    16    8    9 1    
    17    8  134 1    
    18    8  135 1    
    19    9   10 ar   
    20    9   14 ar   
    21   10   11 ar   
    22   10  136 1    
    23   11   12 ar   
    24   11  126 1    
    25   12   13 ar   
    26   12  137 1    
    27   13   14 ar   
    28   13   15 1    
    29   14  138 1    
    30   15   16 1    
    31   15  139 1    
    32   15  140 1    
    33   16   17 1    
    34   17   18 1    
    35   17  141 1    
    36   17  142 1    
    37   18   19 1    
    38   18   67 1    
    39   18  143 1    
    40   19   20 am   BACKBONE|DICT|INTERRES
    41   19  144 1    
    42   20   21 2    
    43   20   22 1    
    44   22   23 1    
    45   22   24 1    
    46   22  145 1    
    47   23  146 1    
    48   23  147 1    
    49   23  148 1    
    50   24   25 am   BACKBONE|DICT|INTERRES
    51   24  149 1    
    52   25   26 2    
    53   25   27 1    
    54   27   28 1    
    55   27   29 1    
    56   27  150 1    
    57   28  151 1    
    58   28  152 1    
    59   28  153 1    
    60   29   30 am   BACKBONE|DICT|INTERRES
    61   29  154 1    
    62   30   31 2    
    63   30   32 1    
    64   32   33 1    
    65   32   34 1    
    66   32  155 1    
    67   33  156 1    
    68   33  157 1    
    69   33  158 1    
    70   34   35 am   BACKBONE|DICT|INTERRES
    71   34  159 1    
    72   35   36 2    
    73   35   37 1    
    74   37   38 1    
    75   37   39 1    
    76   37  160 1    
    77   38  161 1    
    78   38  162 1    
    79   38  163 1    
    80   39   40 am   BACKBONE|DICT|INTERRES
    81   39  164 1    
    82   40   41 2    
    83   40   42 1    
    84   42   43 1    
    85   42   44 1    
    86   42  165 1    
    87   43  166 1    
    88   43  167 1    
    89   43  168 1    
    90   44   45 am   BACKBONE|DICT|INTERRES
    91   44  169 1    
    92   45   46 2    
    93   45   47 1    
    94   47   48 1    
    95   47   49 1    
    96   47  170 1    
    97   48  171 1    
    98   48  172 1    
    99   48  173 1    
   100   49   50 am   BACKBONE|DICT|INTERRES
   101   49  174 1    
   102   50   51 2    
   103   50   52 1    
   104   52   53 1    
   105   52   54 1    
   106   52  175 1    
   107   53  176 1    
   108   53  177 1    
   109   53  178 1    
   110   54   55 am   BACKBONE|DICT|INTERRES
   111   54  179 1    
   112   55   56 2    
   113   55   57 1    
   114   57   58 1    
   115   57   59 1    
   116   57  180 1    
   117   58  181 1    
   118   58  182 1    
   119   58  183 1    
   120   59   60 am   BACKBONE|DICT|INTERRES
   121   59  184 1    
   122   60   61 2    
   123   60   62 1    
   124   62   63 1    
   125   62   64 1    
   126   62  185 1    
   127   63  186 1    
   128   63  187 1    
   129   63  188 1    
   130   64   65 am   BACKBONE|DICT|INTERRES
   131   64  189 1    
   132   65   66 2    
   133   67   68 2    
   134   67   69 am   BACKBONE|DICT|INTERRES
   135   69   70 1    
   136   69  190 1    
   137   70   71 1    
   138   70   72 1    
   139   70  191 1    
   140   71  192 1    
   141   71  193 1    
   142   71  194 1    
   143   72   73 2    
   144   72   74 am   BACKBONE|DICT|INTERRES
   145   74   75 1    
   146   74  195 1    
   147   75   76 1    
   148   75   77 1    
   149   75  196 1    
   150   76  197 1    
   151   76  198 1    
   152   76  199 1    
   153   77   78 2    
   154   77   79 am   BACKBONE|DICT|INTERRES
   155   79   80 1    
   156   79  200 1    
   157   80   81 1    
   158   80   82 1    
   159   80  201 1    
   160   81  202 1    
   161   81  203 1    
   162   81  204 1    
   163   82   83 2    
   164   82   84 am   BACKBONE|DICT|INTERRES
   165   84   85 1    
   166   84  205 1    
   167   85   86 1    
   168   85   87 1    
   169   85  206 1    
   170   86  207 1    
   171   86  208 1    
   172   86  209 1    
   173   87   88 2    
   174   87   89 am   BACKBONE|DICT|INTERRES
   175   89   90 1    
   176   89  210 1    
   177   90   91 1    
   178   90   92 1    
   179   90  211 1    
   180   91  212 1    
   181   91  213 1    
   182   91  214 1    
   183   92   93 2    
   184   92   94 am   BACKBONE|DICT|INTERRES
   185   94   95 1    
   186   94  215 1    
   187   95   96 1    
   188   95   97 1    
   189   95  216 1    
   190   96  217 1    
   191   96  218 1    
   192   96  219 1    
   193   97   98 2    
   194   97   99 am   BACKBONE|DICT|INTERRES
   195   99  100 1    
   196   99  220 1    
   197  100  101 1    
   198  100  102 1    
   199  100  221 1    
   200  101  222 1    
   201  101  223 1    
   202  101  224 1    
   203  102  103 2    
   204  102  104 am   BACKBONE|DICT|INTERRES
   205  104  105 1    
   206  104  225 1    
   207  105  106 1    
   208  105  107 1    
   209  105  226 1    
   210  106  227 1    
   211  106  228 1    
   212  106  229 1    
   213  107  108 2    
   214  107  109 am   BACKBONE|DICT|INTERRES
   215  109  110 1    
   216  109  230 1    
   217  110  111 1    
   218  110  112 1    
   219  110  231 1    
   220  111  232 1    
   221  111  233 1    
   222  111  234 1    
   223  112  113 2    
   224  112  114 am   BACKBONE|DICT|INTERRES
   225  114  115 1    
   226  114  235 1    
   227  115  116 1    
   228  115  117 1    
   229  115  236 1    
   230  116  237 1    
   231  116  238 1    
   232  116  239 1    
   233  117  118 2    
   234  117  119 am   BACKBONE|DICT|INTERRES
   235  119  120 1    
   236  119  240 1    
   237  120  121 1    
   238  120  124 1    
   239  120  241 1    
   240  121  122 am   BACKBONE|DICT|INTERRES
   241  121  123 2    
   242  122  242 1    
   243  122  243 1    
   244  124  125 1    
   245  124  244 1    
   246  124  245 1    
   247  125  126 1    
   248  126  246 1    
   249  126  247 1    
@<TRIPOS>SUBSTRUCTURE
     1 UNK         1 GROUP             0       ****    0 ROOT    
