@<TRIPOS>MOLECULE
3R540
247   249    1
SMALL
USER_CHARGES


@<TRIPOS>ATOM
      1 CA         -1.2815   -8.2939  -47.1677 C.3       0 UNK        -0.1800 
      2 C          -0.0638   -9.1166  -46.7729 C.2       0 UNK         0.5000 
      3 O           0.4942   -8.9089  -45.6952 O.2       0 UNK        -0.5000 
      4 N           0.3460  -10.0567  -47.6355 N.am      1 UNK        -0.5000 
      5 CA          1.4907  -10.9551  -47.4313 C.3       1 UNK         0.1400 
      6 C6          1.8684  -11.7399  -48.7155 C.3       23 UNK        -0.0398 
      7 S7          0.4710  -12.5793  -49.5481 S.3       23 UNK        -0.2404 
      8 C8          0.6873  -14.2894  -48.9698 C.3       23 UNK        -0.0205 
      9 C9         -0.3799  -15.2126  -49.5297 C.ar      23 UNK        -0.0193 
     10 C10        -0.0878  -16.1078  -50.5611 C.ar      23 UNK        -0.1150 
     11 C11        -1.0717  -16.9733  -51.0527 C.ar      23 UNK        -0.0193 
     12 C12        -2.3615  -16.9295  -50.5079 C.ar      23 UNK        -0.1150 
     13 C13        -2.6639  -16.0286  -49.4797 C.ar      23 UNK        -0.0193 
     14 C14        -1.6677  -15.1782  -48.9970 C.ar      23 UNK        -0.1150 
     15 C15        -4.0650  -15.9343  -48.8900 C.3       23 UNK        -0.0205 
     16 S16        -4.5901  -17.4053  -47.9492 S.3       23 UNK        -0.2404 
     17 C17        -3.0982  -17.9493  -47.0363 C.3       23 UNK        -0.0398 
     18 CA         -2.6262  -19.3272  -47.5600 C.3       11 UNK         0.1400 
     19 N          -1.2029  -19.5844  -47.3181 N.am      11 UNK        -0.5000 
     20 C          -0.5335  -20.6053  -47.8739 C.2       10 UNK         0.5000 
     21 O          -1.0414  -21.3825  -48.6784 O.2       10 UNK        -0.5000 
     22 CA          0.9089  -20.8594  -47.3989 C.3       10 UNK         0.1400 
     23 CB          1.9093  -19.9600  -48.1394 C.3       10 UNK        -0.1800 
     24 N           1.0483  -20.6997  -45.9502 N.am      10 UNK        -0.5000 
     25 C           0.4393  -21.4848  -45.0490 C.2       9 UNK         0.5000 
     26 O          -0.2244  -22.4754  -45.3530 O.2       9 UNK        -0.5000 
     27 CA          0.5336  -21.0690  -43.5684 C.3       9 UNK         0.1400 
     28 CB          1.8049  -21.6314  -42.9168 C.3       9 UNK        -0.1800 
     29 N           0.4777  -19.6182  -43.3818 N.am      9 UNK        -0.5000 
     30 C          -0.5786  -18.8514  -43.6921 C.2       8 UNK         0.5000 
     31 O          -1.6467  -19.2968  -44.1114 O.2       8 UNK        -0.5000 
     32 CA         -0.3854  -17.3281  -43.5776 C.3       8 UNK         0.1400 
     33 CB         -0.5287  -16.8693  -42.1198 C.3       8 UNK        -0.1800 
     34 N           0.9106  -16.9046  -44.1103 N.am      8 UNK        -0.5000 
     35 C           1.2761  -17.0314  -45.3940 C.2       7 UNK         0.5000 
     36 O           0.5068  -17.3998  -46.2805 O.2       7 UNK        -0.5000 
     37 CA          2.7552  -16.7668  -45.7326 C.3       7 UNK         0.1400 
     38 CB          3.0132  -15.2867  -46.0157 C.3       7 UNK        -0.1800 
     39 N           3.6433  -17.1886  -44.6542 N.am      7 UNK        -0.5000 
     40 C           3.9898  -18.4572  -44.4105 C.2       6 UNK         0.5000 
     41 O           3.6106  -19.4091  -45.0909 O.2       6 UNK        -0.5000 
     42 CA          4.8852  -18.6990  -43.1810 C.3       6 UNK         0.1400 
     43 CB          6.3683  -18.5891  -43.5643 C.3       6 UNK        -0.1800 
     44 N           4.5988  -17.7699  -42.0848 N.am      6 UNK        -0.5000 
     45 C           3.4600  -17.7720  -41.3784 C.2       5 UNK         0.5000 
     46 O           2.5476  -18.5772  -41.5628 O.2       5 UNK        -0.5000 
     47 CA          3.2947  -16.6617  -40.3239 C.3       5 UNK         0.1400 
     48 CB          3.9460  -17.0776  -38.9966 C.3       5 UNK        -0.1800 
     49 N           3.8291  -15.3608  -40.7428 N.am      5 UNK        -0.5000 
     50 C           3.3724  -14.6520  -41.7836 C.2       4 UNK         0.5000 
     51 O           2.5087  -15.0639  -42.5603 O.2       4 UNK        -0.5000 
     52 CA          4.0101  -13.2729  -42.0225 C.3       4 UNK         0.1400 
     53 CB          5.0449  -13.3444  -43.1554 C.3       4 UNK        -0.1800 
     54 N           2.9778  -12.3012  -42.3771 N.am      4 UNK        -0.5000 
     55 C           2.2166  -11.6486  -41.4855 C.2       3 UNK         0.5000 
     56 O           2.4044  -11.6914  -40.2688 O.2       3 UNK        -0.5000 
     57 CA          1.0328  -10.8246  -42.0373 C.3       3 UNK         0.1400 
     58 CB          1.4539   -9.3675  -42.2789 C.3       3 UNK        -0.1800 
     59 N           0.4953  -11.3772  -43.2804 N.am      3 UNK        -0.5000 
     60 C          -0.1037  -12.5714  -43.3857 C.2       2 UNK         0.5000 
     61 O          -0.4595  -13.2258  -42.4062 O.2       2 UNK        -0.5000 
     62 CA         -0.3303  -13.1481  -44.8024 C.3       2 UNK         0.1400 
     63 CB         -1.7948  -13.5696  -45.0067 C.3       2 UNK        -0.1800 
     64 N           0.0701  -12.2714  -45.9099 N.am      2 UNK        -0.5000 
     65 C           1.3203  -11.8915  -46.2157 C.2       1 UNK         0.5000 
     66 O           2.3083  -12.2041  -45.5518 O.2       1 UNK        -0.5000 
     67 C          -3.5243  -20.4713  -47.0347 C.2       11 UNK         0.5000 
     68 O          -4.4678  -20.8647  -47.7204 O.2       11 UNK        -0.5000 
     69 N          -3.1998  -21.0203  -45.8554 N.am      12 UNK        -0.5000 
     70 CA         -3.8873  -22.1749  -45.2710 C.3       12 UNK         0.1400 
     71 CB         -3.3987  -22.4008  -43.8326 C.3       12 UNK        -0.1800 
     72 C          -3.7355  -23.4539  -46.1190 C.2       12 UNK         0.5000 
     73 O          -4.7044  -24.1990  -46.2650 O.2       12 UNK        -0.5000 
     74 N          -2.5426  -23.6612  -46.6944 N.am      13 UNK        -0.5000 
     75 CA         -2.2496  -24.7323  -47.6486 C.3       13 UNK         0.1400 
     76 CB         -0.7281  -24.8568  -47.8207 C.3       13 UNK        -0.1800 
     77 C          -2.9476  -24.5320  -49.0085 C.2       13 UNK         0.5000 
     78 O          -3.3526  -25.5130  -49.6332 O.2       13 UNK        -0.5000 
     79 N          -3.0917  -23.2728  -49.4438 N.am      14 UNK        -0.5000 
     80 CA         -3.8400  -22.8954  -50.6425 C.3       14 UNK         0.1400 
     81 CB         -3.5182  -21.4414  -51.0240 C.3       14 UNK        -0.1800 
     82 C          -5.3554  -23.0827  -50.4625 C.2       14 UNK         0.5000 
     83 O          -6.0408  -23.4251  -51.4271 O.2       14 UNK        -0.5000 
     84 N          -5.8456  -22.8449  -49.2374 N.am      15 UNK        -0.5000 
     85 CA         -7.2215  -23.0297  -48.7610 C.3       15 UNK         0.1400 
     86 CB         -7.5871  -24.5286  -48.7749 C.3       15 UNK        -0.1800 
     87 C          -8.2605  -22.1647  -49.5073 C.2       15 UNK         0.5000 
     88 O          -9.4395  -22.5188  -49.5441 O.2       15 UNK        -0.5000 
     89 N          -7.7904  -21.0677  -50.1230 N.am      16 UNK        -0.5000 
     90 CA         -8.5030  -20.1726  -51.0457 C.3       16 UNK         0.1400 
     91 CB         -9.6557  -19.4419  -50.3266 C.3       16 UNK        -0.1800 
     92 C          -8.9642  -20.8532  -52.3581 C.2       16 UNK         0.5000 
     93 O          -9.7461  -20.2615  -53.1040 O.2       16 UNK        -0.5000 
     94 N          -8.4651  -22.0668  -52.6283 N.am      17 UNK        -0.5000 
     95 CA         -8.7979  -22.8946  -53.7892 C.3       17 UNK         0.1400 
     96 CB         -9.3438  -24.2363  -53.2712 C.3       17 UNK        -0.1800 
     97 C          -7.5780  -23.1333  -54.6994 C.2       17 UNK         0.5000 
     98 O          -7.7274  -23.7589  -55.7496 O.2       17 UNK        -0.5000 
     99 N          -6.3985  -22.6593  -54.2692 N.am      18 UNK        -0.5000 
    100 CA        -5.0694  -22.9203  -54.8295 C.3       18 UNK         0.1400 
    101 CB        -4.9210  -22.3000  -56.2344 C.3       18 UNK        -0.1800 
    102 C         -4.7082  -24.4220  -54.7742 C.2       18 UNK         0.5000 
    103 O         -4.2307  -24.9817  -55.7624 O.2       18 UNK        -0.5000 
    104 N         -5.0011  -25.0486  -53.6244 N.am      19 UNK        -0.5000 
    105 CA        -4.8595  -26.4798  -53.3636 C.3       19 UNK         0.1400 
    106 CB        -5.6203  -26.8328  -52.0723 C.3       19 UNK        -0.1800 
    107 C         -3.3911  -26.9542  -53.3497 C.2       19 UNK         0.5000 
    108 O         -2.9061  -27.4408  -54.3720 O.2       19 UNK        -0.5000 
    109 N         -2.7133  -26.8359  -52.1996 N.am      20 UNK        -0.5000 
    110 CA        -1.3361  -27.3063  -51.9984 C.3       20 UNK         0.1400 
    111 CB        -1.2590  -28.0434  -50.6502 C.3       20 UNK        -0.1800 
    112 C         -0.2976  -26.1683  -52.0750 C.2       20 UNK         0.5000 
    113 O          0.8871  -26.4094  -51.8394 O.2       20 UNK        -0.5000 
    114 N         -0.7497  -24.9534  -52.3945 N.am      21 UNK        -0.5000 
    115 CA         0.0179  -23.7150  -52.4665 C.3       21 UNK         0.1400 
    116 CB         0.3008  -23.2290  -51.0317 C.3       21 UNK        -0.1800 
    117 C         -0.8195  -22.6975  -53.2679 C.2       21 UNK         0.5000 
    118 O         -2.0040  -22.9515  -53.4868 O.2       21 UNK        -0.5000 
    119 N         -0.2773  -21.5593  -53.7156 N.am      22 UNK        -0.5000 
    120 CA         1.1307  -21.1266  -53.6539 C.3       22 UNK         0.1400 
    121 C          1.9421  -21.4796  -54.9358 C.2       22 UNK         0.5000 
    122 N          1.3543  -22.1085  -55.9466 N.am      22 UNK        -0.7600 
    123 O          3.1349  -21.1981  -55.0070 O.2       22 UNK        -0.5000 
    124 C124        1.2385  -19.6159  -53.3190 C.3       23 UNK        -0.0398 
    125 S125        0.4867  -19.1777  -51.7091 S.3       23 UNK        -0.2404 
    126 C126       -0.7367  -17.9183  -52.1993 C.3       23 UNK        -0.0205 
    127 H127       -1.6732   -8.5907  -48.1409 H         1 UNK         0.0600 
    128 H128       -1.0205   -7.2367  -47.2138 H         1 UNK         0.0600 
    129 H129       -2.0735   -8.4190  -46.4294 H         1 UNK         0.0600 
    130 H130       -0.1552  -10.1893  -48.5032 H         1 UNK         0.3000 
    131 H131        2.3438  -10.3163  -47.1919 H         1 UNK         0.0600 
    132 H132        2.2893  -11.0401  -49.4386 H         1 UNK         0.0800 
    133 H133        2.6689  -12.4551  -48.5161 H         1 UNK         0.0800 
    134 H134        0.6160  -14.3072  -47.8831 H         1 UNK         0.0800 
    135 H135        1.6831  -14.6478  -49.2351 H         1 UNK         0.0800 
    136 H136        0.9074  -16.1368  -50.9821 H         1 UNK         0.1150 
    137 H137       -3.1319  -17.5870  -50.8854 H         1 UNK         0.1150 
    138 H138       -1.8939  -14.4761  -48.2083 H         1 UNK         0.1150 
    139 H139       -4.7783  -15.7640  -49.6974 H         1 UNK         0.0800 
    140 H140       -4.1451  -15.0664  -48.2334 H         1 UNK         0.0800 
    141 H141       -3.3223  -17.9843  -45.9687 H         1 UNK         0.0800 
    142 H142       -2.3055  -17.2091  -47.1395 H         1 UNK         0.0800 
    143 H143       -2.7324  -19.3170  -48.6472 H         1 UNK         0.0600 
    144 H144       -0.7090  -18.9476  -46.7014 H         1 UNK         0.3000 
    145 H145        1.1585  -21.8952  -47.6380 H         1 UNK         0.0600 
    146 H146        2.9244  -20.1051  -47.7699 H         1 UNK         0.0600 
    147 H147        1.9158  -20.1930  -49.2044 H         1 UNK         0.0600 
    148 H148        1.6614  -18.9040  -48.0428 H         1 UNK         0.0600 
    149 H149        1.6403  -19.9455  -45.6237 H         1 UNK         0.3000 
    150 H150       -0.3256  -21.4989  -43.0501 H         1 UNK         0.0600 
    151 H151        2.7075  -21.2396  -43.3841 H         1 UNK         0.0600 
    152 H152        1.8374  -22.7182  -43.0023 H         1 UNK         0.0600 
    153 H153        1.8450  -21.3869  -41.8551 H         1 UNK         0.0600 
    154 H154        1.2987  -19.1782  -42.9776 H         1 UNK         0.3000 
    155 H155       -1.1652  -16.8418  -44.1675 H         1 UNK         0.0600 
    156 H156        0.1885  -17.3627  -41.4648 H         1 UNK         0.0600 
    157 H157       -1.5261  -17.0922  -41.7393 H         1 UNK         0.0600 
    158 H158       -0.3766  -15.7954  -42.0264 H         1 UNK         0.0600 
    159 H159        1.5732  -16.5091  -43.4497 H         1 UNK         0.3000 
    160 H160        3.0037  -17.3320  -46.6333 H         1 UNK         0.0600 
    161 H161        2.7059  -14.6699  -45.1735 H         1 UNK         0.0600 
    162 H162        2.4657  -14.9537  -46.8919 H         1 UNK         0.0600 
    163 H163        4.0690  -15.0945  -46.2069 H         1 UNK         0.0600 
    164 H164        3.9521  -16.4709  -44.0155 H         1 UNK         0.3000 
    165 H165        4.6976  -19.7150  -42.8271 H         1 UNK         0.0600 
    166 H166        7.0129  -18.8287  -42.7184 H         1 UNK         0.0600 
    167 H167        6.6234  -17.5859  -43.9083 H         1 UNK         0.0600 
    168 H168        6.6158  -19.2846  -44.3674 H         1 UNK         0.0600 
    169 H169        5.3010  -17.0768  -41.8716 H         1 UNK         0.3000 
    170 H170        2.2239  -16.5362  -40.1499 H         1 UNK         0.0600 
    171 H171        3.7481  -16.3453  -38.2136 H         1 UNK         0.0600 
    172 H172        5.0272  -17.1833  -39.0930 H         1 UNK         0.0600 
    173 H173        3.5519  -18.0344  -38.6512 H         1 UNK         0.0600 
    174 H174        4.5503  -14.9633  -40.1580 H         1 UNK         0.3000 
    175 H175        4.5194  -12.9490  -41.1124 H         1 UNK         0.0600 
    176 H176        4.5881  -13.6235  -44.1047 H         1 UNK         0.0600 
    177 H177        5.5377  -12.3823  -43.2961 H         1 UNK         0.0600 
    178 H178        5.8211  -14.0778  -42.9336 H         1 UNK         0.0600 
    179 H179        2.7273  -12.2525  -43.3578 H         1 UNK         0.3000 
    180 H180        0.2394  -10.8348  -41.2872 H         1 UNK         0.0600 
    181 H181        2.2327   -9.2953  -43.0394 H         1 UNK         0.0600 
    182 H182        1.8417   -8.9154  -41.3652 H         1 UNK         0.0600 
    183 H183        0.6089   -8.7625  -42.6084 H         1 UNK         0.0600 
    184 H184        0.7316  -10.8846  -44.1310 H         1 UNK         0.3000 
    185 H185        0.2839  -14.0483  -44.8616 H         1 UNK         0.0600 
    186 H186       -1.9262  -14.0932  -45.9523 H         1 UNK         0.0600 
    187 H187       -2.1242  -14.2507  -44.2208 H         1 UNK         0.0600 
    188 H188       -2.4648  -12.7093  -44.9989 H         1 UNK         0.0600 
    189 H189       -0.6768  -11.9225  -46.4926 H         1 UNK         0.3000 
    190 H190       -2.4487  -20.6040  -45.3127 H         1 UNK         0.3000 
    191 H191       -4.9515  -21.9336  -45.2279 H         1 UNK         0.0600 
    192 H192       -3.9686  -23.1960  -43.3507 H         1 UNK         0.0600 
    193 H193       -3.5180  -21.5014  -43.2281 H         1 UNK         0.0600 
    194 H194       -2.3489  -22.6891  -43.8012 H         1 UNK         0.0600 
    195 H195       -1.7776  -23.0350  -46.4622 H         1 UNK         0.3000 
    196 H196       -2.6189  -25.6707  -47.2300 H         1 UNK         0.0600 
    197 H197       -0.2812  -23.9180  -48.1450 H         1 UNK         0.0600 
    198 H198       -0.2508  -25.1418  -46.8831 H         1 UNK         0.0600 
    199 H199       -0.4716  -25.6146  -48.5613 H         1 UNK         0.0600 
    200 H200       -2.6394  -22.5234  -48.9294 H         1 UNK         0.3000 
    201 H201       -3.5205  -23.5464  -51.4570 H         1 UNK         0.0600 
    202 H202       -3.8908  -20.7321  -50.2862 H         1 UNK         0.0600 
    203 H203       -3.9694  -21.1823  -51.9821 H         1 UNK         0.0600 
    204 H204       -2.4438  -21.2840  -51.1198 H         1 UNK         0.0600 
    205 H205       -5.2042  -22.4537  -48.5529 H         1 UNK         0.3000 
    206 H206       -7.2307  -22.6928  -47.7236 H         1 UNK         0.0600 
    207 H207       -6.8390  -25.1191  -48.2453 H         1 UNK         0.0600 
    208 H208       -8.5447  -24.7051  -48.2842 H         1 UNK         0.0600 
    209 H209       -7.6624  -24.9175  -49.7911 H         1 UNK         0.0600 
    210 H210       -6.8067  -20.8705  -50.0027 H         1 UNK         0.3000 
    211 H211       -7.7757  -19.4168  -51.3454 H         1 UNK         0.0600 
    212 H212      -10.0762  -18.6580  -50.9575 H         1 UNK         0.0600 
    213 H213       -9.3095  -18.9660  -49.4092 H         1 UNK         0.0600 
    214 H214      -10.4688  -20.1204  -50.0676 H         1 UNK         0.0600 
    215 H215       -7.8255  -22.4848  -51.9617 H         1 UNK         0.3000 
    216 H216       -9.5682  -22.4180  -54.3984 H         1 UNK         0.0600 
    217 H217       -8.5989  -24.7697  -52.6787 H         1 UNK         0.0600 
    218 H218       -9.6385  -24.8875  -54.0949 H         1 UNK         0.0600 
    219 H219      -10.2235  -24.0869  -52.6448 H         1 UNK         0.0600 
    220 H220       -6.4016  -22.1903  -53.3752 H         1 UNK         0.3000 
    221 H221       -4.3694  -22.4057  -54.1733 H         1 UNK         0.0600 
    222 H222       -5.1801  -21.2414  -56.2268 H         1 UNK         0.0600 
    223 H223       -5.5549  -22.7962  -56.9695 H         1 UNK         0.0600 
    224 H224       -3.8913  -22.3794  -56.5848 H         1 UNK         0.0600 
    225 H225       -5.4151  -24.4994  -52.8770 H         1 UNK         0.3000 
    226 H226       -5.3515  -27.0113  -54.1808 H         1 UNK         0.0600 
    227 H227       -5.2973  -26.2288  -51.2253 H         1 UNK         0.0600 
    228 H228       -6.6911  -26.6704  -52.1963 H         1 UNK         0.0600 
    229 H229       -5.4808  -27.8812  -51.8058 H         1 UNK         0.0600 
    230 H230       -3.1580  -26.4144  -51.3880 H         1 UNK         0.3000 
    231 H231       -1.0662  -28.0246  -52.7750 H         1 UNK         0.0600 
    232 H232       -1.4802  -27.3832  -49.8129 H         1 UNK         0.0600 
    233 H233       -0.2648  -28.4601  -50.4847 H         1 UNK         0.0600 
    234 H234       -1.9655  -28.8728  -50.6158 H         1 UNK         0.0600 
    235 H235       -1.7249  -24.8389  -52.6420 H         1 UNK         0.3000 
    236 H236        0.9517  -23.9018  -52.9994 H         1 UNK         0.0600 
    237 H237        1.0073  -23.8842  -50.5227 H         1 UNK         0.0600 
    238 H238        0.7078  -22.2204  -50.9906 H         1 UNK         0.0600 
    239 H239       -0.6151  -23.2162  -50.4477 H         1 UNK         0.0600 
    240 H240       -0.8825  -20.9265  -54.2155 H         1 UNK         0.3000 
    241 H241        1.6525  -21.6567  -52.8606 H         1 UNK         0.0600 
    242 H242        1.8933  -22.3373  -56.7675 H         1 UNK         0.3800 
    243 H243        0.3754  -22.3450  -55.9102 H         1 UNK         0.3800 
    244 H244        0.7876  -19.0243  -54.1169 H         1 UNK         0.0800 
    245 H245        2.2849  -19.3091  -53.2739 H         1 UNK         0.0800 
    246 H246       -1.6324  -18.4186  -52.5705 H         1 UNK         0.0800 
    247 H247       -0.3468  -17.3220  -53.0253 H         1 UNK         0.0800 
@<TRIPOS>BOND
     1    1    2 1    
     2    1  127 1    
     3    1  128 1    
     4    1  129 1    
     5    2    3 2    
     6    2    4 am   BACKBONE|DICT|INTERRES
     7    4    5 1    
     8    4  130 1    
     9    5    6 1    
    10    5   65 1    
    11    5  131 1    
    12    6    7 1    
    13    6  132 1    
    14    6  133 1    
    15    7    8 1    
    16    8    9 1    
    17    8  134 1    
    18    8  135 1    
    19    9   10 ar   
    20    9   14 ar   
    21   10   11 ar   
    22   10  136 1    
    23   11   12 ar   
    24   11  126 1    
    25   12   13 ar   
    26   12  137 1    
    27   13   14 ar   
    28   13   15 1    
    29   14  138 1    
    30   15   16 1    
    31   15  139 1    
    32   15  140 1    
    33   16   17 1    
    34   17   18 1    
    35   17  141 1    
    36   17  142 1    
    37   18   19 1    
    38   18   67 1    
    39   18  143 1    
    40   19   20 am   BACKBONE|DICT|INTERRES
    41   19  144 1    
    42   20   21 2    
    43   20   22 1    
    44   22   23 1    
    45   22   24 1    
    46   22  145 1    
    47   23  146 1    
    48   23  147 1    
    49   23  148 1    
    50   24   25 am   BACKBONE|DICT|INTERRES
    51   24  149 1    
    52   25   26 2    
    53   25   27 1    
    54   27   28 1    
    55   27   29 1    
    56   27  150 1    
    57   28  151 1    
    58   28  152 1    
    59   28  153 1    
    60   29   30 am   BACKBONE|DICT|INTERRES
    61   29  154 1    
    62   30   31 2    
    63   30   32 1    
    64   32   33 1    
    65   32   34 1    
    66   32  155 1    
    67   33  156 1    
    68   33  157 1    
    69   33  158 1    
    70   34   35 am   BACKBONE|DICT|INTERRES
    71   34  159 1    
    72   35   36 2    
    73   35   37 1    
    74   37   38 1    
    75   37   39 1    
    76   37  160 1    
    77   38  161 1    
    78   38  162 1    
    79   38  163 1    
    80   39   40 am   BACKBONE|DICT|INTERRES
    81   39  164 1    
    82   40   41 2    
    83   40   42 1    
    84   42   43 1    
    85   42   44 1    
    86   42  165 1    
    87   43  166 1    
    88   43  167 1    
    89   43  168 1    
    90   44   45 am   BACKBONE|DICT|INTERRES
    91   44  169 1    
    92   45   46 2    
    93   45   47 1    
    94   47   48 1    
    95   47   49 1    
    96   47  170 1    
    97   48  171 1    
    98   48  172 1    
    99   48  173 1    
   100   49   50 am   BACKBONE|DICT|INTERRES
   101   49  174 1    
   102   50   51 2    
   103   50   52 1    
   104   52   53 1    
   105   52   54 1    
   106   52  175 1    
   107   53  176 1    
   108   53  177 1    
   109   53  178 1    
   110   54   55 am   BACKBONE|DICT|INTERRES
   111   54  179 1    
   112   55   56 2    
   113   55   57 1    
   114   57   58 1    
   115   57   59 1    
   116   57  180 1    
   117   58  181 1    
   118   58  182 1    
   119   58  183 1    
   120   59   60 am   BACKBONE|DICT|INTERRES
   121   59  184 1    
   122   60   61 2    
   123   60   62 1    
   124   62   63 1    
   125   62   64 1    
   126   62  185 1    
   127   63  186 1    
   128   63  187 1    
   129   63  188 1    
   130   64   65 am   BACKBONE|DICT|INTERRES
   131   64  189 1    
   132   65   66 2    
   133   67   68 2    
   134   67   69 am   BACKBONE|DICT|INTERRES
   135   69   70 1    
   136   69  190 1    
   137   70   71 1    
   138   70   72 1    
   139   70  191 1    
   140   71  192 1    
   141   71  193 1    
   142   71  194 1    
   143   72   73 2    
   144   72   74 am   BACKBONE|DICT|INTERRES
   145   74   75 1    
   146   74  195 1    
   147   75   76 1    
   148   75   77 1    
   149   75  196 1    
   150   76  197 1    
   151   76  198 1    
   152   76  199 1    
   153   77   78 2    
   154   77   79 am   BACKBONE|DICT|INTERRES
   155   79   80 1    
   156   79  200 1    
   157   80   81 1    
   158   80   82 1    
   159   80  201 1    
   160   81  202 1    
   161   81  203 1    
   162   81  204 1    
   163   82   83 2    
   164   82   84 am   BACKBONE|DICT|INTERRES
   165   84   85 1    
   166   84  205 1    
   167   85   86 1    
   168   85   87 1    
   169   85  206 1    
   170   86  207 1    
   171   86  208 1    
   172   86  209 1    
   173   87   88 2    
   174   87   89 am   BACKBONE|DICT|INTERRES
   175   89   90 1    
   176   89  210 1    
   177   90   91 1    
   178   90   92 1    
   179   90  211 1    
   180   91  212 1    
   181   91  213 1    
   182   91  214 1    
   183   92   93 2    
   184   92   94 am   BACKBONE|DICT|INTERRES
   185   94   95 1    
   186   94  215 1    
   187   95   96 1    
   188   95   97 1    
   189   95  216 1    
   190   96  217 1    
   191   96  218 1    
   192   96  219 1    
   193   97   98 2    
   194   97   99 am   BACKBONE|DICT|INTERRES
   195   99  100 1    
   196   99  220 1    
   197  100  101 1    
   198  100  102 1    
   199  100  221 1    
   200  101  222 1    
   201  101  223 1    
   202  101  224 1    
   203  102  103 2    
   204  102  104 am   BACKBONE|DICT|INTERRES
   205  104  105 1    
   206  104  225 1    
   207  105  106 1    
   208  105  107 1    
   209  105  226 1    
   210  106  227 1    
   211  106  228 1    
   212  106  229 1    
   213  107  108 2    
   214  107  109 am   BACKBONE|DICT|INTERRES
   215  109  110 1    
   216  109  230 1    
   217  110  111 1    
   218  110  112 1    
   219  110  231 1    
   220  111  232 1    
   221  111  233 1    
   222  111  234 1    
   223  112  113 2    
   224  112  114 am   BACKBONE|DICT|INTERRES
   225  114  115 1    
   226  114  235 1    
   227  115  116 1    
   228  115  117 1    
   229  115  236 1    
   230  116  237 1    
   231  116  238 1    
   232  116  239 1    
   233  117  118 2    
   234  117  119 am   BACKBONE|DICT|INTERRES
   235  119  120 1    
   236  119  240 1    
   237  120  121 1    
   238  120  124 1    
   239  120  241 1    
   240  121  122 am   BACKBONE|DICT|INTERRES
   241  121  123 2    
   242  122  242 1    
   243  122  243 1    
   244  124  125 1    
   245  124  244 1    
   246  124  245 1    
   247  125  126 1    
   248  126  246 1    
   249  126  247 1    
@<TRIPOS>SUBSTRUCTURE
     1 UNK         1 GROUP             0       ****    0 ROOT    
