@<TRIPOS>MOLECULE
3R540
247   249    1
SMALL
USER_CHARGES


@<TRIPOS>ATOM
      1 CA         -0.6533  -10.2711  -51.3008 C.3       0 UNK        -0.1800 
      2 C           0.4820  -10.5433  -50.3237 C.2       0 UNK         0.5000 
      3 O           1.1450   -9.6065  -49.8772 O.2       0 UNK        -0.5000 
      4 N           0.7131  -11.8204  -49.9991 N.am      1 UNK        -0.5000 
      5 CA          1.7001  -12.2746  -49.0159 C.3       1 UNK         0.1400 
      6 C6          2.0399  -13.7759  -49.2034 C.3       23 UNK        -0.0398 
      7 S7          0.5998  -14.9029  -49.1306 S.3       23 UNK        -0.2404 
      8 C8          0.7860  -15.8671  -50.6598 C.3       23 UNK        -0.0205 
      9 C9         -0.0153  -17.1560  -50.5772 C.ar      23 UNK        -0.0193 
     10 C10        -1.3903  -17.1518  -50.8283 C.ar      23 UNK        -0.1150 
     11 C11        -2.1346  -18.3308  -50.7243 C.ar      23 UNK        -0.0193 
     12 C12        -1.4899  -19.5213  -50.3736 C.ar      23 UNK        -0.1150 
     13 C13        -0.1112  -19.5431  -50.1402 C.ar      23 UNK        -0.0193 
     14 C14         0.6194  -18.3557  -50.2431 C.ar      23 UNK        -0.1150 
     15 C15         0.5858  -20.8548  -49.7947 C.3       23 UNK        -0.0205 
     16 S16         1.5141  -20.7960  -48.2227 S.3       23 UNK        -0.2404 
     17 C17         0.2556  -20.2010  -47.0442 C.3       23 UNK        -0.0398 
     18 CA         -0.4575  -21.3057  -46.2413 C.3       11 UNK         0.1400 
     19 N          -1.2051  -20.7404  -45.1168 N.am      11 UNK        -0.5000 
     20 C          -1.7761  -21.4561  -44.1395 C.2       10 UNK         0.5000 
     21 O          -1.7032  -22.6811  -44.0534 O.2       10 UNK        -0.5000 
     22 CA         -2.6441  -20.6758  -43.1379 C.3       10 UNK         0.1400 
     23 CB         -1.7802  -19.9215  -42.1170 C.3       10 UNK        -0.1800 
     24 N          -3.5390  -19.7394  -43.8176 N.am      10 UNK        -0.5000 
     25 C          -4.5472  -20.1122  -44.6195 C.2       9 UNK         0.5000 
     26 O          -4.8656  -21.2850  -44.8143 O.2       9 UNK        -0.5000 
     27 CA         -5.3106  -18.9939  -45.3534 C.3       9 UNK         0.1400 
     28 CB         -6.5287  -18.5470  -44.5321 C.3       9 UNK        -0.1800 
     29 N          -4.4926  -17.8231  -45.6733 N.am      9 UNK        -0.5000 
     30 C          -3.4043  -17.8196  -46.4560 C.2       8 UNK         0.5000 
     31 O          -2.9409  -18.8365  -46.9766 O.2       8 UNK        -0.5000 
     32 CA         -2.7308  -16.4502  -46.7046 C.3       8 UNK         0.1400 
     33 CB         -3.1930  -15.3407  -45.7333 C.3       8 UNK        -0.1800 
     34 N          -1.2683  -16.4994  -46.7170 N.am      8 UNK        -0.5000 
     35 C          -0.4600  -16.9876  -45.7683 C.2       7 UNK         0.5000 
     36 O          -0.8401  -17.6265  -44.7830 O.2       7 UNK        -0.5000 
     37 CA          1.0317  -16.6875  -45.9701 C.3       7 UNK         0.1400 
     38 CB          1.3382  -15.2072  -45.7017 C.3       7 UNK        -0.1800 
     39 N           1.8417  -17.4952  -45.0710 N.am      7 UNK        -0.5000 
     40 C           3.0196  -18.0542  -45.3713 C.2       6 UNK         0.5000 
     41 O           3.5768  -17.9095  -46.4599 O.2       6 UNK        -0.5000 
     42 CA          3.6878  -18.9192  -44.2821 C.3       6 UNK         0.1400 
     43 CB          5.2212  -18.7867  -44.2974 C.3       6 UNK        -0.1800 
     44 N           3.1940  -18.5860  -42.9450 N.am      6 UNK        -0.5000 
     45 C           2.1787  -19.2013  -42.3236 C.2       5 UNK         0.5000 
     46 O           1.5827  -20.1688  -42.7956 O.2       5 UNK        -0.5000 
     47 CA          1.7352  -18.6392  -40.9571 C.3       5 UNK         0.1400 
     48 CB          2.2469  -19.5330  -39.8174 C.3       5 UNK        -0.1800 
     49 N           2.1697  -17.2622  -40.7103 N.am      5 UNK        -0.5000 
     50 C           1.7036  -16.1787  -41.3467 C.2       4 UNK         0.5000 
     51 O           0.8324  -16.2251  -42.2148 O.2       4 UNK        -0.5000 
     52 CA          2.3195  -14.8126  -40.9699 C.3       4 UNK         0.1400 
     53 CB          3.2445  -14.8573  -39.7326 C.3       4 UNK        -0.1800 
     54 N           3.0229  -14.1883  -42.0954 N.am      4 UNK        -0.5000 
     55 C           3.9987  -14.7196  -42.8444 C.2       3 UNK         0.5000 
     56 O           4.4256  -15.8639  -42.6790 O.2       3 UNK        -0.5000 
     57 CA          4.6055  -13.8226  -43.9524 C.3       3 UNK         0.1400 
     58 CB          5.4575  -14.6289  -44.9504 C.3       3 UNK        -0.1800 
     59 N           3.6186  -13.0466  -44.7140 N.am      3 UNK        -0.5000 
     60 C           2.9557  -11.9600  -44.2959 C.2       2 UNK         0.5000 
     61 O           3.0841  -11.4929  -43.1636 O.2       2 UNK        -0.5000 
     62 CA          1.9767  -11.2997  -45.2877 C.3       2 UNK         0.1400 
     63 CB          2.0037   -9.7624  -45.1950 C.3       2 UNK        -0.1800 
     64 N           2.2171  -11.7045  -46.6786 N.am      2 UNK        -0.5000 
     65 C           1.2482  -11.9454  -47.5729 C.2       1 UNK         0.5000 
     66 O           0.0455  -11.9211  -47.2969 O.2       1 UNK        -0.5000 
     67 C          -1.3611  -22.1653  -47.1437 C.2       11 UNK         0.5000 
     68 O          -0.9709  -23.2764  -47.5022 O.2       11 UNK        -0.5000 
     69 N          -2.5617  -21.6605  -47.4638 N.am      12 UNK        -0.5000 
     70 CA         -3.5673  -22.3549  -48.2714 C.3       12 UNK         0.1400 
     71 CB         -4.7754  -21.4337  -48.4913 C.3       12 UNK        -0.1800 
     72 C          -4.0144  -23.7025  -47.6695 C.2       12 UNK         0.5000 
     73 O          -4.2938  -24.6345  -48.4224 O.2       12 UNK        -0.5000 
     74 N          -4.0489  -23.7867  -46.3337 N.am      13 UNK        -0.5000 
     75 CA         -4.3183  -25.0138  -45.5928 C.3       13 UNK         0.1400 
     76 CB         -4.8400  -24.6564  -44.1916 C.3       13 UNK        -0.1800 
     77 C          -3.0802  -25.9255  -45.5017 C.2       13 UNK         0.5000 
     78 O          -3.1833  -27.1141  -45.8072 O.2       13 UNK        -0.5000 
     79 N          -1.9484  -25.3713  -45.0439 N.am      14 UNK        -0.5000 
     80 CA         -0.7516  -26.1346  -44.6857 C.3       14 UNK         0.1400 
     81 CB          0.1239  -25.2993  -43.7379 C.3       14 UNK        -0.1800 
     82 C           0.0742  -26.6111  -45.8920 C.2       14 UNK         0.5000 
     83 O           0.4788  -27.7744  -45.9231 O.2       14 UNK        -0.5000 
     84 N           0.3384  -25.7044  -46.8389 N.am      15 UNK        -0.5000 
     85 CA          1.1902  -25.9467  -48.0047 C.3       15 UNK         0.1400 
     86 CB          2.1473  -24.7572  -48.1805 C.3       15 UNK        -0.1800 
     87 C           0.3591  -26.1511  -49.2792 C.2       15 UNK         0.5000 
     88 O           0.7414  -26.9605  -50.1255 O.2       15 UNK        -0.5000 
     89 N          -0.7587  -25.4193  -49.3836 N.am      16 UNK        -0.5000 
     90 CA         -1.6749  -25.3649  -50.5213 C.3       16 UNK         0.1400 
     91 CB         -2.4261  -26.7039  -50.6934 C.3       16 UNK        -0.1800 
     92 C          -0.9803  -24.8421  -51.7966 C.2       16 UNK         0.5000 
     93 O          -0.2250  -23.8714  -51.7081 O.2       16 UNK        -0.5000 
     94 N          -1.2795  -25.4521  -52.9540 N.am      17 UNK        -0.5000 
     95 CA         -0.7950  -25.1600  -54.3127 C.3       17 UNK         0.1400 
     96 CB          0.7366  -25.2989  -54.4129 C.3       17 UNK        -0.1800 
     97 C          -1.2792  -23.8066  -54.8683 C.2       17 UNK         0.5000 
     98 O          -1.9264  -23.7718  -55.9146 O.2       17 UNK        -0.5000 
     99 N          -0.9989  -22.7258  -54.1340 N.am      18 UNK        -0.5000 
    100 CA        -1.4554  -21.3611  -54.4012 C.3       18 UNK         0.1400 
    101 CB        -0.3914  -20.3818  -53.8804 C.3       18 UNK        -0.1800 
    102 C         -2.8331  -21.0654  -53.7731 C.2       18 UNK         0.5000 
    103 O         -3.3141  -19.9387  -53.8871 O.2       18 UNK        -0.5000 
    104 N         -3.4446  -22.0728  -53.1275 N.am      19 UNK        -0.5000 
    105 CA        -4.6982  -22.0197  -52.3662 C.3       19 UNK         0.1400 
    106 CB        -5.0941  -23.4445  -51.9514 C.3       19 UNK        -0.1800 
    107 C         -5.8759  -21.3285  -53.0788 C.2       19 UNK         0.5000 
    108 O         -6.6553  -20.6370  -52.4240 O.2       19 UNK        -0.5000 
    109 N         -5.9564  -21.4915  -54.4065 N.am      20 UNK        -0.5000 
    110 CA        -6.9656  -20.8827  -55.2749 C.3       20 UNK         0.1400 
    111 CB        -6.7798  -21.4138  -56.7041 C.3       20 UNK        -0.1800 
    112 C         -6.9570  -19.3405  -55.2691 C.2       20 UNK         0.5000 
    113 O         -8.0162  -18.7350  -55.4377 O.2       20 UNK        -0.5000 
    114 N         -5.7858  -18.7265  -55.0405 N.am      21 UNK        -0.5000 
    115 CA        -5.6257  -17.2719  -54.9469 C.3       21 UNK         0.1400 
    116 CB        -4.1408  -16.9112  -55.1116 C.3       21 UNK        -0.1800 
    117 C         -6.1938  -16.6811  -53.6399 C.2       21 UNK         0.5000 
    118 O         -6.4472  -15.4772  -53.5837 O.2       21 UNK        -0.5000 
    119 N         -6.3956  -17.5329  -52.6274 N.am      22 UNK        -0.5000 
    120 CA        -7.0095  -17.1958  -51.3350 C.3       22 UNK         0.1400 
    121 C         -8.5464  -17.4535  -51.3068 C.2       22 UNK         0.5000 
    122 N         -9.1768  -17.8984  -52.3888 N.am      22 UNK        -0.7600 
    123 O         -9.1898  -17.2241  -50.2864 O.2       22 UNK        -0.5000 
    124 C124       -6.2855  -17.9172  -50.1671 C.3       23 UNK        -0.0398 
    125 S125       -4.5882  -17.3028  -49.8891 S.3       23 UNK        -0.2404 
    126 C126       -3.6234  -18.3317  -51.0370 C.3       23 UNK        -0.0205 
    127 H127       -1.4045   -9.6339  -50.8344 H         1 UNK         0.0600 
    128 H128       -1.1408  -11.1918  -51.6224 H         1 UNK         0.0600 
    129 H129       -0.2731   -9.7609  -52.1857 H         1 UNK         0.0600 
    130 H130        0.1087  -12.5437  -50.3615 H         1 UNK         0.3000 
    131 H131        2.6191  -11.7133  -49.1991 H         1 UNK         0.0600 
    132 H132        2.7681  -14.1014  -48.4589 H         1 UNK         0.0800 
    133 H133        2.5391  -13.9014  -50.1650 H         1 UNK         0.0800 
    134 H134        0.4568  -15.2712  -51.5123 H         1 UNK         0.0800 
    135 H135        1.8398  -16.0960  -50.8264 H         1 UNK         0.0800 
    136 H136       -1.8848  -16.2289  -51.0970 H         1 UNK         0.1150 
    137 H137       -2.0594  -20.4364  -50.3003 H         1 UNK         0.1150 
    138 H138        1.6837  -18.3670  -50.0538 H         1 UNK         0.1150 
    139 H139       -0.1301  -21.6769  -49.7556 H         1 UNK         0.0800 
    140 H140        1.2792  -21.1039  -50.5989 H         1 UNK         0.0800 
    141 H141       -0.4604  -19.5424  -47.5353 H         1 UNK         0.0800 
    142 H142        0.7943  -19.5739  -46.3412 H         1 UNK         0.0800 
    143 H143        0.3058  -21.9629  -45.8186 H         1 UNK         0.0600 
    144 H144       -1.3378  -19.7354  -45.1179 H         1 UNK         0.3000 
    145 H145       -3.2567  -21.3986  -42.5947 H         1 UNK         0.0600 
    146 H146       -1.1012  -20.6031  -41.6029 H         1 UNK         0.0600 
    147 H147       -1.1728  -19.1515  -42.5930 H         1 UNK         0.0600 
    148 H148       -2.3961  -19.4401  -41.3574 H         1 UNK         0.0600 
    149 H149       -3.3176  -18.7570  -43.7422 H         1 UNK         0.3000 
    150 H150       -5.6731  -19.4031  -46.2970 H         1 UNK         0.0600 
    151 H151       -7.1746  -19.3947  -44.2991 H         1 UNK         0.0600 
    152 H152       -7.1314  -17.8231  -45.0809 H         1 UNK         0.0600 
    153 H153       -6.2317  -18.0909  -43.5868 H         1 UNK         0.0600 
    154 H154       -4.7991  -16.9448  -45.2816 H         1 UNK         0.3000 
    155 H155       -3.0228  -16.1479  -47.7099 H         1 UNK         0.0600 
    156 H156       -2.9831  -15.5982  -44.6942 H         1 UNK         0.0600 
    157 H157       -2.6832  -14.4008  -45.9472 H         1 UNK         0.0600 
    158 H158       -4.2618  -15.1445  -45.8257 H         1 UNK         0.0600 
    159 H159       -0.8387  -16.0497  -47.5152 H         1 UNK         0.3000 
    160 H160        1.2716  -16.9298  -47.0077 H         1 UNK         0.0600 
    161 H161        1.2947  -14.9724  -44.6378 H         1 UNK         0.0600 
    162 H162        0.6327  -14.5465  -46.2045 H         1 UNK         0.0600 
    163 H163        2.3330  -14.9625  -46.0681 H         1 UNK         0.0600 
    164 H164        1.4181  -17.6698  -44.1678 H         1 UNK         0.3000 
    165 H165        3.4467  -19.9584  -44.5147 H         1 UNK         0.0600 
    166 H166        5.6770  -19.3870  -43.5100 H         1 UNK         0.0600 
    167 H167        5.6351  -19.1311  -45.2458 H         1 UNK         0.0600 
    168 H168        5.5395  -17.7536  -44.1586 H         1 UNK         0.0600 
    169 H169        3.5950  -17.7515  -42.5283 H         1 UNK         0.3000 
    170 H170        0.6441  -18.6548  -40.9368 H         1 UNK         0.0600 
    171 H171        1.9118  -20.5629  -39.9481 H         1 UNK         0.0600 
    172 H172        3.3367  -19.5452  -39.7744 H         1 UNK         0.0600 
    173 H173        1.8750  -19.1926  -38.8508 H         1 UNK         0.0600 
    174 H174        2.9026  -17.1369  -40.0272 H         1 UNK         0.3000 
    175 H175        1.4796  -14.1592  -40.7298 H         1 UNK         0.0600 
    176 H176        4.1337  -15.4654  -39.9031 H         1 UNK         0.0600 
    177 H177        3.5811  -13.8553  -39.4660 H         1 UNK         0.0600 
    178 H178        2.7233  -15.2584  -38.8623 H         1 UNK         0.0600 
    179 H179        2.7611  -13.2307  -42.3058 H         1 UNK         0.3000 
    180 H180        5.2699  -13.1183  -43.4479 H         1 UNK         0.0600 
    181 H181        4.8613  -15.3763  -45.4756 H         1 UNK         0.0600 
    182 H182        6.2684  -15.1533  -44.4433 H         1 UNK         0.0600 
    183 H183        5.9151  -13.9788  -45.6962 H         1 UNK         0.0600 
    184 H184        3.4120  -13.3936  -45.6372 H         1 UNK         0.3000 
    185 H185        0.9870  -11.6382  -44.9743 H         1 UNK         0.0600 
    186 H186        1.7716   -9.4208  -44.1855 H         1 UNK         0.0600 
    187 H187        2.9827   -9.3632  -45.4622 H         1 UNK         0.0600 
    188 H188        1.2664   -9.3148  -45.8618 H         1 UNK         0.0600 
    189 H189        3.1827  -11.7071  -46.9783 H         1 UNK         0.3000 
    190 H190       -2.7857  -20.7134  -47.1652 H         1 UNK         0.3000 
    191 H191       -3.1143  -22.5562  -49.2435 H         1 UNK         0.0600 
    192 H192       -5.3258  -21.2743  -47.5654 H         1 UNK         0.0600 
    193 H193       -5.4725  -21.8686  -49.2081 H         1 UNK         0.0600 
    194 H194       -4.4719  -20.4596  -48.8745 H         1 UNK         0.0600 
    195 H195       -3.8644  -22.9536  -45.7877 H         1 UNK         0.3000 
    196 H196       -5.1057  -25.5693  -46.1069 H         1 UNK         0.0600 
    197 H197       -5.0502  -25.5554  -43.6109 H         1 UNK         0.0600 
    198 H198       -5.7657  -24.0839  -44.2527 H         1 UNK         0.0600 
    199 H199       -4.1196  -24.0612  -43.6293 H         1 UNK         0.0600 
    200 H200       -1.9406  -24.3836  -44.7998 H         1 UNK         0.3000 
    201 H201       -1.0708  -27.0230  -44.1363 H         1 UNK         0.0600 
    202 H202       -0.4243  -25.0213  -42.8375 H         1 UNK         0.0600 
    203 H203        0.4718  -24.3813  -44.2135 H         1 UNK         0.0600 
    204 H204        1.0047  -25.8598  -43.4224 H         1 UNK         0.0600 
    205 H205       -0.0950  -24.7874  -46.7823 H         1 UNK         0.3000 
    206 H206        1.7965  -26.8424  -47.8545 H         1 UNK         0.0600 
    207 H207        2.8205  -24.9193  -49.0232 H         1 UNK         0.0600 
    208 H208        1.6064  -23.8296  -48.3691 H         1 UNK         0.0600 
    209 H209        2.7636  -24.6111  -47.2934 H         1 UNK         0.0600 
    210 H210       -0.9313  -24.7307  -48.6558 H         1 UNK         0.3000 
    211 H211       -2.4106  -24.6068  -50.2635 H         1 UNK         0.0600 
    212 H212       -1.7655  -27.5081  -51.0191 H         1 UNK         0.0600 
    213 H213       -3.2342  -26.6158  -51.4204 H         1 UNK         0.0600 
    214 H214       -2.8829  -27.0124  -49.7526 H         1 UNK         0.0600 
    215 H215       -1.9254  -26.2278  -52.9022 H         1 UNK         0.3000 
    216 H216       -1.2289  -25.9314  -54.9511 H         1 UNK         0.0600 
    217 H217        1.2595  -24.5547  -53.8118 H         1 UNK         0.0600 
    218 H218        1.0704  -25.1753  -55.4438 H         1 UNK         0.0600 
    219 H219        1.0636  -26.2844  -54.0813 H         1 UNK         0.0600 
    220 H220       -0.5037  -22.8797  -53.2579 H         1 UNK         0.3000 
    221 H221       -1.5552  -21.2133  -55.4783 H         1 UNK         0.0600 
    222 H222       -0.2124  -20.5179  -52.8146 H         1 UNK         0.0600 
    223 H223        0.5578  -20.5225  -54.3973 H         1 UNK         0.0600 
    224 H224       -0.6933  -19.3447  -54.0335 H         1 UNK         0.0600 
    225 H225       -2.9647  -22.9592  -53.1269 H         1 UNK         0.3000 
    226 H226       -4.4944  -21.4577  -51.4564 H         1 UNK         0.0600 
    227 H227       -4.3358  -23.8992  -51.3169 H         1 UNK         0.0600 
    228 H228       -6.0249  -23.4431  -51.3823 H         1 UNK         0.0600 
    229 H229       -5.2400  -24.0907  -52.8178 H         1 UNK         0.0600 
    230 H230       -5.2557  -22.0604  -54.8584 H         1 UNK         0.3000 
    231 H231       -7.9454  -21.2036  -54.9154 H         1 UNK         0.0600 
    232 H232       -7.5326  -20.9997  -57.3763 H         1 UNK         0.0600 
    233 H233       -6.8778  -22.4990  -56.7384 H         1 UNK         0.0600 
    234 H234       -5.8004  -21.1511  -57.1061 H         1 UNK         0.0600 
    235 H235       -4.9599  -19.2841  -54.8439 H         1 UNK         0.3000 
    236 H236       -6.1735  -16.8150  -55.7737 H         1 UNK         0.0600 
    237 H237       -3.7443  -17.2923  -56.0527 H         1 UNK         0.0600 
    238 H238       -4.0007  -15.8296  -55.1143 H         1 UNK         0.0600 
    239 H239       -3.5312  -17.3158  -54.3043 H         1 UNK         0.0600 
    240 H240       -6.2098  -18.5167  -52.7754 H         1 UNK         0.3000 
    241 H241       -6.9024  -16.1231  -51.1646 H         1 UNK         0.0600 
    242 H242       -8.6741  -18.0813  -53.2450 H         1 UNK         0.3800 
    243 H243      -10.1723  -18.0511  -52.3520 H         1 UNK         0.3800 
    244 H244       -6.8214  -17.7596  -49.2297 H         1 UNK         0.0800 
    245 H245       -6.2722  -18.9968  -50.3208 H         1 UNK         0.0800 
    246 H246       -3.7643  -17.9661  -52.0526 H         1 UNK         0.0800 
    247 H247       -4.0120  -19.3465  -51.0183 H         1 UNK         0.0800 
@<TRIPOS>BOND
     1    1    2 1    
     2    1  127 1    
     3    1  128 1    
     4    1  129 1    
     5    2    3 2    
     6    2    4 am   BACKBONE|DICT|INTERRES
     7    4    5 1    
     8    4  130 1    
     9    5    6 1    
    10    5   65 1    
    11    5  131 1    
    12    6    7 1    
    13    6  132 1    
    14    6  133 1    
    15    7    8 1    
    16    8    9 1    
    17    8  134 1    
    18    8  135 1    
    19    9   10 ar   
    20    9   14 ar   
    21   10   11 ar   
    22   10  136 1    
    23   11   12 ar   
    24   11  126 1    
    25   12   13 ar   
    26   12  137 1    
    27   13   14 ar   
    28   13   15 1    
    29   14  138 1    
    30   15   16 1    
    31   15  139 1    
    32   15  140 1    
    33   16   17 1    
    34   17   18 1    
    35   17  141 1    
    36   17  142 1    
    37   18   19 1    
    38   18   67 1    
    39   18  143 1    
    40   19   20 am   BACKBONE|DICT|INTERRES
    41   19  144 1    
    42   20   21 2    
    43   20   22 1    
    44   22   23 1    
    45   22   24 1    
    46   22  145 1    
    47   23  146 1    
    48   23  147 1    
    49   23  148 1    
    50   24   25 am   BACKBONE|DICT|INTERRES
    51   24  149 1    
    52   25   26 2    
    53   25   27 1    
    54   27   28 1    
    55   27   29 1    
    56   27  150 1    
    57   28  151 1    
    58   28  152 1    
    59   28  153 1    
    60   29   30 am   BACKBONE|DICT|INTERRES
    61   29  154 1    
    62   30   31 2    
    63   30   32 1    
    64   32   33 1    
    65   32   34 1    
    66   32  155 1    
    67   33  156 1    
    68   33  157 1    
    69   33  158 1    
    70   34   35 am   BACKBONE|DICT|INTERRES
    71   34  159 1    
    72   35   36 2    
    73   35   37 1    
    74   37   38 1    
    75   37   39 1    
    76   37  160 1    
    77   38  161 1    
    78   38  162 1    
    79   38  163 1    
    80   39   40 am   BACKBONE|DICT|INTERRES
    81   39  164 1    
    82   40   41 2    
    83   40   42 1    
    84   42   43 1    
    85   42   44 1    
    86   42  165 1    
    87   43  166 1    
    88   43  167 1    
    89   43  168 1    
    90   44   45 am   BACKBONE|DICT|INTERRES
    91   44  169 1    
    92   45   46 2    
    93   45   47 1    
    94   47   48 1    
    95   47   49 1    
    96   47  170 1    
    97   48  171 1    
    98   48  172 1    
    99   48  173 1    
   100   49   50 am   BACKBONE|DICT|INTERRES
   101   49  174 1    
   102   50   51 2    
   103   50   52 1    
   104   52   53 1    
   105   52   54 1    
   106   52  175 1    
   107   53  176 1    
   108   53  177 1    
   109   53  178 1    
   110   54   55 am   BACKBONE|DICT|INTERRES
   111   54  179 1    
   112   55   56 2    
   113   55   57 1    
   114   57   58 1    
   115   57   59 1    
   116   57  180 1    
   117   58  181 1    
   118   58  182 1    
   119   58  183 1    
   120   59   60 am   BACKBONE|DICT|INTERRES
   121   59  184 1    
   122   60   61 2    
   123   60   62 1    
   124   62   63 1    
   125   62   64 1    
   126   62  185 1    
   127   63  186 1    
   128   63  187 1    
   129   63  188 1    
   130   64   65 am   BACKBONE|DICT|INTERRES
   131   64  189 1    
   132   65   66 2    
   133   67   68 2    
   134   67   69 am   BACKBONE|DICT|INTERRES
   135   69   70 1    
   136   69  190 1    
   137   70   71 1    
   138   70   72 1    
   139   70  191 1    
   140   71  192 1    
   141   71  193 1    
   142   71  194 1    
   143   72   73 2    
   144   72   74 am   BACKBONE|DICT|INTERRES
   145   74   75 1    
   146   74  195 1    
   147   75   76 1    
   148   75   77 1    
   149   75  196 1    
   150   76  197 1    
   151   76  198 1    
   152   76  199 1    
   153   77   78 2    
   154   77   79 am   BACKBONE|DICT|INTERRES
   155   79   80 1    
   156   79  200 1    
   157   80   81 1    
   158   80   82 1    
   159   80  201 1    
   160   81  202 1    
   161   81  203 1    
   162   81  204 1    
   163   82   83 2    
   164   82   84 am   BACKBONE|DICT|INTERRES
   165   84   85 1    
   166   84  205 1    
   167   85   86 1    
   168   85   87 1    
   169   85  206 1    
   170   86  207 1    
   171   86  208 1    
   172   86  209 1    
   173   87   88 2    
   174   87   89 am   BACKBONE|DICT|INTERRES
   175   89   90 1    
   176   89  210 1    
   177   90   91 1    
   178   90   92 1    
   179   90  211 1    
   180   91  212 1    
   181   91  213 1    
   182   91  214 1    
   183   92   93 2    
   184   92   94 am   BACKBONE|DICT|INTERRES
   185   94   95 1    
   186   94  215 1    
   187   95   96 1    
   188   95   97 1    
   189   95  216 1    
   190   96  217 1    
   191   96  218 1    
   192   96  219 1    
   193   97   98 2    
   194   97   99 am   BACKBONE|DICT|INTERRES
   195   99  100 1    
   196   99  220 1    
   197  100  101 1    
   198  100  102 1    
   199  100  221 1    
   200  101  222 1    
   201  101  223 1    
   202  101  224 1    
   203  102  103 2    
   204  102  104 am   BACKBONE|DICT|INTERRES
   205  104  105 1    
   206  104  225 1    
   207  105  106 1    
   208  105  107 1    
   209  105  226 1    
   210  106  227 1    
   211  106  228 1    
   212  106  229 1    
   213  107  108 2    
   214  107  109 am   BACKBONE|DICT|INTERRES
   215  109  110 1    
   216  109  230 1    
   217  110  111 1    
   218  110  112 1    
   219  110  231 1    
   220  111  232 1    
   221  111  233 1    
   222  111  234 1    
   223  112  113 2    
   224  112  114 am   BACKBONE|DICT|INTERRES
   225  114  115 1    
   226  114  235 1    
   227  115  116 1    
   228  115  117 1    
   229  115  236 1    
   230  116  237 1    
   231  116  238 1    
   232  116  239 1    
   233  117  118 2    
   234  117  119 am   BACKBONE|DICT|INTERRES
   235  119  120 1    
   236  119  240 1    
   237  120  121 1    
   238  120  124 1    
   239  120  241 1    
   240  121  122 am   BACKBONE|DICT|INTERRES
   241  121  123 2    
   242  122  242 1    
   243  122  243 1    
   244  124  125 1    
   245  124  244 1    
   246  124  245 1    
   247  125  126 1    
   248  126  246 1    
   249  126  247 1    
@<TRIPOS>SUBSTRUCTURE
     1 UNK         1 GROUP             0       ****    0 ROOT    
