@<TRIPOS>MOLECULE
3R540
247   249    1
SMALL
USER_CHARGES


@<TRIPOS>ATOM
      1 CA         -3.5700  -12.7824  -47.1419 C.3       0 UNK        -0.1800 
      2 C          -3.4548  -14.1694  -46.5155 C.2       0 UNK         0.5000 
      3 O          -4.4719  -14.8325  -46.3272 O.2       0 UNK        -0.5000 
      4 N          -2.2558  -14.6501  -46.1634 N.am      1 UNK        -0.5000 
      5 CA         -0.9482  -13.9924  -46.2908 C.3       1 UNK         0.1400 
      6 C6         -0.0199  -14.7279  -47.2920 C.3       23 UNK        -0.0398 
      7 S7         -0.6380  -14.5988  -49.0013 S.3       23 UNK        -0.2404 
      8 C8          0.7073  -15.3870  -49.9439 C.3       23 UNK        -0.0205 
      9 C9          0.4672  -16.8713  -50.1919 C.ar      23 UNK        -0.0193 
     10 C10        -0.6408  -17.2819  -50.9395 C.ar      23 UNK        -0.1150 
     11 C11        -0.8489  -18.6341  -51.2325 C.ar      23 UNK        -0.0193 
     12 C12         0.0875  -19.5723  -50.7890 C.ar      23 UNK        -0.1150 
     13 C13         1.2146  -19.1804  -50.0597 C.ar      23 UNK        -0.0193 
     14 C14         1.3870  -17.8271  -49.7481 C.ar      23 UNK        -0.1150 
     15 C15         2.2978  -20.1923  -49.6901 C.3       23 UNK        -0.0205 
     16 S16         1.6691  -21.7604  -48.9994 S.3       23 UNK        -0.2404 
     17 C17         1.1369  -21.2201  -47.3439 C.3       23 UNK        -0.0398 
     18 CA         -0.2495  -21.7586  -46.9214 C.3       11 UNK         0.1400 
     19 N          -0.4877  -21.5274  -45.4942 N.am      11 UNK        -0.5000 
     20 C          -1.5487  -21.9606  -44.7995 C.2       10 UNK         0.5000 
     21 O          -2.4323  -22.6747  -45.2718 O.2       10 UNK        -0.5000 
     22 CA         -1.6706  -21.4610  -43.3475 C.3       10 UNK         0.1400 
     23 CB         -0.7817  -22.2822  -42.4019 C.3       10 UNK        -0.1800 
     24 N          -1.3467  -20.0390  -43.2176 N.am      10 UNK        -0.5000 
     25 C          -2.0405  -19.0492  -43.7984 C.2       9 UNK         0.5000 
     26 O          -3.0614  -19.2248  -44.4616 O.2       9 UNK        -0.5000 
     27 CA         -1.4678  -17.6285  -43.6576 C.3       9 UNK         0.1400 
     28 CB         -1.7959  -17.0578  -42.2707 C.3       9 UNK        -0.1800 
     29 N          -0.0231  -17.5839  -43.9053 N.am      9 UNK        -0.5000 
     30 C           0.5519  -17.9204  -45.0700 C.2       8 UNK         0.5000 
     31 O          -0.0882  -18.2050  -46.0788 O.2       8 UNK        -0.5000 
     32 CA          2.0872  -18.0242  -45.1099 C.3       8 UNK         0.1400 
     33 CB          2.7430  -16.6836  -45.4634 C.3       8 UNK        -0.1800 
     34 N           2.6307  -18.5328  -43.8531 N.am      8 UNK        -0.5000 
     35 C           2.5051  -19.8026  -43.4419 C.2       7 UNK         0.5000 
     36 O           1.9648  -20.6839  -44.1095 O.2       7 UNK        -0.5000 
     37 CA          3.0253  -20.1255  -42.0291 C.3       7 UNK         0.1400 
     38 CB          4.5302  -20.4294  -42.0631 C.3       7 UNK        -0.1800 
     39 N           2.7713  -19.0356  -41.0855 N.am      7 UNK        -0.5000 
     40 C           1.5503  -18.6488  -40.6881 C.2       6 UNK         0.5000 
     41 O           0.5166  -19.2354  -41.0078 O.2       6 UNK        -0.5000 
     42 CA          1.4722  -17.3579  -39.8468 C.3       6 UNK         0.1400 
     43 CB          1.5686  -17.6821  -38.3491 C.3       6 UNK        -0.1800 
     44 N           2.5130  -16.3863  -40.2045 N.am      6 UNK        -0.5000 
     45 C           2.5874  -15.7688  -41.3908 C.2       5 UNK         0.5000 
     46 O           1.7428  -15.9025  -42.2776 O.2       5 UNK        -0.5000 
     47 CA          3.8585  -14.9544  -41.6630 C.3       5 UNK         0.1400 
     48 CB          5.0189  -15.9168  -41.9992 C.3       5 UNK        -0.1800 
     49 N           3.6293  -14.0253  -42.7698 N.am      5 UNK        -0.5000 
     50 C           4.4777  -13.0617  -43.1555 C.2       4 UNK         0.5000 
     51 O           5.5465  -12.8232  -42.5915 O.2       4 UNK        -0.5000 
     52 CA          4.0587  -12.2006  -44.3577 C.3       4 UNK         0.1400 
     53 CB          4.0663  -13.0098  -45.6652 C.3       4 UNK        -0.1800 
     54 N           2.7397  -11.6143  -44.1379 N.am      4 UNK        -0.5000 
     55 C           2.5287  -10.4681  -43.4728 C.2       3 UNK         0.5000 
     56 O           3.4340   -9.7465  -43.0520 O.2       3 UNK        -0.5000 
     57 CA          1.0645  -10.0481  -43.2268 C.3       3 UNK         0.1400 
     58 CB          0.5972   -9.0659  -44.3119 C.3       3 UNK        -0.1800 
     59 N           0.1394  -11.1796  -43.1826 N.am      3 UNK        -0.5000 
     60 C           0.1392  -12.1329  -42.2412 C.2       2 UNK         0.5000 
     61 O           0.8494  -12.1010  -41.2359 O.2       2 UNK        -0.5000 
     62 CA         -0.7840  -13.3436  -42.4756 C.3       2 UNK         0.1400 
     63 CB         -2.0605  -13.2185  -41.6299 C.3       2 UNK        -0.1800 
     64 N          -1.1622  -13.5737  -43.8768 N.am      2 UNK        -0.5000 
     65 C          -0.3174  -13.8134  -44.8923 C.2       1 UNK         0.5000 
     66 O           0.9049  -13.8468  -44.7522 O.2       1 UNK        -0.5000 
     67 C          -1.3853  -21.1851  -47.7956 C.2       11 UNK         0.5000 
     68 O          -1.8847  -21.8866  -48.6765 O.2       11 UNK        -0.5000 
     69 N          -1.7970  -19.9429  -47.5098 N.am      12 UNK        -0.5000 
     70 CA         -2.8888  -19.2553  -48.1916 C.3       12 UNK         0.1400 
     71 CB         -2.8958  -17.7712  -47.8010 C.3       12 UNK        -0.1800 
     72 C          -4.2562  -19.9109  -47.9404 C.2       12 UNK         0.5000 
     73 O          -5.0209  -20.0932  -48.8870 O.2       12 UNK        -0.5000 
     74 N          -4.5219  -20.3091  -46.6881 N.am      13 UNK        -0.5000 
     75 CA         -5.7249  -21.0433  -46.2857 C.3       13 UNK         0.1400 
     76 CB         -5.7566  -21.1779  -44.7560 C.3       13 UNK        -0.1800 
     77 C          -5.8390  -22.4257  -46.9576 C.2       13 UNK         0.5000 
     78 O          -6.9407  -22.8370  -47.3226 O.2       13 UNK        -0.5000 
     79 N          -4.6952  -23.0977  -47.1414 N.am      14 UNK        -0.5000 
     80 CA         -4.5719  -24.3614  -47.8671 C.3       14 UNK         0.1400 
     81 CB         -3.2889  -25.0700  -47.4023 C.3       14 UNK        -0.1800 
     82 C          -4.5570  -24.1927  -49.4001 C.2       14 UNK         0.5000 
     83 O          -4.5760  -25.2023  -50.1048 O.2       14 UNK        -0.5000 
     84 N          -4.4683  -22.9496  -49.8979 N.am      15 UNK        -0.5000 
     85 CA         -4.3137  -22.5683  -51.3068 C.3       15 UNK         0.1400 
     86 CB         -5.6067  -22.8793  -52.0906 C.3       15 UNK        -0.1800 
     87 C          -3.0513  -23.1913  -51.9436 C.2       15 UNK         0.5000 
     88 O          -3.1150  -23.7263  -53.0518 O.2       15 UNK        -0.5000 
     89 N          -1.9380  -23.1729  -51.1936 N.am      16 UNK        -0.5000 
     90 CA         -0.6594  -23.8353  -51.4889 C.3       16 UNK         0.1400 
     91 CB          0.0250  -23.2019  -52.7186 C.3       16 UNK        -0.1800 
     92 C          -0.7880  -25.3709  -51.6121 C.2       16 UNK         0.5000 
     93 O          -0.0813  -25.9837  -52.4123 O.2       16 UNK        -0.5000 
     94 N          -1.7032  -25.9548  -50.8234 N.am      17 UNK        -0.5000 
     95 CA         -2.1719  -27.3441  -50.8815 C.3       17 UNK         0.1400 
     96 CB         -1.0358  -28.3468  -50.5874 C.3       17 UNK        -0.1800 
     97 C          -2.9252  -27.6212  -52.1994 C.2       17 UNK         0.5000 
     98 O          -2.6175  -28.5824  -52.9068 O.2       17 UNK        -0.5000 
     99 N          -3.8995  -26.7458  -52.4907 N.am      18 UNK        -0.5000 
    100 CA        -4.7624  -26.7160  -53.6763 C.3       18 UNK         0.1400 
    101 CB        -5.7538  -27.8975  -53.6470 C.3       18 UNK        -0.1800 
    102 C         -3.9730  -26.6160  -55.0000 C.2       18 UNK         0.5000 
    103 O         -4.2329  -27.3766  -55.9352 O.2       18 UNK        -0.5000 
    104 N         -3.0160  -25.6816  -55.0466 N.am      19 UNK        -0.5000 
    105 CA        -2.1238  -25.4502  -56.1840 C.3       19 UNK         0.1400 
    106 CB        -0.7187  -25.9634  -55.8324 C.3       19 UNK        -0.1800 
    107 C         -2.0661  -23.9751  -56.6215 C.2       19 UNK         0.5000 
    108 O         -1.6483  -23.7162  -57.7514 O.2       19 UNK        -0.5000 
    109 N         -2.4732  -23.0342  -55.7589 N.am      20 UNK        -0.5000 
    110 CA        -2.4682  -21.6010  -56.0369 C.3       20 UNK         0.1400 
    111 CB        -1.1970  -20.9613  -55.4528 C.3       20 UNK        -0.1800 
    112 C         -3.7358  -20.9835  -55.4392 C.2       20 UNK         0.5000 
    113 O         -3.8348  -20.8515  -54.2188 O.2       20 UNK        -0.5000 
    114 N         -4.6896  -20.6193  -56.3036 N.am      21 UNK        -0.5000 
    115 CA        -5.9739  -20.0142  -55.9450 C.3       21 UNK         0.1400 
    116 CB        -6.9634  -20.2383  -57.1029 C.3       21 UNK        -0.1800 
    117 C         -5.8313  -18.5242  -55.5625 C.2       21 UNK         0.5000 
    118 O         -6.3655  -17.6496  -56.2472 O.2       21 UNK        -0.5000 
    119 N         -5.0948  -18.2646  -54.4779 N.am      22 UNK        -0.5000 
    120 CA        -4.8743  -16.9366  -53.8815 C.3       22 UNK         0.1400 
    121 C         -6.1078  -16.3231  -53.1516 C.2       22 UNK         0.5000 
    122 N         -7.1723  -17.0723  -52.8900 N.am      22 UNK        -0.7600 
    123 O         -6.1043  -15.1373  -52.8323 O.2       22 UNK        -0.5000 
    124 C124       -3.6073  -16.9152  -52.9848 C.3       23 UNK        -0.0398 
    125 S125       -3.6027  -18.2222  -51.7040 S.3       23 UNK        -0.2404 
    126 C126       -2.0446  -19.1084  -52.0573 C.3       23 UNK        -0.0205 
    127 H127       -3.2354  -12.0138  -46.4453 H         1 UNK         0.0600 
    128 H128       -4.6057  -12.5660  -47.4052 H         1 UNK         0.0600 
    129 H129       -2.9762  -12.7184  -48.0539 H         1 UNK         0.0600 
    130 H130       -2.2199  -15.5758  -45.7645 H         1 UNK         0.3000 
    131 H131       -1.0624  -12.9723  -46.6572 H         1 UNK         0.0600 
    132 H132        0.9861  -14.3048  -47.2742 H         1 UNK         0.0800 
    133 H133        0.0762  -15.7812  -47.0344 H         1 UNK         0.0800 
    134 H134        0.7858  -14.8883  -50.9108 H         1 UNK         0.0800 
    135 H135        1.6613  -15.2206  -49.4415 H         1 UNK         0.0800 
    136 H136       -1.3373  -16.5375  -51.2955 H         1 UNK         0.1150 
    137 H137       -0.0525  -20.6156  -51.0250 H         1 UNK         0.1150 
    138 H138        2.2620  -17.5110  -49.1979 H         1 UNK         0.1150 
    139 H139        2.8658  -20.4210  -50.5927 H         1 UNK         0.0800 
    140 H140        3.0092  -19.7585  -48.9855 H         1 UNK         0.0800 
    141 H141        1.1498  -20.1323  -47.2981 H         1 UNK         0.0800 
    142 H142        1.8973  -21.5615  -46.6408 H         1 UNK         0.0800 
    143 H143       -0.2473  -22.8413  -47.0642 H         1 UNK         0.0600 
    144 H144        0.2208  -20.9925  -45.0021 H         1 UNK         0.3000 
    145 H145       -2.7087  -21.5949  -43.0368 H         1 UNK         0.0600 
    146 H146       -0.9109  -21.9657  -41.3667 H         1 UNK         0.0600 
    147 H147       -1.0339  -23.3421  -42.4531 H         1 UNK         0.0600 
    148 H148        0.2749  -22.1841  -42.6505 H         1 UNK         0.0600 
    149 H149       -0.5454  -19.7991  -42.6427 H         1 UNK         0.3000 
    150 H150       -1.9467  -16.9953  -44.4058 H         1 UNK         0.0600 
    151 H151       -2.8648  -16.8624  -42.1785 H         1 UNK         0.0600 
    152 H152       -1.2758  -16.1226  -42.0919 H         1 UNK         0.0600 
    153 H153       -1.5244  -17.7411  -41.4674 H         1 UNK         0.0600 
    154 H154        0.5714  -17.2767  -43.1431 H         1 UNK         0.3000 
    155 H155        2.3523  -18.7298  -45.8987 H         1 UNK         0.0600 
    156 H156        2.5097  -15.9149  -44.7305 H         1 UNK         0.0600 
    157 H157        2.4018  -16.3268  -46.4351 H         1 UNK         0.0600 
    158 H158        3.8278  -16.7756  -45.5163 H         1 UNK         0.0600 
    159 H159        3.0365  -17.8548  -43.2272 H         1 UNK         0.3000 
    160 H160        2.5016  -21.0159  -41.6746 H         1 UNK         0.0600 
    161 H161        5.1104  -19.5656  -42.3905 H         1 UNK         0.0600 
    162 H162        4.7466  -21.2496  -42.7491 H         1 UNK         0.0600 
    163 H163        4.8947  -20.7256  -41.0793 H         1 UNK         0.0600 
    164 H164        3.5721  -18.5150  -40.7612 H         1 UNK         0.3000 
    165 H165        0.4997  -16.8984  -40.0355 H         1 UNK         0.0600 
    166 H166        1.4406  -16.7852  -37.7427 H         1 UNK         0.0600 
    167 H167        0.7909  -18.3872  -38.0522 H         1 UNK         0.0600 
    168 H168        2.5308  -18.1272  -38.0929 H         1 UNK         0.0600 
    169 H169        3.2413  -16.2334  -39.5214 H         1 UNK         0.3000 
    170 H170        4.0985  -14.3805  -40.7658 H         1 UNK         0.0600 
    171 H171        5.1608  -16.6615  -41.2153 H         1 UNK         0.0600 
    172 H172        4.8389  -16.4511  -42.9327 H         1 UNK         0.0600 
    173 H173        5.9662  -15.3879  -42.0995 H         1 UNK         0.0600 
    174 H174        2.7479  -14.1539  -43.2563 H         1 UNK         0.3000 
    175 H175        4.7947  -11.4012  -44.4694 H         1 UNK         0.0600 
    176 H176        3.3494  -13.8288  -45.6476 H         1 UNK         0.0600 
    177 H177        3.8254  -12.3767  -46.5191 H         1 UNK         0.0600 
    178 H178        5.0505  -13.4426  -45.8482 H         1 UNK         0.0600 
    179 H179        1.9466  -12.1861  -44.4077 H         1 UNK         0.3000 
    180 H180        1.0241   -9.5389  -42.2616 H         1 UNK         0.0600 
    181 H181        0.6002   -9.5268  -45.3005 H         1 UNK         0.0600 
    182 H182        1.2497   -8.1927  -44.3551 H         1 UNK         0.0600 
    183 H183       -0.4119   -8.7058  -44.1110 H         1 UNK         0.0600 
    184 H184       -0.4914  -11.2803  -43.9631 H         1 UNK         0.3000 
    185 H185       -0.2249  -14.2134  -42.1349 H         1 UNK         0.0600 
    186 H186       -1.8191  -13.0953  -40.5732 H         1 UNK         0.0600 
    187 H187       -2.6589  -12.3584  -41.9325 H         1 UNK         0.0600 
    188 H188       -2.6847  -14.1078  -41.7164 H         1 UNK         0.0600 
    189 H189       -2.1513  -13.5585  -44.0784 H         1 UNK         0.3000 
    190 H190       -1.2901  -19.4028  -46.8127 H         1 UNK         0.3000 
    191 H191       -2.6879  -19.3244  -49.2585 H         1 UNK         0.0600 
    192 H192       -1.9465  -17.2970  -48.0504 H         1 UNK         0.0600 
    193 H193       -3.6776  -17.2302  -48.3354 H         1 UNK         0.0600 
    194 H194       -3.0699  -17.6352  -46.7338 H         1 UNK         0.0600 
    195 H195       -3.8609  -20.0776  -45.9502 H         1 UNK         0.3000 
    196 H196       -6.5907  -20.4537  -46.5935 H         1 UNK         0.0600 
    197 H197       -6.6567  -21.6992  -44.4278 H         1 UNK         0.0600 
    198 H198       -5.7527  -20.2000  -44.2742 H         1 UNK         0.0600 
    199 H199       -4.8982  -21.7373  -44.3836 H         1 UNK         0.0600 
    200 H200       -3.8394  -22.7175  -46.7491 H         1 UNK         0.3000 
    201 H201       -5.4230  -24.9978  -47.6166 H         1 UNK         0.0600 
    202 H202       -3.2997  -25.2355  -46.3249 H         1 UNK         0.0600 
    203 H203       -2.3987  -24.4863  -47.6402 H         1 UNK         0.0600 
    204 H204       -3.1812  -26.0459  -47.8769 H         1 UNK         0.0600 
    205 H205       -4.4452  -22.1787  -49.2416 H         1 UNK         0.3000 
    206 H206       -4.1682  -21.4877  -51.3246 H         1 UNK         0.0600 
    207 H207       -6.4626  -22.3713  -51.6465 H         1 UNK         0.0600 
    208 H208       -5.5342  -22.5435  -53.1248 H         1 UNK         0.0600 
    209 H209       -5.8257  -23.9463  -52.1106 H         1 UNK         0.0600 
    210 H210       -1.9873  -22.7138  -50.2838 H         1 UNK         0.3000 
    211 H211       -0.0196  -23.6554  -50.6249 H         1 UNK         0.0600 
    212 H212       -0.5245  -23.4051  -53.6367 H         1 UNK         0.0600 
    213 H213        1.0333  -23.5956  -52.8501 H         1 UNK         0.0600 
    214 H214        0.1161  -22.1230  -52.6177 H         1 UNK         0.0600 
    215 H215       -2.2597  -25.3462  -50.2402 H         1 UNK         0.3000 
    216 H216       -2.9074  -27.4514  -50.0831 H         1 UNK         0.0600 
    217 H217       -1.4302  -29.3590  -50.4927 H         1 UNK         0.0600 
    218 H218       -0.5304  -28.1062  -49.6522 H         1 UNK         0.0600 
    219 H219       -0.2870  -28.3657  -51.3793 H         1 UNK         0.0600 
    220 H220       -4.0784  -26.0141  -51.8086 H         1 UNK         0.3000 
    221 H221       -5.3463  -25.7978  -53.6056 H         1 UNK         0.0600 
    222 H222       -5.2442  -28.8567  -53.7428 H         1 UNK         0.0600 
    223 H223       -6.3217  -27.9111  -52.7167 H         1 UNK         0.0600 
    224 H224       -6.4729  -27.8252  -54.4638 H         1 UNK         0.0600 
    225 H225       -2.8993  -25.0751  -54.2372 H         1 UNK         0.3000 
    226 H226       -2.4757  -26.0088  -57.0535 H         1 UNK         0.0600 
    227 H227       -0.7432  -27.0125  -55.5369 H         1 UNK         0.0600 
    228 H228       -0.0460  -25.8799  -56.6868 H         1 UNK         0.0600 
    229 H229       -0.2784  -25.3959  -55.0131 H         1 UNK         0.0600 
    230 H230       -2.8181  -23.2941  -54.8375 H         1 UNK         0.3000 
    231 H231       -2.4758  -21.4204  -57.1139 H         1 UNK         0.0600 
    232 H232       -1.1440  -21.0886  -54.3720 H         1 UNK         0.0600 
    233 H233       -1.1700  -19.8907  -55.6582 H         1 UNK         0.0600 
    234 H234       -0.2985  -21.4009  -55.8857 H         1 UNK         0.0600 
    235 H235       -4.5224  -20.7441  -57.2915 H         1 UNK         0.3000 
    236 H236       -6.3707  -20.5338  -55.0700 H         1 UNK         0.0600 
    237 H237       -7.0993  -21.3010  -57.3046 H         1 UNK         0.0600 
    238 H238       -7.9451  -19.8274  -56.8639 H         1 UNK         0.0600 
    239 H239       -6.6225  -19.7630  -58.0236 H         1 UNK         0.0600 
    240 H240       -4.6603  -19.0472  -53.9977 H         1 UNK         0.3000 
    241 H241       -4.6762  -16.2543  -54.7104 H         1 UNK         0.0600 
    242 H242       -7.9660  -16.6619  -52.4239 H         1 UNK         0.3800 
    243 H243       -7.1828  -18.0488  -53.1343 H         1 UNK         0.3800 
    244 H244       -2.7252  -17.0219  -53.6163 H         1 UNK         0.0800 
    245 H245       -3.4914  -15.9471  -52.4944 H         1 UNK         0.0800 
    246 H246       -2.2223  -20.1657  -51.8597 H         1 UNK         0.0800 
    247 H247       -1.8011  -19.0424  -53.1174 H         1 UNK         0.0800 
@<TRIPOS>BOND
     1    1    2 1    
     2    1  127 1    
     3    1  128 1    
     4    1  129 1    
     5    2    3 2    
     6    2    4 am   BACKBONE|DICT|INTERRES
     7    4    5 1    
     8    4  130 1    
     9    5    6 1    
    10    5   65 1    
    11    5  131 1    
    12    6    7 1    
    13    6  132 1    
    14    6  133 1    
    15    7    8 1    
    16    8    9 1    
    17    8  134 1    
    18    8  135 1    
    19    9   10 ar   
    20    9   14 ar   
    21   10   11 ar   
    22   10  136 1    
    23   11   12 ar   
    24   11  126 1    
    25   12   13 ar   
    26   12  137 1    
    27   13   14 ar   
    28   13   15 1    
    29   14  138 1    
    30   15   16 1    
    31   15  139 1    
    32   15  140 1    
    33   16   17 1    
    34   17   18 1    
    35   17  141 1    
    36   17  142 1    
    37   18   19 1    
    38   18   67 1    
    39   18  143 1    
    40   19   20 am   BACKBONE|DICT|INTERRES
    41   19  144 1    
    42   20   21 2    
    43   20   22 1    
    44   22   23 1    
    45   22   24 1    
    46   22  145 1    
    47   23  146 1    
    48   23  147 1    
    49   23  148 1    
    50   24   25 am   BACKBONE|DICT|INTERRES
    51   24  149 1    
    52   25   26 2    
    53   25   27 1    
    54   27   28 1    
    55   27   29 1    
    56   27  150 1    
    57   28  151 1    
    58   28  152 1    
    59   28  153 1    
    60   29   30 am   BACKBONE|DICT|INTERRES
    61   29  154 1    
    62   30   31 2    
    63   30   32 1    
    64   32   33 1    
    65   32   34 1    
    66   32  155 1    
    67   33  156 1    
    68   33  157 1    
    69   33  158 1    
    70   34   35 am   BACKBONE|DICT|INTERRES
    71   34  159 1    
    72   35   36 2    
    73   35   37 1    
    74   37   38 1    
    75   37   39 1    
    76   37  160 1    
    77   38  161 1    
    78   38  162 1    
    79   38  163 1    
    80   39   40 am   BACKBONE|DICT|INTERRES
    81   39  164 1    
    82   40   41 2    
    83   40   42 1    
    84   42   43 1    
    85   42   44 1    
    86   42  165 1    
    87   43  166 1    
    88   43  167 1    
    89   43  168 1    
    90   44   45 am   BACKBONE|DICT|INTERRES
    91   44  169 1    
    92   45   46 2    
    93   45   47 1    
    94   47   48 1    
    95   47   49 1    
    96   47  170 1    
    97   48  171 1    
    98   48  172 1    
    99   48  173 1    
   100   49   50 am   BACKBONE|DICT|INTERRES
   101   49  174 1    
   102   50   51 2    
   103   50   52 1    
   104   52   53 1    
   105   52   54 1    
   106   52  175 1    
   107   53  176 1    
   108   53  177 1    
   109   53  178 1    
   110   54   55 am   BACKBONE|DICT|INTERRES
   111   54  179 1    
   112   55   56 2    
   113   55   57 1    
   114   57   58 1    
   115   57   59 1    
   116   57  180 1    
   117   58  181 1    
   118   58  182 1    
   119   58  183 1    
   120   59   60 am   BACKBONE|DICT|INTERRES
   121   59  184 1    
   122   60   61 2    
   123   60   62 1    
   124   62   63 1    
   125   62   64 1    
   126   62  185 1    
   127   63  186 1    
   128   63  187 1    
   129   63  188 1    
   130   64   65 am   BACKBONE|DICT|INTERRES
   131   64  189 1    
   132   65   66 2    
   133   67   68 2    
   134   67   69 am   BACKBONE|DICT|INTERRES
   135   69   70 1    
   136   69  190 1    
   137   70   71 1    
   138   70   72 1    
   139   70  191 1    
   140   71  192 1    
   141   71  193 1    
   142   71  194 1    
   143   72   73 2    
   144   72   74 am   BACKBONE|DICT|INTERRES
   145   74   75 1    
   146   74  195 1    
   147   75   76 1    
   148   75   77 1    
   149   75  196 1    
   150   76  197 1    
   151   76  198 1    
   152   76  199 1    
   153   77   78 2    
   154   77   79 am   BACKBONE|DICT|INTERRES
   155   79   80 1    
   156   79  200 1    
   157   80   81 1    
   158   80   82 1    
   159   80  201 1    
   160   81  202 1    
   161   81  203 1    
   162   81  204 1    
   163   82   83 2    
   164   82   84 am   BACKBONE|DICT|INTERRES
   165   84   85 1    
   166   84  205 1    
   167   85   86 1    
   168   85   87 1    
   169   85  206 1    
   170   86  207 1    
   171   86  208 1    
   172   86  209 1    
   173   87   88 2    
   174   87   89 am   BACKBONE|DICT|INTERRES
   175   89   90 1    
   176   89  210 1    
   177   90   91 1    
   178   90   92 1    
   179   90  211 1    
   180   91  212 1    
   181   91  213 1    
   182   91  214 1    
   183   92   93 2    
   184   92   94 am   BACKBONE|DICT|INTERRES
   185   94   95 1    
   186   94  215 1    
   187   95   96 1    
   188   95   97 1    
   189   95  216 1    
   190   96  217 1    
   191   96  218 1    
   192   96  219 1    
   193   97   98 2    
   194   97   99 am   BACKBONE|DICT|INTERRES
   195   99  100 1    
   196   99  220 1    
   197  100  101 1    
   198  100  102 1    
   199  100  221 1    
   200  101  222 1    
   201  101  223 1    
   202  101  224 1    
   203  102  103 2    
   204  102  104 am   BACKBONE|DICT|INTERRES
   205  104  105 1    
   206  104  225 1    
   207  105  106 1    
   208  105  107 1    
   209  105  226 1    
   210  106  227 1    
   211  106  228 1    
   212  106  229 1    
   213  107  108 2    
   214  107  109 am   BACKBONE|DICT|INTERRES
   215  109  110 1    
   216  109  230 1    
   217  110  111 1    
   218  110  112 1    
   219  110  231 1    
   220  111  232 1    
   221  111  233 1    
   222  111  234 1    
   223  112  113 2    
   224  112  114 am   BACKBONE|DICT|INTERRES
   225  114  115 1    
   226  114  235 1    
   227  115  116 1    
   228  115  117 1    
   229  115  236 1    
   230  116  237 1    
   231  116  238 1    
   232  116  239 1    
   233  117  118 2    
   234  117  119 am   BACKBONE|DICT|INTERRES
   235  119  120 1    
   236  119  240 1    
   237  120  121 1    
   238  120  124 1    
   239  120  241 1    
   240  121  122 am   BACKBONE|DICT|INTERRES
   241  121  123 2    
   242  122  242 1    
   243  122  243 1    
   244  124  125 1    
   245  124  244 1    
   246  124  245 1    
   247  125  126 1    
   248  126  246 1    
   249  126  247 1    
@<TRIPOS>SUBSTRUCTURE
     1 UNK         1 GROUP             0       ****    0 ROOT    
