@<TRIPOS>MOLECULE
3R540
247   249    1
SMALL
USER_CHARGES


@<TRIPOS>ATOM
      1 CA          2.4655  -12.6927  -48.5487 C.3       0 UNK        -0.1800 
      2 C           3.9428  -12.8561  -48.2191 C.2       0 UNK         0.5000 
      3 O           4.5578  -11.9516  -47.6556 O.2       0 UNK        -0.5000 
      4 N           4.5121  -14.0043  -48.6000 N.am      1 UNK        -0.5000 
      5 CA          5.9325  -14.3441  -48.4702 C.3       1 UNK         0.1400 
      6 C6          6.3342  -15.5315  -49.3868 C.3       23 UNK        -0.0398 
      7 S7          5.1739  -16.9465  -49.3183 S.3       23 UNK        -0.2404 
      8 C8          4.1894  -16.6622  -50.8242 C.3       23 UNK        -0.0205 
      9 C9          2.7717  -17.1810  -50.6535 C.ar      23 UNK        -0.0193 
     10 C10         1.7606  -16.3304  -50.1947 C.ar      23 UNK        -0.1150 
     11 C11         0.4573  -16.8047  -50.0269 C.ar      23 UNK        -0.0193 
     12 C12         0.1685  -18.1377  -50.3238 C.ar      23 UNK        -0.1150 
     13 C13         1.1675  -18.9957  -50.7919 C.ar      23 UNK        -0.0193 
     14 C14         2.4681  -18.5110  -50.9559 C.ar      23 UNK        -0.1150 
     15 C15         0.8437  -20.4450  -51.1212 C.3       23 UNK        -0.0205 
     16 S16         1.4502  -21.5847  -49.8396 S.3       23 UNK        -0.2404 
     17 C17         0.5486  -21.0026  -48.3635 C.3       23 UNK        -0.0398 
     18 CA          0.1352  -22.1586  -47.4245 C.3       11 UNK         0.1400 
     19 N           0.0517  -21.7138  -46.0330 N.am      11 UNK        -0.5000 
     20 C           0.0504  -22.5364  -44.9757 C.2       10 UNK         0.5000 
     21 O          -0.0257  -23.7622  -45.0651 O.2       10 UNK        -0.5000 
     22 CA          0.1575  -21.8749  -43.5932 C.3       10 UNK         0.1400 
     23 CB          1.5817  -21.3505  -43.3485 C.3       10 UNK        -0.1800 
     24 N          -0.7888  -20.7707  -43.4733 N.am      10 UNK        -0.5000 
     25 C          -2.0476  -20.9015  -43.0361 C.2       9 UNK         0.5000 
     26 O          -2.5174  -21.9520  -42.5978 O.2       9 UNK        -0.5000 
     27 CA         -2.9426  -19.6505  -43.1218 C.3       9 UNK         0.1400 
     28 CB         -2.8891  -18.8567  -41.8080 C.3       9 UNK        -0.1800 
     29 N          -2.6005  -18.7654  -44.2382 N.am      9 UNK        -0.5000 
     30 C          -2.7131  -19.1059  -45.5313 C.2       8 UNK         0.5000 
     31 O          -3.0717  -20.2171  -45.9123 O.2       8 UNK        -0.5000 
     32 CA         -2.3254  -18.0496  -46.5797 C.3       8 UNK         0.1400 
     33 CB         -3.5366  -17.1490  -46.8640 C.3       8 UNK        -0.1800 
     34 N          -1.1871  -17.2179  -46.1893 N.am      8 UNK        -0.5000 
     35 C           0.0193  -17.6636  -45.8022 C.2       7 UNK         0.5000 
     36 O           0.3389  -18.8537  -45.7930 O.2       7 UNK        -0.5000 
     37 CA          1.0167  -16.6096  -45.2761 C.3       7 UNK         0.1400 
     38 CB          1.9500  -16.1699  -46.4145 C.3       7 UNK        -0.1800 
     39 N           0.3782  -15.4240  -44.6903 N.am      7 UNK        -0.5000 
     40 C          -0.5564  -15.4354  -43.7252 C.2       6 UNK         0.5000 
     41 O          -0.8870  -16.4517  -43.1132 O.2       6 UNK        -0.5000 
     42 CA         -1.3158  -14.1239  -43.4437 C.3       6 UNK         0.1400 
     43 CB         -0.8410  -13.4808  -42.1332 C.3       6 UNK        -0.1800 
     44 N          -1.2499  -13.1240  -44.5110 N.am      6 UNK        -0.5000 
     45 C          -1.6384  -13.2608  -45.7852 C.2       5 UNK         0.5000 
     46 O          -2.0822  -14.3096  -46.2527 O.2       5 UNK        -0.5000 
     47 CA         -1.4613  -12.0376  -46.7097 C.3       5 UNK         0.1400 
     48 CB         -2.6951  -11.1186  -46.6599 C.3       5 UNK        -0.1800 
     49 N          -0.2137  -11.2879  -46.4950 N.am      5 UNK        -0.5000 
     50 C           0.1850  -10.5868  -45.4235 C.2       4 UNK         0.5000 
     51 O          -0.5077  -10.3905  -44.4231 O.2       4 UNK        -0.5000 
     52 CA          1.6463  -10.1001  -45.4416 C.3       4 UNK         0.1400 
     53 CB          1.7432   -8.6157  -45.0539 C.3       4 UNK        -0.1800 
     54 N           2.5098  -10.8843  -44.5522 N.am      4 UNK        -0.5000 
     55 C           2.6715  -12.2144  -44.5783 C.2       3 UNK         0.5000 
     56 O           2.0535  -12.9786  -45.3255 O.2       3 UNK        -0.5000 
     57 CA          3.7048  -12.8042  -43.6113 C.3       3 UNK         0.1400 
     58 CB          3.0349  -13.2653  -42.3046 C.3       3 UNK        -0.1800 
     59 N           4.3247  -13.9298  -44.2959 N.am      3 UNK        -0.5000 
     60 C           5.4164  -14.6046  -43.9249 C.2       2 UNK         0.5000 
     61 O           6.0622  -14.3662  -42.9038 O.2       2 UNK        -0.5000 
     62 CA          5.8699  -15.7315  -44.8716 C.3       2 UNK         0.1400 
     63 CB          5.1774  -17.0554  -44.5119 C.3       2 UNK        -0.1800 
     64 N           5.6139  -15.4157  -46.2802 N.am      2 UNK        -0.5000 
     65 C           6.3576  -14.5677  -47.0043 C.2       1 UNK         0.5000 
     66 O           7.3393  -13.9704  -46.5598 O.2       1 UNK        -0.5000 
     67 C          -1.1278  -22.8984  -47.9155 C.2       11 UNK         0.5000 
     68 O          -1.0038  -23.7839  -48.7603 O.2       11 UNK        -0.5000 
     69 N          -2.3110  -22.5860  -47.3628 N.am      12 UNK        -0.5000 
     70 CA         -3.5674  -23.2695  -47.6916 C.3       12 UNK         0.1400 
     71 CB         -4.7561  -22.5584  -47.0304 C.3       12 UNK        -0.1800 
     72 C          -3.5714  -24.7638  -47.3277 C.2       12 UNK         0.5000 
     73 O          -4.2257  -25.5416  -48.0205 O.2       12 UNK        -0.5000 
     74 N          -2.8226  -25.1481  -46.2839 N.am      13 UNK        -0.5000 
     75 CA         -2.6324  -26.5441  -45.8900 C.3       13 UNK         0.1400 
     76 CB         -2.0300  -26.6072  -44.4787 C.3       13 UNK        -0.1800 
     77 C          -1.7568  -27.3106  -46.8978 C.2       13 UNK         0.5000 
     78 O          -2.0640  -28.4590  -47.2171 O.2       13 UNK        -0.5000 
     79 N          -0.7094  -26.6488  -47.4106 N.am      14 UNK        -0.5000 
     80 CA          0.1808  -27.1762  -48.4470 C.3       14 UNK         0.1400 
     81 CB          1.4487  -26.3109  -48.5222 C.3       14 UNK        -0.1800 
     82 C          -0.5119  -27.2602  -49.8200 C.2       14 UNK         0.5000 
     83 O          -0.3250  -28.2412  -50.5401 O.2       14 UNK        -0.5000 
     84 N          -1.3266  -26.2456  -50.1381 N.am      15 UNK        -0.5000 
     85 CA         -2.1429  -26.1611  -51.3501 C.3       15 UNK         0.1400 
     86 CB         -2.5362  -24.6919  -51.5785 C.3       15 UNK        -0.1800 
     87 C          -3.4045  -27.0477  -51.3138 C.2       15 UNK         0.5000 
     88 O          -4.0983  -27.1314  -52.3266 O.2       15 UNK        -0.5000 
     89 N          -3.7129  -27.6509  -50.1549 N.am      16 UNK        -0.5000 
     90 CA         -4.8951  -28.4741  -49.8656 C.3       16 UNK         0.1400 
     91 CB         -4.8059  -29.8219  -50.6101 C.3       16 UNK        -0.1800 
     92 C          -6.2233  -27.7275  -50.1267 C.2       16 UNK         0.5000 
     93 O          -7.1824  -28.3159  -50.6287 O.2       16 UNK        -0.5000 
     94 N          -6.2252  -26.4245  -49.8093 N.am      17 UNK        -0.5000 
     95 CA         -7.2868  -25.4335  -50.0144 C.3       17 UNK         0.1400 
     96 CB         -8.5238  -25.7788  -49.1604 C.3       17 UNK        -0.1800 
     97 C          -7.6534  -25.1607  -51.4927 C.2       17 UNK         0.5000 
     98 O          -8.6522  -24.4848  -51.7450 O.2       17 UNK        -0.5000 
     99 N          -6.8508  -25.6537  -52.4486 N.am      18 UNK        -0.5000 
    100 CA        -7.0650  -25.4604  -53.8870 C.3       18 UNK         0.1400 
    101 CB        -6.4384  -26.6377  -54.6507 C.3       18 UNK        -0.1800 
    102 C         -6.5038  -24.1211  -54.4057 C.2       18 UNK         0.5000 
    103 O         -6.8108  -23.7349  -55.5346 O.2       18 UNK        -0.5000 
    104 N         -5.6936  -23.4415  -53.5874 N.am      19 UNK        -0.5000 
    105 CA        -5.0777  -22.1481  -53.8623 C.3       19 UNK         0.1400 
    106 CB        -3.8117  -22.3360  -54.7265 C.3       19 UNK        -0.1800 
    107 C         -4.8146  -21.4338  -52.5235 C.2       19 UNK         0.5000 
    108 O         -5.5074  -21.7157  -51.5429 O.2       19 UNK        -0.5000 
    109 N         -3.8223  -20.5309  -52.5086 N.am      20 UNK        -0.5000 
    110 CA        -3.3640  -19.7217  -51.3694 C.3       20 UNK         0.1400 
    111 CB        -2.9602  -20.6104  -50.1742 C.3       20 UNK        -0.1800 
    112 C         -4.3476  -18.6090  -50.9514 C.2       20 UNK         0.5000 
    113 O         -4.2746  -18.1220  -49.8231 O.2       20 UNK        -0.5000 
    114 N         -5.2394  -18.2032  -51.8639 N.am      21 UNK        -0.5000 
    115 CA        -6.2851  -17.2015  -51.6480 C.3       21 UNK         0.1400 
    116 CB        -7.4075  -17.4425  -52.6743 C.3       21 UNK        -0.1800 
    117 C         -5.7458  -15.7530  -51.6806 C.2       21 UNK         0.5000 
    118 O         -6.1861  -14.9478  -52.5036 O.2       21 UNK        -0.5000 
    119 N         -4.7970  -15.4454  -50.7882 N.am      22 UNK        -0.5000 
    120 CA        -4.1985  -14.1070  -50.6242 C.3       22 UNK         0.1400 
    121 C         -5.1031  -13.0813  -49.8773 C.2       22 UNK         0.5000 
    122 N         -6.2096  -13.4847  -49.2644 N.am      22 UNK        -0.7600 
    123 O         -4.7966  -11.8926  -49.8594 O.2       22 UNK        -0.5000 
    124 C124       -2.7950  -14.1613  -49.9688 C.3       23 UNK        -0.0398 
    125 S125       -1.6095  -15.1945  -50.8929 S.3       23 UNK        -0.2404 
    126 C126       -0.6415  -15.8861  -49.5208 C.3       23 UNK        -0.0205 
    127 H127        2.2756  -12.9369  -49.5938 H         1 UNK         0.0600 
    128 H128        1.8559  -13.3452  -47.9250 H         1 UNK         0.0600 
    129 H129        2.1493  -11.6632  -48.3872 H         1 UNK         0.0600 
    130 H130        3.9467  -14.7193  -49.0323 H         1 UNK         0.3000 
    131 H131        6.4974  -13.4763  -48.8185 H         1 UNK         0.0600 
    132 H132        6.4046  -15.1828  -50.4179 H         1 UNK         0.0800 
    133 H133        7.3360  -15.8905  -49.1432 H         1 UNK         0.0800 
    134 H134        4.1597  -15.5996  -51.0697 H         1 UNK         0.0800 
    135 H135        4.6742  -17.1549  -51.6683 H         1 UNK         0.0800 
    136 H136        1.9842  -15.2989  -49.9689 H         1 UNK         0.1150 
    137 H137       -0.8386  -18.5004  -50.1896 H         1 UNK         0.1150 
    138 H138        3.2460  -19.1734  -51.3090 H         1 UNK         0.1150 
    139 H139       -0.2286  -20.5839  -51.2554 H         1 UNK         0.0800 
    140 H140        1.3040  -20.7101  -52.0741 H         1 UNK         0.0800 
    141 H141       -0.3141  -20.3995  -48.6420 H         1 UNK         0.0800 
    142 H142        1.2287  -20.3225  -47.8488 H         1 UNK         0.0800 
    143 H143        0.9413  -22.8960  -47.4450 H         1 UNK         0.0600 
    144 H144        0.1145  -20.7104  -45.8789 H         1 UNK         0.3000 
    145 H145       -0.0556  -22.6332  -42.8366 H         1 UNK         0.0600 
    146 H146        1.6787  -20.9332  -42.3461 H         1 UNK         0.0600 
    147 H147        2.3137  -22.1542  -43.4380 H         1 UNK         0.0600 
    148 H148        1.8583  -20.5727  -44.0615 H         1 UNK         0.0600 
    149 H149       -0.5019  -19.8791  -43.8540 H         1 UNK         0.3000 
    150 H150       -3.9691  -19.9913  -43.2721 H         1 UNK         0.0600 
    151 H151       -3.2029  -19.4748  -40.9660 H         1 UNK         0.0600 
    152 H152       -3.5511  -17.9912  -41.8410 H         1 UNK         0.0600 
    153 H153       -1.8808  -18.5002  -41.5946 H         1 UNK         0.0600 
    154 H154       -2.2263  -17.8548  -43.9969 H         1 UNK         0.3000 
    155 H155       -2.0554  -18.5731  -47.4982 H         1 UNK         0.0600 
    156 H156       -3.3453  -16.4725  -47.6947 H         1 UNK         0.0600 
    157 H157       -3.8023  -16.5449  -45.9957 H         1 UNK         0.0600 
    158 H158       -4.4124  -17.7426  -47.1299 H         1 UNK         0.0600 
    159 H159       -1.3657  -16.2193  -46.1476 H         1 UNK         0.3000 
    160 H160        1.6127  -17.0832  -44.4941 H         1 UNK         0.0600 
    161 H161        1.3997  -15.6628  -47.2062 H         1 UNK         0.0600 
    162 H162        2.4563  -17.0259  -46.8636 H         1 UNK         0.0600 
    163 H163        2.7171  -15.4876  -46.0563 H         1 UNK         0.0600 
    164 H164        0.6298  -14.5303  -45.0979 H         1 UNK         0.3000 
    165 H165       -2.3665  -14.3953  -43.3248 H         1 UNK         0.0600 
    166 H166        0.1609  -13.0662  -42.2320 H         1 UNK         0.0600 
    167 H167       -1.5054  -12.6706  -41.8323 H         1 UNK         0.0600 
    168 H168       -0.8232  -14.2053  -41.3178 H         1 UNK         0.0600 
    169 H169       -0.9078  -12.2049  -44.2444 H         1 UNK         0.3000 
    170 H170       -1.3904  -12.4307  -47.7246 H         1 UNK         0.0600 
    171 H171       -3.5974  -11.6677  -46.9331 H         1 UNK         0.0600 
    172 H172       -2.8563  -10.7023  -45.6653 H         1 UNK         0.0600 
    173 H173       -2.5970  -10.2893  -47.3604 H         1 UNK         0.0600 
    174 H174        0.4744  -11.4272  -47.2199 H         1 UNK         0.3000 
    175 H175        2.0388  -10.2044  -46.4545 H         1 UNK         0.0600 
    176 H176        2.7638   -8.2464  -45.1570 H         1 UNK         0.0600 
    177 H177        1.1105   -8.0023  -45.6969 H         1 UNK         0.0600 
    178 H178        1.4271   -8.4456  -44.0238 H         1 UNK         0.0600 
    179 H179        3.0430  -10.3501  -43.8820 H         1 UNK         0.3000 
    180 H180        4.4683  -12.0542  -43.3958 H         1 UNK         0.0600 
    181 H181        2.3217  -14.0704  -42.4854 H         1 UNK         0.0600 
    182 H182        2.4995  -12.4434  -41.8281 H         1 UNK         0.0600 
    183 H183        3.7694  -13.6281  -41.5859 H         1 UNK         0.0600 
    184 H184        3.8677  -14.1679  -45.1659 H         1 UNK         0.3000 
    185 H185        6.9450  -15.8683  -44.7357 H         1 UNK         0.0600 
    186 H186        5.5159  -17.8664  -45.1569 H         1 UNK         0.0600 
    187 H187        5.4016  -17.3433  -43.4840 H         1 UNK         0.0600 
    188 H188        4.0940  -16.9853  -44.6006 H         1 UNK         0.0600 
    189 H189        4.8486  -15.8944  -46.7314 H         1 UNK         0.3000 
    190 H190       -2.3749  -21.8221  -46.6946 H         1 UNK         0.3000 
    191 H191       -3.7047  -23.2083  -48.7718 H         1 UNK         0.0600 
    192 H192       -4.8571  -21.5371  -47.3976 H         1 UNK         0.0600 
    193 H193       -5.6932  -23.0717  -47.2507 H         1 UNK         0.0600 
    194 H194       -4.6482  -22.5191  -45.9458 H         1 UNK         0.0600 
    195 H195       -2.2878  -24.4521  -45.7820 H         1 UNK         0.3000 
    196 H196       -3.6114  -27.0275  -45.8608 H         1 UNK         0.0600 
    197 H197       -1.9383  -27.6405  -44.1419 H         1 UNK         0.0600 
    198 H198       -2.6581  -26.0844  -43.7572 H         1 UNK         0.0600 
    199 H199       -1.0352  -26.1627  -44.4418 H         1 UNK         0.0600 
    200 H200       -0.5486  -25.6963  -47.1150 H         1 UNK         0.3000 
    201 H201        0.4776  -28.1872  -48.1597 H         1 UNK         0.0600 
    202 H202        1.9650  -26.2835  -47.5626 H         1 UNK         0.0600 
    203 H203        1.2244  -25.2837  -48.8112 H         1 UNK         0.0600 
    204 H204        2.1487  -26.7108  -49.2568 H         1 UNK         0.0600 
    205 H205       -1.3531  -25.4371  -49.5202 H         1 UNK         0.3000 
    206 H206       -1.5388  -26.4887  -52.1985 H         1 UNK         0.0600 
    207 H207       -1.6573  -24.0493  -51.6381 H         1 UNK         0.0600 
    208 H208       -3.0870  -24.5773  -52.5120 H         1 UNK         0.0600 
    209 H209       -3.1711  -24.3169  -50.7761 H         1 UNK         0.0600 
    210 H210       -3.1022  -27.4800  -49.3682 H         1 UNK         0.3000 
    211 H211       -4.8677  -28.6823  -48.7951 H         1 UNK         0.0600 
    212 H212       -4.8773  -29.6928  -51.6905 H         1 UNK         0.0600 
    213 H213       -5.6111  -30.4915  -50.3060 H         1 UNK         0.0600 
    214 H214       -3.8650  -30.3284  -50.3943 H         1 UNK         0.0600 
    215 H215       -5.3939  -26.0703  -49.3388 H         1 UNK         0.3000 
    216 H216       -6.8827  -24.4933  -49.6359 H         1 UNK         0.0600 
    217 H217       -8.2498  -25.9400  -48.1178 H         1 UNK         0.0600 
    218 H218       -9.0258  -26.6777  -49.5191 H         1 UNK         0.0600 
    219 H219       -9.2537  -24.9687  -49.1796 H         1 UNK         0.0600 
    220 H220       -6.0444  -26.2089  -52.1851 H         1 UNK         0.3000 
    221 H221       -8.1381  -25.4668  -54.0898 H         1 UNK         0.0600 
    222 H222       -5.3507  -26.6321  -54.5789 H         1 UNK         0.0600 
    223 H223       -6.7966  -27.5942  -54.2694 H         1 UNK         0.0600 
    224 H224       -6.6934  -26.5933  -55.7102 H         1 UNK         0.0600 
    225 H225       -5.5621  -23.7844  -52.6460 H         1 UNK         0.3000 
    226 H226       -5.7906  -21.5300  -54.4116 H         1 UNK         0.0600 
    227 H227       -4.0271  -22.9171  -55.6233 H         1 UNK         0.0600 
    228 H228       -3.4125  -21.3791  -55.0635 H         1 UNK         0.0600 
    229 H229       -3.0221  -22.8529  -54.1805 H         1 UNK         0.0600 
    230 H230       -3.3151  -20.3821  -53.3700 H         1 UNK         0.3000 
    231 H231       -2.4674  -19.2083  -51.7176 H         1 UNK         0.0600 
    232 H232       -2.4421  -20.0311  -49.4122 H         1 UNK         0.0600 
    233 H233       -2.3042  -21.4259  -50.4777 H         1 UNK         0.0600 
    234 H234       -3.8332  -21.0448  -49.6895 H         1 UNK         0.0600 
    235 H235       -5.2074  -18.6258  -52.7793 H         1 UNK         0.3000 
    236 H236       -6.7129  -17.3572  -50.6554 H         1 UNK         0.0600 
    237 H237       -8.2342  -16.7473  -52.5221 H         1 UNK         0.0600 
    238 H238       -7.0528  -17.3142  -53.6978 H         1 UNK         0.0600 
    239 H239       -7.8138  -18.4502  -52.5841 H         1 UNK         0.0600 
    240 H240       -4.4625  -16.1821  -50.1752 H         1 UNK         0.3000 
    241 H241       -4.0606  -13.6926  -51.6248 H         1 UNK         0.0600 
    242 H242       -6.4736  -14.4563  -49.2668 H         1 UNK         0.3800 
    243 H243       -6.7879  -12.8087  -48.7906 H         1 UNK         0.3800 
    244 H244       -2.3653  -13.1602  -49.9054 H         1 UNK         0.0800 
    245 H245       -2.8766  -14.5216  -48.9426 H         1 UNK         0.0800 
    246 H246       -0.2205  -15.0733  -48.9270 H         1 UNK         0.0800 
    247 H247       -1.3045  -16.4440  -48.8614 H         1 UNK         0.0800 
@<TRIPOS>BOND
     1    1    2 1    
     2    1  127 1    
     3    1  128 1    
     4    1  129 1    
     5    2    3 2    
     6    2    4 am   BACKBONE|DICT|INTERRES
     7    4    5 1    
     8    4  130 1    
     9    5    6 1    
    10    5   65 1    
    11    5  131 1    
    12    6    7 1    
    13    6  132 1    
    14    6  133 1    
    15    7    8 1    
    16    8    9 1    
    17    8  134 1    
    18    8  135 1    
    19    9   10 ar   
    20    9   14 ar   
    21   10   11 ar   
    22   10  136 1    
    23   11   12 ar   
    24   11  126 1    
    25   12   13 ar   
    26   12  137 1    
    27   13   14 ar   
    28   13   15 1    
    29   14  138 1    
    30   15   16 1    
    31   15  139 1    
    32   15  140 1    
    33   16   17 1    
    34   17   18 1    
    35   17  141 1    
    36   17  142 1    
    37   18   19 1    
    38   18   67 1    
    39   18  143 1    
    40   19   20 am   BACKBONE|DICT|INTERRES
    41   19  144 1    
    42   20   21 2    
    43   20   22 1    
    44   22   23 1    
    45   22   24 1    
    46   22  145 1    
    47   23  146 1    
    48   23  147 1    
    49   23  148 1    
    50   24   25 am   BACKBONE|DICT|INTERRES
    51   24  149 1    
    52   25   26 2    
    53   25   27 1    
    54   27   28 1    
    55   27   29 1    
    56   27  150 1    
    57   28  151 1    
    58   28  152 1    
    59   28  153 1    
    60   29   30 am   BACKBONE|DICT|INTERRES
    61   29  154 1    
    62   30   31 2    
    63   30   32 1    
    64   32   33 1    
    65   32   34 1    
    66   32  155 1    
    67   33  156 1    
    68   33  157 1    
    69   33  158 1    
    70   34   35 am   BACKBONE|DICT|INTERRES
    71   34  159 1    
    72   35   36 2    
    73   35   37 1    
    74   37   38 1    
    75   37   39 1    
    76   37  160 1    
    77   38  161 1    
    78   38  162 1    
    79   38  163 1    
    80   39   40 am   BACKBONE|DICT|INTERRES
    81   39  164 1    
    82   40   41 2    
    83   40   42 1    
    84   42   43 1    
    85   42   44 1    
    86   42  165 1    
    87   43  166 1    
    88   43  167 1    
    89   43  168 1    
    90   44   45 am   BACKBONE|DICT|INTERRES
    91   44  169 1    
    92   45   46 2    
    93   45   47 1    
    94   47   48 1    
    95   47   49 1    
    96   47  170 1    
    97   48  171 1    
    98   48  172 1    
    99   48  173 1    
   100   49   50 am   BACKBONE|DICT|INTERRES
   101   49  174 1    
   102   50   51 2    
   103   50   52 1    
   104   52   53 1    
   105   52   54 1    
   106   52  175 1    
   107   53  176 1    
   108   53  177 1    
   109   53  178 1    
   110   54   55 am   BACKBONE|DICT|INTERRES
   111   54  179 1    
   112   55   56 2    
   113   55   57 1    
   114   57   58 1    
   115   57   59 1    
   116   57  180 1    
   117   58  181 1    
   118   58  182 1    
   119   58  183 1    
   120   59   60 am   BACKBONE|DICT|INTERRES
   121   59  184 1    
   122   60   61 2    
   123   60   62 1    
   124   62   63 1    
   125   62   64 1    
   126   62  185 1    
   127   63  186 1    
   128   63  187 1    
   129   63  188 1    
   130   64   65 am   BACKBONE|DICT|INTERRES
   131   64  189 1    
   132   65   66 2    
   133   67   68 2    
   134   67   69 am   BACKBONE|DICT|INTERRES
   135   69   70 1    
   136   69  190 1    
   137   70   71 1    
   138   70   72 1    
   139   70  191 1    
   140   71  192 1    
   141   71  193 1    
   142   71  194 1    
   143   72   73 2    
   144   72   74 am   BACKBONE|DICT|INTERRES
   145   74   75 1    
   146   74  195 1    
   147   75   76 1    
   148   75   77 1    
   149   75  196 1    
   150   76  197 1    
   151   76  198 1    
   152   76  199 1    
   153   77   78 2    
   154   77   79 am   BACKBONE|DICT|INTERRES
   155   79   80 1    
   156   79  200 1    
   157   80   81 1    
   158   80   82 1    
   159   80  201 1    
   160   81  202 1    
   161   81  203 1    
   162   81  204 1    
   163   82   83 2    
   164   82   84 am   BACKBONE|DICT|INTERRES
   165   84   85 1    
   166   84  205 1    
   167   85   86 1    
   168   85   87 1    
   169   85  206 1    
   170   86  207 1    
   171   86  208 1    
   172   86  209 1    
   173   87   88 2    
   174   87   89 am   BACKBONE|DICT|INTERRES
   175   89   90 1    
   176   89  210 1    
   177   90   91 1    
   178   90   92 1    
   179   90  211 1    
   180   91  212 1    
   181   91  213 1    
   182   91  214 1    
   183   92   93 2    
   184   92   94 am   BACKBONE|DICT|INTERRES
   185   94   95 1    
   186   94  215 1    
   187   95   96 1    
   188   95   97 1    
   189   95  216 1    
   190   96  217 1    
   191   96  218 1    
   192   96  219 1    
   193   97   98 2    
   194   97   99 am   BACKBONE|DICT|INTERRES
   195   99  100 1    
   196   99  220 1    
   197  100  101 1    
   198  100  102 1    
   199  100  221 1    
   200  101  222 1    
   201  101  223 1    
   202  101  224 1    
   203  102  103 2    
   204  102  104 am   BACKBONE|DICT|INTERRES
   205  104  105 1    
   206  104  225 1    
   207  105  106 1    
   208  105  107 1    
   209  105  226 1    
   210  106  227 1    
   211  106  228 1    
   212  106  229 1    
   213  107  108 2    
   214  107  109 am   BACKBONE|DICT|INTERRES
   215  109  110 1    
   216  109  230 1    
   217  110  111 1    
   218  110  112 1    
   219  110  231 1    
   220  111  232 1    
   221  111  233 1    
   222  111  234 1    
   223  112  113 2    
   224  112  114 am   BACKBONE|DICT|INTERRES
   225  114  115 1    
   226  114  235 1    
   227  115  116 1    
   228  115  117 1    
   229  115  236 1    
   230  116  237 1    
   231  116  238 1    
   232  116  239 1    
   233  117  118 2    
   234  117  119 am   BACKBONE|DICT|INTERRES
   235  119  120 1    
   236  119  240 1    
   237  120  121 1    
   238  120  124 1    
   239  120  241 1    
   240  121  122 am   BACKBONE|DICT|INTERRES
   241  121  123 2    
   242  122  242 1    
   243  122  243 1    
   244  124  125 1    
   245  124  244 1    
   246  124  245 1    
   247  125  126 1    
   248  126  246 1    
   249  126  247 1    
@<TRIPOS>SUBSTRUCTURE
     1 UNK         1 GROUP             0       ****    0 ROOT    
