@<TRIPOS>MOLECULE
3R540
247   249    1
SMALL
USER_CHARGES


@<TRIPOS>ATOM
      1 CA          2.4851  -12.5292  -53.8714 C.3       0 UNK        -0.1800 
      2 C           2.3926  -13.3970  -52.6240 C.2       0 UNK         0.5000 
      3 O           3.3427  -14.1124  -52.3042 O.2       0 UNK        -0.5000 
      4 N           1.2515  -13.3417  -51.9270 N.am      1 UNK        -0.5000 
      5 CA          0.9879  -14.0740  -50.6838 C.3       1 UNK         0.1400 
      6 C6         -0.5194  -14.0802  -50.3254 C.3       23 UNK        -0.0398 
      7 S7         -1.5597  -14.8516  -51.6124 S.3       23 UNK        -0.2404 
      8 C8         -1.8359  -16.5161  -50.9285 C.3       23 UNK        -0.0205 
      9 C9         -0.6314  -17.4231  -51.1263 C.ar      23 UNK        -0.0193 
     10 C10        -0.4998  -18.1610  -52.3061 C.ar      23 UNK        -0.1150 
     11 C11         0.5689  -19.0463  -52.4723 C.ar      23 UNK        -0.0193 
     12 C12         1.5176  -19.1778  -51.4565 C.ar      23 UNK        -0.1150 
     13 C13         1.3973  -18.4512  -50.2694 C.ar      23 UNK        -0.0193 
     14 C14         0.3239  -17.5653  -50.1154 C.ar      23 UNK        -0.1150 
     15 C15         2.4102  -18.6813  -49.1509 C.3       23 UNK        -0.0205 
     16 S16         1.6779  -18.8600  -47.4864 S.3       23 UNK        -0.2404 
     17 C17         0.2670  -19.9924  -47.7455 C.3       23 UNK        -0.0398 
     18 CA          0.4871  -21.4463  -47.2659 C.3       11 UNK         0.1400 
     19 N           0.8667  -21.5575  -45.8513 N.am      11 UNK        -0.5000 
     20 C           1.1616  -22.7116  -45.2319 C.2       10 UNK         0.5000 
     21 O           1.2223  -23.7964  -45.8090 O.2       10 UNK        -0.5000 
     22 CA          1.3542  -22.6689  -43.7058 C.3       10 UNK         0.1400 
     23 CB          2.7966  -22.2970  -43.3300 C.3       10 UNK        -0.1800 
     24 N           0.4091  -21.7555  -43.0633 N.am      10 UNK        -0.5000 
     25 C          -0.9031  -22.0020  -42.9379 C.2       9 UNK         0.5000 
     26 O          -1.4354  -23.0511  -43.3021 O.2       9 UNK        -0.5000 
     27 CA         -1.7739  -20.8726  -42.3511 C.3       9 UNK         0.1400 
     28 CB         -1.7316  -20.8955  -40.8163 C.3       9 UNK        -0.1800 
     29 N          -1.3817  -19.5455  -42.8283 N.am      9 UNK        -0.5000 
     30 C          -1.4294  -19.1574  -44.1104 C.2       8 UNK         0.5000 
     31 O          -1.8975  -19.8502  -45.0122 O.2       8 UNK        -0.5000 
     32 CA         -0.7924  -17.7997  -44.4591 C.3       8 UNK         0.1400 
     33 CB         -1.8190  -16.6658  -44.3323 C.3       8 UNK        -0.1800 
     34 N           0.3865  -17.4877  -43.6499 N.am      8 UNK        -0.5000 
     35 C           1.5049  -18.2242  -43.5936 C.2       7 UNK         0.5000 
     36 O           1.6632  -19.2676  -44.2220 O.2       7 UNK        -0.5000 
     37 CA          2.6031  -17.7527  -42.6288 C.3       7 UNK         0.1400 
     38 CB          3.4214  -16.6046  -43.2328 C.3       7 UNK        -0.1800 
     39 N           2.0350  -17.3323  -41.3514 N.am      7 UNK        -0.5000 
     40 C           1.6412  -18.1787  -40.3908 C.2       6 UNK         0.5000 
     41 O           1.7706  -19.4012  -40.4597 O.2       6 UNK        -0.5000 
     42 CA          0.9692  -17.5530  -39.1544 C.3       6 UNK         0.1400 
     43 CB          2.0218  -17.1719  -38.1026 C.3       6 UNK        -0.1800 
     44 N           0.1627  -16.3743  -39.4786 N.am      6 UNK        -0.5000 
     45 C          -0.9690  -16.4096  -40.1950 C.2       5 UNK         0.5000 
     46 O          -1.4556  -17.4425  -40.6561 O.2       5 UNK        -0.5000 
     47 CA         -1.6490  -15.0563  -40.4753 C.3       5 UNK         0.1400 
     48 CB         -2.5304  -14.6410  -39.2877 C.3       5 UNK        -0.1800 
     49 N          -0.7240  -13.9633  -40.7996 N.am      5 UNK        -0.5000 
     50 C           0.1476  -13.9724  -41.8168 C.2       4 UNK         0.5000 
     51 O           0.3802  -14.9622  -42.5105 O.2       4 UNK        -0.5000 
     52 CA          0.8995  -12.6645  -42.1138 C.3       4 UNK         0.1400 
     53 CB          2.3581  -12.7647  -41.6427 C.3       4 UNK        -0.1800 
     54 N           0.8782  -12.3696  -43.5472 N.am      4 UNK        -0.5000 
     55 C          -0.2155  -12.0652  -44.2560 C.2       3 UNK         0.5000 
     56 O          -1.3273  -11.9099  -43.7485 O.2       3 UNK        -0.5000 
     57 CA         -0.0677  -11.9077  -45.7838 C.3       3 UNK         0.1400 
     58 CB          0.3013  -10.4591  -46.1560 C.3       3 UNK        -0.1800 
     59 N           0.8260  -12.8700  -46.4469 N.am      3 UNK        -0.5000 
     60 C           2.1588  -12.9954  -46.3578 C.2       2 UNK         0.5000 
     61 O           2.8600  -12.3455  -45.5818 O.2       2 UNK        -0.5000 
     62 CA          2.8288  -14.0251  -47.2925 C.3       2 UNK         0.1400 
     63 CB          3.1312  -15.3215  -46.5292 C.3       2 UNK        -0.1800 
     64 N           2.0513  -14.3540  -48.4921 N.am      2 UNK        -0.5000 
     65 C           1.8134  -13.5096  -49.5062 C.2       1 UNK         0.5000 
     66 O           2.1877  -12.3338  -49.5173 O.2       1 UNK        -0.5000 
     67 C          -0.7828  -22.2658  -47.5765 C.2       11 UNK         0.5000 
     68 O          -0.8125  -22.9906  -48.5727 O.2       11 UNK        -0.5000 
     69 N          -1.8005  -22.1401  -46.7122 N.am      12 UNK        -0.5000 
     70 CA         -3.0753  -22.8482  -46.8077 C.3       12 UNK         0.1400 
     71 CB         -4.0681  -22.2790  -45.7845 C.3       12 UNK        -0.1800 
     72 C          -2.9346  -24.3698  -46.6574 C.2       12 UNK         0.5000 
     73 O          -3.6084  -25.1113  -47.3724 O.2       12 UNK        -0.5000 
     74 N          -2.0406  -24.8043  -45.7593 N.am      13 UNK        -0.5000 
     75 CA         -1.6633  -26.2065  -45.5918 C.3       13 UNK         0.1400 
     76 CB         -0.8438  -26.3645  -44.3021 C.3       13 UNK        -0.1800 
     77 C          -0.8893  -26.7574  -46.8056 C.2       13 UNK         0.5000 
     78 O          -1.0806  -27.9198  -47.1648 O.2       13 UNK        -0.5000 
     79 N          -0.0371  -25.9185  -47.4117 N.am      14 UNK        -0.5000 
     80 CA          0.7645  -26.2506  -48.5860 C.3       14 UNK         0.1400 
     81 CB          1.8878  -25.2168  -48.7693 C.3       14 UNK        -0.1800 
     82 C          -0.0777  -26.3957  -49.8656 C.2       14 UNK         0.5000 
     83 O          -0.0226  -27.4548  -50.4932 O.2       14 UNK        -0.5000 
     84 N          -0.8284  -25.3474  -50.2391 N.am      15 UNK        -0.5000 
     85 CA         -1.5967  -25.3167  -51.4903 C.3       15 UNK         0.1400 
     86 CB         -0.6478  -25.2347  -52.7045 C.3       15 UNK        -0.1800 
     87 C          -2.6518  -24.2001  -51.5806 C.2       15 UNK         0.5000 
     88 O          -3.6330  -24.3804  -52.3029 O.2       15 UNK        -0.5000 
     89 N          -2.4730  -23.0740  -50.8767 N.am      16 UNK        -0.5000 
     90 CA         -3.3253  -21.8793  -50.9773 C.3       16 UNK         0.1400 
     91 CB         -2.4961  -20.6461  -50.5749 C.3       16 UNK        -0.1800 
     92 C          -4.6219  -21.9920  -50.1438 C.2       16 UNK         0.5000 
     93 O          -5.0053  -21.0335  -49.4713 O.2       16 UNK        -0.5000 
     94 N          -5.2407  -23.1794  -50.1433 N.am      17 UNK        -0.5000 
     95 CA         -6.3830  -23.5738  -49.3193 C.3       17 UNK         0.1400 
     96 CB         -6.6329  -25.0787  -49.5150 C.3       17 UNK        -0.1800 
     97 C          -7.6394  -22.7355  -49.6223 C.2       17 UNK         0.5000 
     98 O          -8.4022  -23.0782  -50.5277 O.2       17 UNK        -0.5000 
     99 N          -7.7955  -21.6325  -48.8749 N.am      18 UNK        -0.5000 
    100 CA        -8.8147  -20.5886  -49.0279 C.3       18 UNK         0.1400 
    101 CB       -10.2122  -21.1320  -48.6624 C.3       18 UNK        -0.1800 
    102 C         -8.7675  -19.9138  -50.4168 C.2       18 UNK         0.5000 
    103 O         -9.8151  -19.6128  -50.9931 O.2       18 UNK        -0.5000 
    104 N         -7.5508  -19.7068  -50.9368 N.am      19 UNK        -0.5000 
    105 CA        -7.2916  -19.1727  -52.2695 C.3       19 UNK         0.1400 
    106 CB        -6.9448  -20.3395  -53.2093 C.3       19 UNK        -0.1800 
    107 C         -6.1461  -18.1530  -52.2244 C.2       19 UNK         0.5000 
    108 O         -5.2850  -18.2234  -51.3462 O.2       19 UNK        -0.5000 
    109 N         -6.1439  -17.2428  -53.2044 N.am      20 UNK        -0.5000 
    110 CA        -5.1133  -16.2202  -53.4094 C.3       20 UNK         0.1400 
    111 CB        -5.7941  -14.9444  -53.9342 C.3       20 UNK        -0.1800 
    112 C         -3.9980  -16.6878  -54.3705 C.2       20 UNK         0.5000 
    113 O         -3.1484  -15.8823  -54.7517 O.2       20 UNK        -0.5000 
    114 N         -4.0258  -17.9639  -54.7692 N.am      21 UNK        -0.5000 
    115 CA        -3.0854  -18.5972  -55.6836 C.3       21 UNK         0.1400 
    116 CB        -3.5638  -18.3955  -57.1325 C.3       21 UNK        -0.1800 
    117 C         -2.9753  -20.0874  -55.3327 C.2       21 UNK         0.5000 
    118 O         -3.8263  -20.6148  -54.6117 O.2       21 UNK        -0.5000 
    119 N         -1.9287  -20.7271  -55.8608 N.am      22 UNK        -0.5000 
    120 CA        -1.5804  -22.1394  -55.6263 C.3       22 UNK         0.1400 
    121 C         -1.7949  -23.0412  -56.8775 C.2       22 UNK         0.5000 
    122 N         -2.3495  -22.5407  -57.9753 N.am      22 UNK        -0.7600 
    123 O         -1.4689  -24.2247  -56.8510 O.2       22 UNK        -0.5000 
    124 C124       -0.1364  -22.2630  -55.0713 C.3       23 UNK        -0.0398 
    125 S125        0.0002  -21.5626  -53.3947 S.3       23 UNK        -0.2404 
    126 C126        0.6728  -19.9045  -53.7211 C.3       23 UNK        -0.0205 
    127 H127        2.6640  -13.1508  -54.7487 H         1 UNK         0.0600 
    128 H128        1.5700  -11.9605  -54.0388 H         1 UNK         0.0600 
    129 H129        3.3110  -11.8241  -53.7773 H         1 UNK         0.0600 
    130 H130        0.5103  -12.7305  -52.2370 H         1 UNK         0.3000 
    131 H131        1.3100  -15.1041  -50.8442 H         1 UNK         0.0600 
    132 H132       -0.8761  -13.0593  -50.1770 H         1 UNK         0.0800 
    133 H133       -0.6943  -14.5952  -49.3796 H         1 UNK         0.0800 
    134 H134       -2.1017  -16.4513  -49.8724 H         1 UNK         0.0800 
    135 H135       -2.7008  -16.9605  -51.4221 H         1 UNK         0.0800 
    136 H136       -1.2470  -18.0670  -53.0813 H         1 UNK         0.1150 
    137 H137        2.3319  -19.8779  -51.5808 H         1 UNK         0.1150 
    138 H138        0.2108  -17.0145  -49.1933 H         1 UNK         0.1150 
    139 H139        2.9993  -19.5775  -49.3517 H         1 UNK         0.0800 
    140 H140        3.1141  -17.8485  -49.1378 H         1 UNK         0.0800 
    141 H141       -0.0042  -20.0070  -48.8001 H         1 UNK         0.0800 
    142 H142       -0.5907  -19.5484  -47.2407 H         1 UNK         0.0800 
    143 H143        1.3038  -21.8721  -47.8523 H         1 UNK         0.0600 
    144 H144        0.9162  -20.6935  -45.3184 H         1 UNK         0.3000 
    145 H145        1.1637  -23.6730  -43.3208 H         1 UNK         0.0600 
    146 H146        2.9263  -22.2622  -42.2482 H         1 UNK         0.0600 
    147 H147        3.4978  -23.0364  -43.7185 H         1 UNK         0.0600 
    148 H148        3.0919  -21.3296  -43.7340 H         1 UNK         0.0600 
    149 H149        0.7654  -20.8463  -42.8008 H         1 UNK         0.3000 
    150 H150       -2.8039  -21.0500  -42.6669 H         1 UNK         0.0600 
    151 H151       -2.0339  -21.8701  -40.4311 H         1 UNK         0.0600 
    152 H152       -2.4091  -20.1537  -40.3928 H         1 UNK         0.0600 
    153 H153       -0.7302  -20.6874  -40.4378 H         1 UNK         0.0600 
    154 H154       -1.0484  -18.8869  -42.1331 H         1 UNK         0.3000 
    155 H155       -0.4675  -17.8443  -45.4996 H         1 UNK         0.0600 
    156 H156       -2.1798  -16.5669  -43.3088 H         1 UNK         0.0600 
    157 H157       -2.6844  -16.8498  -44.9701 H         1 UNK         0.0600 
    158 H158       -1.3906  -15.7088  -44.6314 H         1 UNK         0.0600 
    159 H159        0.3536  -16.6147  -43.1252 H         1 UNK         0.3000 
    160 H160        3.2817  -18.5909  -42.4549 H         1 UNK         0.0600 
    161 H161        4.1985  -16.2686  -42.5463 H         1 UNK         0.0600 
    162 H162        2.7970  -15.7455  -43.4794 H         1 UNK         0.0600 
    163 H163        3.9164  -16.9315  -44.1476 H         1 UNK         0.0600 
    164 H164        1.8278  -16.3492  -41.2483 H         1 UNK         0.3000 
    165 H165        0.3092  -18.3071  -38.7200 H         1 UNK         0.0600 
    166 H166        1.5525  -16.7994  -37.1918 H         1 UNK         0.0600 
    167 H167        2.6266  -18.0362  -37.8250 H         1 UNK         0.0600 
    168 H168        2.7000  -16.4012  -38.4712 H         1 UNK         0.0600 
    169 H169        0.4959  -15.4819  -39.1446 H         1 UNK         0.3000 
    170 H170       -2.2992  -15.1944  -41.3410 H         1 UNK         0.0600 
    171 H171       -3.2418  -15.4284  -39.0347 H         1 UNK         0.0600 
    172 H172       -1.9360  -14.4366  -38.3963 H         1 UNK         0.0600 
    173 H173       -3.1084  -13.7461  -39.5190 H         1 UNK         0.0600 
    174 H174       -0.8423  -13.1111  -40.2710 H         1 UNK         0.3000 
    175 H175        0.4149  -11.8411  -41.5854 H         1 UNK         0.0600 
    176 H176        2.8961  -13.5584  -42.1627 H         1 UNK         0.0600 
    177 H177        2.8925  -11.8305  -41.8164 H         1 UNK         0.0600 
    178 H178        2.4112  -12.9760  -40.5740 H         1 UNK         0.0600 
    179 H179        1.7511  -12.4685  -44.0570 H         1 UNK         0.3000 
    180 H180       -1.0557  -12.1030  -46.2039 H         1 UNK         0.0600 
    181 H181        1.2737  -10.1702  -45.7563 H         1 UNK         0.0600 
    182 H182       -0.4336   -9.7567  -45.7607 H         1 UNK         0.0600 
    183 H183        0.3302  -10.3254  -47.2376 H         1 UNK         0.0600 
    184 H184        0.3624  -13.4992  -47.0848 H         1 UNK         0.3000 
    185 H185        3.7781  -13.5954  -47.6193 H         1 UNK         0.0600 
    186 H186        3.7923  -15.1178  -45.6870 H         1 UNK         0.0600 
    187 H187        2.2242  -15.7852  -46.1379 H         1 UNK         0.0600 
    188 H188        3.6352  -16.0506  -47.1639 H         1 UNK         0.0600 
    189 H189        1.7245  -15.3065  -48.5566 H         1 UNK         0.3000 
    190 H190       -1.7180  -21.4648  -45.9557 H         1 UNK         0.3000 
    191 H191       -3.4734  -22.6620  -47.8009 H         1 UNK         0.0600 
    192 H192       -3.7040  -22.3936  -44.7633 H         1 UNK         0.0600 
    193 H193       -5.0317  -22.7855  -45.8503 H         1 UNK         0.0600 
    194 H194       -4.2459  -21.2178  -45.9598 H         1 UNK         0.0600 
    195 H195       -1.5706  -24.1279  -45.1689 H         1 UNK         0.3000 
    196 H196       -2.5785  -26.7928  -45.4857 H         1 UNK         0.0600 
    197 H197        0.0870  -25.7986  -44.3430 H         1 UNK         0.0600 
    198 H198       -0.5849  -27.4099  -44.1304 H         1 UNK         0.0600 
    199 H199       -1.4056  -26.0207  -43.4333 H         1 UNK         0.0600 
    200 H200        0.1087  -24.9988  -47.0097 H         1 UNK         0.3000 
    201 H201        1.2411  -27.2150  -48.3973 H         1 UNK         0.0600 
    202 H202        1.4991  -24.2113  -48.9259 H         1 UNK         0.0600 
    203 H203        2.5079  -25.4648  -49.6315 H         1 UNK         0.0600 
    204 H204        2.5413  -25.1884  -47.8973 H         1 UNK         0.0600 
    205 H205       -0.8527  -24.5231  -49.6441 H         1 UNK         0.3000 
    206 H206       -2.1546  -26.2532  -51.5592 H         1 UNK         0.0600 
    207 H207       -0.0772  -26.1540  -52.8327 H         1 UNK         0.0600 
    208 H208       -1.1988  -25.0739  -53.6325 H         1 UNK         0.0600 
    209 H209        0.0633  -24.4163  -52.5960 H         1 UNK         0.0600 
    210 H210       -1.6925  -23.0011  -50.2324 H         1 UNK         0.3000 
    211 H211       -3.6208  -21.7492  -52.0205 H         1 UNK         0.0600 
    212 H212       -2.3039  -20.6217  -49.5029 H         1 UNK         0.0600 
    213 H213       -3.0194  -19.7247  -50.8322 H         1 UNK         0.0600 
    214 H214       -1.5353  -20.6239  -51.0856 H         1 UNK         0.0600 
    215 H215       -4.8740  -23.8846  -50.7721 H         1 UNK         0.3000 
    216 H216       -6.1109  -23.4185  -48.2733 H         1 UNK         0.0600 
    217 H217       -7.4849  -25.4135  -48.9221 H         1 UNK         0.0600 
    218 H218       -5.7687  -25.6643  -49.2003 H         1 UNK         0.0600 
    219 H219       -6.8400  -25.3224  -50.5578 H         1 UNK         0.0600 
    220 H220       -7.0572  -21.4134  -48.2195 H         1 UNK         0.3000 
    221 H221       -8.5661  -19.8096  -48.3059 H         1 UNK         0.0600 
    222 H222      -10.5571  -21.8793  -49.3776 H         1 UNK         0.0600 
    223 H223      -10.2106  -21.5902  -47.6734 H         1 UNK         0.0600 
    224 H224      -10.9513  -20.3303  -48.6457 H         1 UNK         0.0600 
    225 H225       -6.7256  -19.9317  -50.3901 H         1 UNK         0.3000 
    226 H226       -8.1778  -18.6608  -52.6508 H         1 UNK         0.0600 
    227 H227       -7.7636  -21.0574  -53.2634 H         1 UNK         0.0600 
    228 H228       -6.7529  -19.9888  -54.2240 H         1 UNK         0.0600 
    229 H229       -6.0561  -20.8750  -52.8725 H         1 UNK         0.0600 
    230 H230       -6.8818  -17.2664  -53.8943 H         1 UNK         0.3000 
    231 H231       -4.6407  -15.9775  -52.4559 H         1 UNK         0.0600 
    232 H232       -6.5698  -14.6015  -53.2492 H         1 UNK         0.0600 
    233 H233       -6.2538  -15.1055  -54.9100 H         1 UNK         0.0600 
    234 H234       -5.0759  -14.1302  -54.0392 H         1 UNK         0.0600 
    235 H235       -4.7024  -18.5974  -54.3649 H         1 UNK         0.3000 
    236 H236       -2.0976  -18.1483  -55.5583 H         1 UNK         0.0600 
    237 H237       -4.5430  -18.8467  -57.2974 H         1 UNK         0.0600 
    238 H238       -3.6389  -17.3362  -57.3792 H         1 UNK         0.0600 
    239 H239       -2.8698  -18.8425  -57.8450 H         1 UNK         0.0600 
    240 H240       -1.3004  -20.2217  -56.4685 H         1 UNK         0.3000 
    241 H241       -2.2526  -22.5579  -54.8742 H         1 UNK         0.0600 
    242 H242       -2.4886  -23.1380  -58.7756 H         1 UNK         0.3800 
    243 H243       -2.6539  -21.5814  -58.0085 H         1 UNK         0.3800 
    244 H244        0.1656  -23.3090  -54.9999 H         1 UNK         0.0800 
    245 H245        0.5834  -21.7856  -55.7380 H         1 UNK         0.0800 
    246 H246        0.1351  -19.4338  -54.5440 H         1 UNK         0.0800 
    247 H247        1.7141  -19.9877  -54.0357 H         1 UNK         0.0800 
@<TRIPOS>BOND
     1    1    2 1    
     2    1  127 1    
     3    1  128 1    
     4    1  129 1    
     5    2    3 2    
     6    2    4 am   BACKBONE|DICT|INTERRES
     7    4    5 1    
     8    4  130 1    
     9    5    6 1    
    10    5   65 1    
    11    5  131 1    
    12    6    7 1    
    13    6  132 1    
    14    6  133 1    
    15    7    8 1    
    16    8    9 1    
    17    8  134 1    
    18    8  135 1    
    19    9   10 ar   
    20    9   14 ar   
    21   10   11 ar   
    22   10  136 1    
    23   11   12 ar   
    24   11  126 1    
    25   12   13 ar   
    26   12  137 1    
    27   13   14 ar   
    28   13   15 1    
    29   14  138 1    
    30   15   16 1    
    31   15  139 1    
    32   15  140 1    
    33   16   17 1    
    34   17   18 1    
    35   17  141 1    
    36   17  142 1    
    37   18   19 1    
    38   18   67 1    
    39   18  143 1    
    40   19   20 am   BACKBONE|DICT|INTERRES
    41   19  144 1    
    42   20   21 2    
    43   20   22 1    
    44   22   23 1    
    45   22   24 1    
    46   22  145 1    
    47   23  146 1    
    48   23  147 1    
    49   23  148 1    
    50   24   25 am   BACKBONE|DICT|INTERRES
    51   24  149 1    
    52   25   26 2    
    53   25   27 1    
    54   27   28 1    
    55   27   29 1    
    56   27  150 1    
    57   28  151 1    
    58   28  152 1    
    59   28  153 1    
    60   29   30 am   BACKBONE|DICT|INTERRES
    61   29  154 1    
    62   30   31 2    
    63   30   32 1    
    64   32   33 1    
    65   32   34 1    
    66   32  155 1    
    67   33  156 1    
    68   33  157 1    
    69   33  158 1    
    70   34   35 am   BACKBONE|DICT|INTERRES
    71   34  159 1    
    72   35   36 2    
    73   35   37 1    
    74   37   38 1    
    75   37   39 1    
    76   37  160 1    
    77   38  161 1    
    78   38  162 1    
    79   38  163 1    
    80   39   40 am   BACKBONE|DICT|INTERRES
    81   39  164 1    
    82   40   41 2    
    83   40   42 1    
    84   42   43 1    
    85   42   44 1    
    86   42  165 1    
    87   43  166 1    
    88   43  167 1    
    89   43  168 1    
    90   44   45 am   BACKBONE|DICT|INTERRES
    91   44  169 1    
    92   45   46 2    
    93   45   47 1    
    94   47   48 1    
    95   47   49 1    
    96   47  170 1    
    97   48  171 1    
    98   48  172 1    
    99   48  173 1    
   100   49   50 am   BACKBONE|DICT|INTERRES
   101   49  174 1    
   102   50   51 2    
   103   50   52 1    
   104   52   53 1    
   105   52   54 1    
   106   52  175 1    
   107   53  176 1    
   108   53  177 1    
   109   53  178 1    
   110   54   55 am   BACKBONE|DICT|INTERRES
   111   54  179 1    
   112   55   56 2    
   113   55   57 1    
   114   57   58 1    
   115   57   59 1    
   116   57  180 1    
   117   58  181 1    
   118   58  182 1    
   119   58  183 1    
   120   59   60 am   BACKBONE|DICT|INTERRES
   121   59  184 1    
   122   60   61 2    
   123   60   62 1    
   124   62   63 1    
   125   62   64 1    
   126   62  185 1    
   127   63  186 1    
   128   63  187 1    
   129   63  188 1    
   130   64   65 am   BACKBONE|DICT|INTERRES
   131   64  189 1    
   132   65   66 2    
   133   67   68 2    
   134   67   69 am   BACKBONE|DICT|INTERRES
   135   69   70 1    
   136   69  190 1    
   137   70   71 1    
   138   70   72 1    
   139   70  191 1    
   140   71  192 1    
   141   71  193 1    
   142   71  194 1    
   143   72   73 2    
   144   72   74 am   BACKBONE|DICT|INTERRES
   145   74   75 1    
   146   74  195 1    
   147   75   76 1    
   148   75   77 1    
   149   75  196 1    
   150   76  197 1    
   151   76  198 1    
   152   76  199 1    
   153   77   78 2    
   154   77   79 am   BACKBONE|DICT|INTERRES
   155   79   80 1    
   156   79  200 1    
   157   80   81 1    
   158   80   82 1    
   159   80  201 1    
   160   81  202 1    
   161   81  203 1    
   162   81  204 1    
   163   82   83 2    
   164   82   84 am   BACKBONE|DICT|INTERRES
   165   84   85 1    
   166   84  205 1    
   167   85   86 1    
   168   85   87 1    
   169   85  206 1    
   170   86  207 1    
   171   86  208 1    
   172   86  209 1    
   173   87   88 2    
   174   87   89 am   BACKBONE|DICT|INTERRES
   175   89   90 1    
   176   89  210 1    
   177   90   91 1    
   178   90   92 1    
   179   90  211 1    
   180   91  212 1    
   181   91  213 1    
   182   91  214 1    
   183   92   93 2    
   184   92   94 am   BACKBONE|DICT|INTERRES
   185   94   95 1    
   186   94  215 1    
   187   95   96 1    
   188   95   97 1    
   189   95  216 1    
   190   96  217 1    
   191   96  218 1    
   192   96  219 1    
   193   97   98 2    
   194   97   99 am   BACKBONE|DICT|INTERRES
   195   99  100 1    
   196   99  220 1    
   197  100  101 1    
   198  100  102 1    
   199  100  221 1    
   200  101  222 1    
   201  101  223 1    
   202  101  224 1    
   203  102  103 2    
   204  102  104 am   BACKBONE|DICT|INTERRES
   205  104  105 1    
   206  104  225 1    
   207  105  106 1    
   208  105  107 1    
   209  105  226 1    
   210  106  227 1    
   211  106  228 1    
   212  106  229 1    
   213  107  108 2    
   214  107  109 am   BACKBONE|DICT|INTERRES
   215  109  110 1    
   216  109  230 1    
   217  110  111 1    
   218  110  112 1    
   219  110  231 1    
   220  111  232 1    
   221  111  233 1    
   222  111  234 1    
   223  112  113 2    
   224  112  114 am   BACKBONE|DICT|INTERRES
   225  114  115 1    
   226  114  235 1    
   227  115  116 1    
   228  115  117 1    
   229  115  236 1    
   230  116  237 1    
   231  116  238 1    
   232  116  239 1    
   233  117  118 2    
   234  117  119 am   BACKBONE|DICT|INTERRES
   235  119  120 1    
   236  119  240 1    
   237  120  121 1    
   238  120  124 1    
   239  120  241 1    
   240  121  122 am   BACKBONE|DICT|INTERRES
   241  121  123 2    
   242  122  242 1    
   243  122  243 1    
   244  124  125 1    
   245  124  244 1    
   246  124  245 1    
   247  125  126 1    
   248  126  246 1    
   249  126  247 1    
@<TRIPOS>SUBSTRUCTURE
     1 UNK         1 GROUP             0       ****    0 ROOT    
