@<TRIPOS>MOLECULE
3R540
247   249    1
SMALL
USER_CHARGES


@<TRIPOS>ATOM
      1 CA         -3.2755  -13.4775  -50.2614 C.3       0 UNK        -0.1800 
      2 C          -2.0083  -13.5197  -49.4188 C.2       0 UNK         0.5000 
      3 O          -1.7664  -12.6022  -48.6329 O.2       0 UNK        -0.5000 
      4 N          -1.2014  -14.5780  -49.5649 N.am      1 UNK        -0.5000 
      5 CA          0.0739  -14.7979  -48.8630 C.3       1 UNK         0.1400 
      6 C6          1.0229  -15.7621  -49.6263 C.3       23 UNK        -0.0398 
      7 S7          1.2204  -15.3545  -51.3945 S.3       23 UNK        -0.2404 
      8 C8          2.6790  -16.3462  -51.8381 C.3       23 UNK        -0.0205 
      9 C9          2.3811  -17.8383  -51.9111 C.ar      23 UNK        -0.0193 
     10 C10         1.8118  -18.3865  -53.0649 C.ar      23 UNK        -0.1150 
     11 C11         1.6262  -19.7675  -53.1800 C.ar      23 UNK        -0.0193 
     12 C12         1.9894  -20.5972  -52.1142 C.ar      23 UNK        -0.1150 
     13 C13         2.5407  -20.0649  -50.9432 C.ar      23 UNK        -0.0193 
     14 C14         2.7378  -18.6812  -50.8539 C.ar      23 UNK        -0.1150 
     15 C15         2.9898  -21.0141  -49.8305 C.3       23 UNK        -0.0205 
     16 S16         2.7977  -20.3679  -48.1316 S.3       23 UNK        -0.2404 
     17 C17         0.9853  -20.3312  -47.9617 C.3       23 UNK        -0.0398 
     18 CA          0.4194  -21.5839  -47.2486 C.3       11 UNK         0.1400 
     19 N           0.8976  -21.7257  -45.8757 N.am      11 UNK        -0.5000 
     20 C           1.2612  -22.8917  -45.3292 C.2       10 UNK         0.5000 
     21 O           1.1134  -23.9842  -45.8786 O.2       10 UNK        -0.5000 
     22 CA          1.9396  -22.8284  -43.9518 C.3       10 UNK         0.1400 
     23 CB          3.3593  -22.2531  -44.0784 C.3       10 UNK        -0.1800 
     24 N           1.1810  -22.0576  -42.9690 N.am      10 UNK        -0.5000 
     25 C           0.0488  -22.4830  -42.3919 C.2       9 UNK         0.5000 
     26 O          -0.5022  -23.5494  -42.6674 O.2       9 UNK        -0.5000 
     27 CA         -0.5648  -21.5735  -41.3117 C.3       9 UNK         0.1400 
     28 CB          0.2027  -21.7065  -39.9872 C.3       9 UNK        -0.1800 
     29 N          -0.6070  -20.1688  -41.7129 N.am      9 UNK        -0.5000 
     30 C          -1.3976  -19.6896  -42.6820 C.2       8 UNK         0.5000 
     31 O          -2.2049  -20.3795  -43.3028 O.2       8 UNK        -0.5000 
     32 CA         -1.2338  -18.1998  -43.0436 C.3       8 UNK         0.1400 
     33 CB         -1.9982  -17.3050  -42.0572 C.3       8 UNK        -0.1800 
     34 N           0.1661  -17.7836  -43.0985 N.am      8 UNK        -0.5000 
     35 C           1.0731  -18.2848  -43.9486 C.2       7 UNK         0.5000 
     36 O           0.8148  -19.1301  -44.8049 O.2       7 UNK        -0.5000 
     37 CA          2.5231  -17.8080  -43.7641 C.3       7 UNK         0.1400 
     38 CB          2.7484  -16.4470  -44.4410 C.3       7 UNK        -0.1800 
     39 N           2.8917  -17.7247  -42.3497 N.am      7 UNK        -0.5000 
     40 C           3.0348  -18.7860  -41.5424 C.2       6 UNK         0.5000 
     41 O           2.8946  -19.9504  -41.9121 O.2       6 UNK        -0.5000 
     42 CA          3.3388  -18.4943  -40.0623 C.3       6 UNK         0.1400 
     43 CB          4.8287  -18.1781  -39.8638 C.3       6 UNK        -0.1800 
     44 N           2.5322  -17.3940  -39.5351 N.am      6 UNK        -0.5000 
     45 C           1.1993  -17.4305  -39.3965 C.2       5 UNK         0.5000 
     46 O           0.5116  -18.4175  -39.6538 O.2       5 UNK        -0.5000 
     47 CA          0.5160  -16.1272  -38.9427 C.3       5 UNK         0.1400 
     48 CB          0.4603  -16.0527  -37.4098 C.3       5 UNK        -0.1800 
     49 N           1.1616  -14.9191  -39.4662 N.am      5 UNK        -0.5000 
     50 C           1.2792  -14.6233  -40.7666 C.2       4 UNK         0.5000 
     51 O           0.8833  -15.3572  -41.6776 O.2       4 UNK        -0.5000 
     52 CA          2.0022  -13.3155  -41.1081 C.3       4 UNK         0.1400 
     53 CB          3.5224  -13.5369  -41.1609 C.3       4 UNK        -0.1800 
     54 N           1.5385  -12.8769  -42.4167 N.am      4 UNK        -0.5000 
     55 C           1.1446  -11.6418  -42.7398 C.2       3 UNK         0.5000 
     56 O           1.2389  -10.6731  -41.9848 O.2       3 UNK        -0.5000 
     57 CA          0.5365  -11.4513  -44.1447 C.3       3 UNK         0.1400 
     58 CB          1.5459  -10.7644  -45.0778 C.3       3 UNK        -0.1800 
     59 N           0.0873  -12.6962  -44.7775 N.am      3 UNK        -0.5000 
     60 C          -0.9640  -13.4341  -44.3904 C.2       2 UNK         0.5000 
     61 O          -1.6710  -13.1515  -43.4226 O.2       2 UNK        -0.5000 
     62 CA         -1.2764  -14.6786  -45.2432 C.3       2 UNK         0.1400 
     63 CB         -2.7649  -15.0688  -45.1972 C.3       2 UNK        -0.1800 
     64 N          -0.8923  -14.4473  -46.6353 N.am      2 UNK        -0.5000 
     65 C          -0.1573  -15.2580  -47.4016 C.2       1 UNK         0.5000 
     66 O           0.3033  -16.3286  -47.0051 O.2       1 UNK        -0.5000 
     67 C          -1.1139  -21.5826  -47.2911 C.2       11 UNK         0.5000 
     68 O          -1.6937  -22.4021  -48.0017 O.2       11 UNK        -0.5000 
     69 N          -1.7616  -20.6650  -46.5579 N.am      12 UNK        -0.5000 
     70 CA         -3.1881  -20.3400  -46.7324 C.3       12 UNK         0.1400 
     71 CB         -3.5075  -18.9841  -46.0847 C.3       12 UNK        -0.1800 
     72 C          -4.1805  -21.4368  -46.3004 C.2       12 UNK         0.5000 
     73 O          -5.3806  -21.2920  -46.5352 O.2       12 UNK        -0.5000 
     74 N          -3.6660  -22.5357  -45.7375 N.am      13 UNK        -0.5000 
     75 CA         -4.3883  -23.7855  -45.5228 C.3       13 UNK         0.1400 
     76 CB         -3.5118  -24.7183  -44.6731 C.3       13 UNK        -0.1800 
     77 C          -4.8080  -24.4850  -46.8355 C.2       13 UNK         0.5000 
     78 O          -5.7886  -25.2305  -46.8166 O.2       13 UNK        -0.5000 
     79 N          -4.0786  -24.2498  -47.9395 N.am      14 UNK        -0.5000 
     80 CA         -4.3457  -24.8789  -49.2385 C.3       14 UNK         0.1400 
     81 CB         -3.6824  -26.2677  -49.2827 C.3       14 UNK        -0.1800 
     82 C          -3.9146  -24.0462  -50.4600 C.2       14 UNK         0.5000 
     83 O          -4.3883  -24.3370  -51.5579 O.2       14 UNK        -0.5000 
     84 N          -3.0379  -23.0519  -50.2786 N.am      15 UNK        -0.5000 
     85 CA         -2.3596  -22.3125  -51.3391 C.3       15 UNK         0.1400 
     86 CB         -0.8909  -22.7964  -51.3536 C.3       15 UNK        -0.1800 
     87 C          -2.5198  -20.7930  -51.1151 C.2       15 UNK         0.5000 
     88 O          -3.6459  -20.2932  -51.0958 O.2       15 UNK        -0.5000 
     89 N          -1.3947  -20.0774  -50.9715 N.am      16 UNK        -0.5000 
     90 CA         -1.2643  -18.6432  -50.6784 C.3       16 UNK         0.1400 
     91 CB         -1.8536  -18.3036  -49.2948 C.3       16 UNK        -0.1800 
     92 C          -1.8104  -17.6963  -51.7615 C.2       16 UNK         0.5000 
     93 O          -2.1404  -16.5523  -51.4489 O.2       16 UNK        -0.5000 
     94 N          -1.9103  -18.1854  -53.0036 N.am      17 UNK        -0.5000 
     95 CA         -2.4899  -17.5130  -54.1712 C.3       17 UNK         0.1400 
     96 CB         -1.6306  -16.3001  -54.5854 C.3       17 UNK        -0.1800 
     97 C          -3.9837  -17.1621  -53.9862 C.2       17 UNK         0.5000 
     98 O          -4.4754  -16.2218  -54.6131 O.2       17 UNK        -0.5000 
     99 N          -4.6730  -17.9183  -53.1213 N.am      18 UNK        -0.5000 
    100 CA        -6.0545  -17.6829  -52.7149 C.3       18 UNK         0.1400 
    101 CB        -6.0683  -17.0267  -51.3234 C.3       18 UNK        -0.1800 
    102 C         -6.8577  -18.9893  -52.7213 C.2       18 UNK         0.5000 
    103 O         -7.9509  -19.0204  -53.2884 O.2       18 UNK        -0.5000 
    104 N         -6.3078  -20.0427  -52.1046 N.am      19 UNK        -0.5000 
    105 CA        -6.8992  -21.3764  -52.0602 C.3       19 UNK         0.1400 
    106 CB        -6.6620  -21.9761  -50.6653 C.3       19 UNK        -0.1800 
    107 C         -6.3640  -22.2619  -53.2035 C.2       19 UNK         0.5000 
    108 O         -5.4148  -21.8868  -53.8988 O.2       19 UNK        -0.5000 
    109 N         -7.0350  -23.4042  -53.3960 N.am      20 UNK        -0.5000 
    110 CA        -7.0295  -24.2657  -54.5830 C.3       20 UNK         0.1400 
    111 CB        -7.8424  -25.5311  -54.2656 C.3       20 UNK        -0.1800 
    112 C         -5.6731  -24.6578  -55.2028 C.2       20 UNK         0.5000 
    113 O         -5.6325  -24.8958  -56.4114 O.2       20 UNK        -0.5000 
    114 N         -4.6001  -24.7439  -54.4049 N.am      21 UNK        -0.5000 
    115 CA        -3.2759  -25.1481  -54.8848 C.3       21 UNK         0.1400 
    116 CB        -2.3892  -25.5535  -53.7006 C.3       21 UNK        -0.1800 
    117 C         -2.5722  -24.0904  -55.7589 C.2       21 UNK         0.5000 
    118 O         -1.7081  -24.4692  -56.5516 O.2       21 UNK        -0.5000 
    119 N         -2.9424  -22.8076  -55.6305 N.am      22 UNK        -0.5000 
    120 CA        -2.3950  -21.7206  -56.4639 C.3       22 UNK         0.1400 
    121 C         -3.3024  -20.4675  -56.6215 C.2       22 UNK         0.5000 
    122 N         -4.4310  -20.3407  -55.9367 N.am      22 UNK        -0.7600 
    123 O         -2.9870  -19.5854  -57.4152 O.2       22 UNK        -0.5000 
    124 C124       -0.9196  -21.3585  -56.1271 C.3       23 UNK        -0.0398 
    125 S125       -0.6626  -20.7557  -54.4261 S.3       23 UNK        -0.2404 
    126 C126        1.1131  -20.3686  -54.4833 C.3       23 UNK        -0.0205 
    127 H127       -4.1522  -13.6001  -49.6254 H         1 UNK         0.0600 
    128 H128       -3.3544  -12.5178  -50.7723 H         1 UNK         0.0600 
    129 H129       -3.2904  -14.2620  -51.0174 H         1 UNK         0.0600 
    130 H130       -1.4646  -15.2967  -50.2366 H         1 UNK         0.3000 
    131 H131        0.5868  -13.8354  -48.8060 H         1 UNK         0.0600 
    132 H132        2.0091  -15.7482  -49.1592 H         1 UNK         0.0800 
    133 H133        0.6765  -16.7896  -49.5491 H         1 UNK         0.0800 
    134 H134        3.0448  -16.0074  -52.8085 H         1 UNK         0.0800 
    135 H135        3.4853  -16.1481  -51.1302 H         1 UNK         0.0800 
    136 H136        1.5501  -17.7386  -53.8897 H         1 UNK         0.1150 
    137 H137        1.8764  -21.6675  -52.2141 H         1 UNK         0.1150 
    138 H138        3.1973  -18.2588  -49.9717 H         1 UNK         0.1150 
    139 H139        2.4547  -21.9625  -49.9007 H         1 UNK         0.0800 
    140 H140        4.0434  -21.2456  -49.9902 H         1 UNK         0.0800 
    141 H141        0.5534  -20.2316  -48.9563 H         1 UNK         0.0800 
    142 H142        0.7205  -19.4191  -47.4243 H         1 UNK         0.0800 
    143 H143        0.7450  -22.4466  -47.8345 H         1 UNK         0.0600 
    144 H144        1.0140  -20.8606  -45.3520 H         1 UNK         0.3000 
    145 H145        2.0307  -23.8517  -43.5810 H         1 UNK         0.0600 
    146 H146        3.8885  -22.2980  -43.1265 H         1 UNK         0.0600 
    147 H147        3.9473  -22.8166  -44.8041 H         1 UNK         0.0600 
    148 H148        3.3457  -21.2123  -44.4046 H         1 UNK         0.0600 
    149 H149        1.5995  -21.1860  -42.6565 H         1 UNK         0.3000 
    150 H150       -1.5905  -21.9071  -41.1401 H         1 UNK         0.0600 
    151 H151        0.2460  -22.7467  -39.6624 H         1 UNK         0.0600 
    152 H152       -0.2820  -21.1376  -39.1935 H         1 UNK         0.0600 
    153 H153        1.2280  -21.3459  -40.0769 H         1 UNK         0.0600 
    154 H154       -0.0098  -19.5279  -41.1996 H         1 UNK         0.3000 
    155 H155       -1.6528  -18.0426  -44.0381 H         1 UNK         0.0600 
    156 H156       -1.8630  -16.2488  -42.2906 H         1 UNK         0.0600 
    157 H157       -1.6672  -17.4626  -41.0311 H         1 UNK         0.0600 
    158 H158       -3.0677  -17.5149  -42.0924 H         1 UNK         0.0600 
    159 H159        0.4580  -17.0624  -42.4448 H         1 UNK         0.3000 
    160 H160        3.1788  -18.5379  -44.2438 H         1 UNK         0.0600 
    161 H161        2.0841  -15.6786  -44.0461 H         1 UNK         0.0600 
    162 H162        2.5651  -16.5166  -45.5137 H         1 UNK         0.0600 
    163 H163        3.7749  -16.1047  -44.3101 H         1 UNK         0.0600 
    164 H164        2.9619  -16.8003  -41.9524 H         1 UNK         0.3000 
    165 H165        3.1011  -19.3937  -39.4900 H         1 UNK         0.0600 
    166 H166        5.1232  -17.2681  -40.3882 H         1 UNK         0.0600 
    167 H167        5.0665  -18.0489  -38.8078 H         1 UNK         0.0600 
    168 H168        5.4527  -18.9903  -40.2393 H         1 UNK         0.0600 
    169 H169        3.0174  -16.5420  -39.2969 H         1 UNK         0.3000 
    170 H170       -0.5083  -16.1446  -39.3197 H         1 UNK         0.0600 
    171 H171       -0.0343  -16.9318  -36.9942 H         1 UNK         0.0600 
    172 H172        1.4577  -15.9993  -36.9717 H         1 UNK         0.0600 
    173 H173       -0.1006  -15.1790  -37.0772 H         1 UNK         0.0600 
    174 H174        1.5224  -14.2709  -38.7808 H         1 UNK         0.3000 
    175 H175        1.7626  -12.5735  -40.3435 H         1 UNK         0.0600 
    176 H176        3.9059  -13.8702  -40.1958 H         1 UNK         0.0600 
    177 H177        4.0435  -12.6137  -41.4152 H         1 UNK         0.0600 
    178 H178        3.7956  -14.2885  -41.9029 H         1 UNK         0.0600 
    179 H179        1.3457  -13.6273  -43.0651 H         1 UNK         0.3000 
    180 H180       -0.3303  -10.7961  -44.0364 H         1 UNK         0.0600 
    181 H181        2.4311  -11.3816  -45.2366 H         1 UNK         0.0600 
    182 H182        1.8798   -9.8130  -44.6614 H         1 UNK         0.0600 
    183 H183        1.1035  -10.5528  -46.0515 H         1 UNK         0.0600 
    184 H184        0.6073  -13.0006  -45.5873 H         1 UNK         0.3000 
    185 H185       -0.6915  -15.4976  -44.8198 H         1 UNK         0.0600 
    186 H186       -2.9615  -15.9428  -45.8165 H         1 UNK         0.0600 
    187 H187       -3.0814  -15.3125  -44.1829 H         1 UNK         0.0600 
    188 H188       -3.4008  -14.2586  -45.5555 H         1 UNK         0.0600 
    189 H189       -1.2519  -13.5990  -47.0671 H         1 UNK         0.3000 
    190 H190       -1.2323  -20.0736  -45.9309 H         1 UNK         0.3000 
    191 H191       -3.3515  -20.2260  -47.8051 H         1 UNK         0.0600 
    192 H192       -2.7569  -18.2364  -46.3397 H         1 UNK         0.0600 
    193 H193       -4.4699  -18.6087  -46.4341 H         1 UNK         0.0600 
    194 H194       -3.5696  -19.0541  -45.0005 H         1 UNK         0.0600 
    195 H195       -2.6717  -22.5486  -45.5634 H         1 UNK         0.3000 
    196 H196       -5.2971  -23.5596  -44.9613 H         1 UNK         0.0600 
    197 H197       -4.0265  -25.6570  -44.4644 H         1 UNK         0.0600 
    198 H198       -3.2649  -24.2628  -43.7136 H         1 UNK         0.0600 
    199 H199       -2.5757  -24.9611  -45.1781 H         1 UNK         0.0600 
    200 H200       -3.2760  -23.6338  -47.8744 H         1 UNK         0.3000 
    201 H201       -5.4242  -25.0121  -49.3475 H         1 UNK         0.0600 
    202 H202       -4.0799  -26.9233  -48.5080 H         1 UNK         0.0600 
    203 H203       -2.6031  -26.1977  -49.1422 H         1 UNK         0.0600 
    204 H204       -3.8582  -26.7586  -50.2410 H         1 UNK         0.0600 
    205 H205       -2.6875  -22.8460  -49.3462 H         1 UNK         0.3000 
    206 H206       -2.8104  -22.5275  -52.3099 H         1 UNK         0.0600 
    207 H207       -0.8338  -23.8829  -51.4104 H         1 UNK         0.0600 
    208 H208       -0.3486  -22.4136  -52.2138 H         1 UNK         0.0600 
    209 H209       -0.3499  -22.5041  -50.4529 H         1 UNK         0.0600 
    210 H210       -0.5205  -20.5707  -51.0822 H         1 UNK         0.3000 
    211 H211       -0.1926  -18.4608  -50.6466 H         1 UNK         0.0600 
    212 H212       -2.9311  -18.4635  -49.2651 H         1 UNK         0.0600 
    213 H213       -1.6837  -17.2635  -49.0251 H         1 UNK         0.0600 
    214 H214       -1.3932  -18.8975  -48.5136 H         1 UNK         0.0600 
    215 H215       -1.5866  -19.1304  -53.1669 H         1 UNK         0.3000 
    216 H216       -2.4465  -18.2324  -54.9873 H         1 UNK         0.0600 
    217 H217       -0.5841  -16.5814  -54.7023 H         1 UNK         0.0600 
    218 H218       -1.6810  -15.4958  -53.8510 H         1 UNK         0.0600 
    219 H219       -1.9644  -15.8924  -55.5400 H         1 UNK         0.0600 
    220 H220       -4.1932  -18.6827  -52.6643 H         1 UNK         0.3000 
    221 H221       -6.5445  -17.0046  -53.4166 H         1 UNK         0.0600 
    222 H222       -5.5689  -17.6486  -50.5791 H         1 UNK         0.0600 
    223 H223       -5.5622  -16.0611  -51.3409 H         1 UNK         0.0600 
    224 H224       -7.0894  -16.8548  -50.9809 H         1 UNK         0.0600 
    225 H225       -5.3786  -19.9718  -51.6987 H         1 UNK         0.3000 
    226 H226       -7.9799  -21.3043  -52.2003 H         1 UNK         0.0600 
    227 H227       -7.2736  -21.4678  -49.9198 H         1 UNK         0.0600 
    228 H228       -6.9196  -23.0348  -50.6249 H         1 UNK         0.0600 
    229 H229       -5.6262  -21.8691  -50.3522 H         1 UNK         0.0600 
    230 H230       -7.7562  -23.6271  -52.7263 H         1 UNK         0.3000 
    231 H231       -7.5663  -23.7129  -55.3562 H         1 UNK         0.0600 
    232 H232       -7.8980  -26.1927  -55.1313 H         1 UNK         0.0600 
    233 H233       -8.8664  -25.2852  -53.9837 H         1 UNK         0.0600 
    234 H234       -7.3943  -26.0974  -53.4480 H         1 UNK         0.0600 
    235 H235       -4.6863  -24.5251  -53.4142 H         1 UNK         0.3000 
    236 H236       -3.4073  -26.0367  -55.5061 H         1 UNK         0.0600 
    237 H237       -1.4332  -25.9502  -54.0444 H         1 UNK         0.0600 
    238 H238       -2.1767  -24.7019  -53.0602 H         1 UNK         0.0600 
    239 H239       -2.8640  -26.3236  -53.0923 H         1 UNK         0.0600 
    240 H240       -3.6766  -22.5650  -54.9768 H         1 UNK         0.3000 
    241 H241       -2.3786  -22.1181  -57.4808 H         1 UNK         0.0600 
    242 H242       -4.7424  -21.0129  -55.2374 H         1 UNK         0.3800 
    243 H243       -5.0004  -19.5292  -56.1094 H         1 UNK         0.3800 
    244 H244       -0.2811  -22.2299  -56.2740 H         1 UNK         0.0800 
    245 H245       -0.5456  -20.6068  -56.8243 H         1 UNK         0.0800 
    246 H246        1.3028  -19.6823  -55.3102 H         1 UNK         0.0800 
    247 H247        1.6706  -21.2790  -54.7089 H         1 UNK         0.0800 
@<TRIPOS>BOND
     1    1    2 1    
     2    1  127 1    
     3    1  128 1    
     4    1  129 1    
     5    2    3 2    
     6    2    4 am   BACKBONE|DICT|INTERRES
     7    4    5 1    
     8    4  130 1    
     9    5    6 1    
    10    5   65 1    
    11    5  131 1    
    12    6    7 1    
    13    6  132 1    
    14    6  133 1    
    15    7    8 1    
    16    8    9 1    
    17    8  134 1    
    18    8  135 1    
    19    9   10 ar   
    20    9   14 ar   
    21   10   11 ar   
    22   10  136 1    
    23   11   12 ar   
    24   11  126 1    
    25   12   13 ar   
    26   12  137 1    
    27   13   14 ar   
    28   13   15 1    
    29   14  138 1    
    30   15   16 1    
    31   15  139 1    
    32   15  140 1    
    33   16   17 1    
    34   17   18 1    
    35   17  141 1    
    36   17  142 1    
    37   18   19 1    
    38   18   67 1    
    39   18  143 1    
    40   19   20 am   BACKBONE|DICT|INTERRES
    41   19  144 1    
    42   20   21 2    
    43   20   22 1    
    44   22   23 1    
    45   22   24 1    
    46   22  145 1    
    47   23  146 1    
    48   23  147 1    
    49   23  148 1    
    50   24   25 am   BACKBONE|DICT|INTERRES
    51   24  149 1    
    52   25   26 2    
    53   25   27 1    
    54   27   28 1    
    55   27   29 1    
    56   27  150 1    
    57   28  151 1    
    58   28  152 1    
    59   28  153 1    
    60   29   30 am   BACKBONE|DICT|INTERRES
    61   29  154 1    
    62   30   31 2    
    63   30   32 1    
    64   32   33 1    
    65   32   34 1    
    66   32  155 1    
    67   33  156 1    
    68   33  157 1    
    69   33  158 1    
    70   34   35 am   BACKBONE|DICT|INTERRES
    71   34  159 1    
    72   35   36 2    
    73   35   37 1    
    74   37   38 1    
    75   37   39 1    
    76   37  160 1    
    77   38  161 1    
    78   38  162 1    
    79   38  163 1    
    80   39   40 am   BACKBONE|DICT|INTERRES
    81   39  164 1    
    82   40   41 2    
    83   40   42 1    
    84   42   43 1    
    85   42   44 1    
    86   42  165 1    
    87   43  166 1    
    88   43  167 1    
    89   43  168 1    
    90   44   45 am   BACKBONE|DICT|INTERRES
    91   44  169 1    
    92   45   46 2    
    93   45   47 1    
    94   47   48 1    
    95   47   49 1    
    96   47  170 1    
    97   48  171 1    
    98   48  172 1    
    99   48  173 1    
   100   49   50 am   BACKBONE|DICT|INTERRES
   101   49  174 1    
   102   50   51 2    
   103   50   52 1    
   104   52   53 1    
   105   52   54 1    
   106   52  175 1    
   107   53  176 1    
   108   53  177 1    
   109   53  178 1    
   110   54   55 am   BACKBONE|DICT|INTERRES
   111   54  179 1    
   112   55   56 2    
   113   55   57 1    
   114   57   58 1    
   115   57   59 1    
   116   57  180 1    
   117   58  181 1    
   118   58  182 1    
   119   58  183 1    
   120   59   60 am   BACKBONE|DICT|INTERRES
   121   59  184 1    
   122   60   61 2    
   123   60   62 1    
   124   62   63 1    
   125   62   64 1    
   126   62  185 1    
   127   63  186 1    
   128   63  187 1    
   129   63  188 1    
   130   64   65 am   BACKBONE|DICT|INTERRES
   131   64  189 1    
   132   65   66 2    
   133   67   68 2    
   134   67   69 am   BACKBONE|DICT|INTERRES
   135   69   70 1    
   136   69  190 1    
   137   70   71 1    
   138   70   72 1    
   139   70  191 1    
   140   71  192 1    
   141   71  193 1    
   142   71  194 1    
   143   72   73 2    
   144   72   74 am   BACKBONE|DICT|INTERRES
   145   74   75 1    
   146   74  195 1    
   147   75   76 1    
   148   75   77 1    
   149   75  196 1    
   150   76  197 1    
   151   76  198 1    
   152   76  199 1    
   153   77   78 2    
   154   77   79 am   BACKBONE|DICT|INTERRES
   155   79   80 1    
   156   79  200 1    
   157   80   81 1    
   158   80   82 1    
   159   80  201 1    
   160   81  202 1    
   161   81  203 1    
   162   81  204 1    
   163   82   83 2    
   164   82   84 am   BACKBONE|DICT|INTERRES
   165   84   85 1    
   166   84  205 1    
   167   85   86 1    
   168   85   87 1    
   169   85  206 1    
   170   86  207 1    
   171   86  208 1    
   172   86  209 1    
   173   87   88 2    
   174   87   89 am   BACKBONE|DICT|INTERRES
   175   89   90 1    
   176   89  210 1    
   177   90   91 1    
   178   90   92 1    
   179   90  211 1    
   180   91  212 1    
   181   91  213 1    
   182   91  214 1    
   183   92   93 2    
   184   92   94 am   BACKBONE|DICT|INTERRES
   185   94   95 1    
   186   94  215 1    
   187   95   96 1    
   188   95   97 1    
   189   95  216 1    
   190   96  217 1    
   191   96  218 1    
   192   96  219 1    
   193   97   98 2    
   194   97   99 am   BACKBONE|DICT|INTERRES
   195   99  100 1    
   196   99  220 1    
   197  100  101 1    
   198  100  102 1    
   199  100  221 1    
   200  101  222 1    
   201  101  223 1    
   202  101  224 1    
   203  102  103 2    
   204  102  104 am   BACKBONE|DICT|INTERRES
   205  104  105 1    
   206  104  225 1    
   207  105  106 1    
   208  105  107 1    
   209  105  226 1    
   210  106  227 1    
   211  106  228 1    
   212  106  229 1    
   213  107  108 2    
   214  107  109 am   BACKBONE|DICT|INTERRES
   215  109  110 1    
   216  109  230 1    
   217  110  111 1    
   218  110  112 1    
   219  110  231 1    
   220  111  232 1    
   221  111  233 1    
   222  111  234 1    
   223  112  113 2    
   224  112  114 am   BACKBONE|DICT|INTERRES
   225  114  115 1    
   226  114  235 1    
   227  115  116 1    
   228  115  117 1    
   229  115  236 1    
   230  116  237 1    
   231  116  238 1    
   232  116  239 1    
   233  117  118 2    
   234  117  119 am   BACKBONE|DICT|INTERRES
   235  119  120 1    
   236  119  240 1    
   237  120  121 1    
   238  120  124 1    
   239  120  241 1    
   240  121  122 am   BACKBONE|DICT|INTERRES
   241  121  123 2    
   242  122  242 1    
   243  122  243 1    
   244  124  125 1    
   245  124  244 1    
   246  124  245 1    
   247  125  126 1    
   248  126  246 1    
   249  126  247 1    
@<TRIPOS>SUBSTRUCTURE
     1 UNK         1 GROUP             0       ****    0 ROOT    
