@<TRIPOS>MOLECULE
3R540
247   249    1
SMALL
USER_CHARGES


@<TRIPOS>ATOM
      1 CA          4.8303  -12.6891  -51.1231 C.3       0 UNK        -0.1800 
      2 C           4.3266  -13.0049  -49.7223 C.2       0 UNK         0.5000 
      3 O           4.9434  -13.7992  -49.0111 O.2       0 UNK        -0.5000 
      4 N           3.2166  -12.3788  -49.3129 N.am      1 UNK        -0.5000 
      5 CA          2.5525  -12.5618  -48.0155 C.3       1 UNK         0.1400 
      6 C6          1.0461  -12.1976  -48.0788 C.3       23 UNK        -0.0398 
      7 S7          0.1384  -13.2062  -49.2936 S.3       23 UNK        -0.2404 
      8 C8         -0.4830  -14.5264  -48.2127 C.3       23 UNK        -0.0205 
      9 C9         -1.0427  -15.6751  -49.0292 C.ar      23 UNK        -0.0193 
     10 C10        -2.4128  -15.7583  -49.2879 C.ar      23 UNK        -0.1150 
     11 C11        -2.9291  -16.8231  -50.0304 C.ar      23 UNK        -0.0193 
     12 C12        -2.0622  -17.8024  -50.5241 C.ar      23 UNK        -0.1150 
     13 C13        -0.6889  -17.7274  -50.2734 C.ar      23 UNK        -0.0193 
     14 C14        -0.1859  -16.6620  -49.5229 C.ar      23 UNK        -0.1150 
     15 C15         0.2588  -18.7805  -50.8283 C.3       23 UNK        -0.0205 
     16 S16         0.8995  -19.8784  -49.5266 S.3       23 UNK        -0.2404 
     17 C17        -0.6041  -20.7987  -49.0707 C.3       23 UNK        -0.0398 
     18 CA         -0.2843  -22.0004  -48.1530 C.3       11 UNK         0.1400 
     19 N           0.1966  -21.5948  -46.8266 N.am      11 UNK        -0.5000 
     20 C           0.6950  -22.4414  -45.9138 C.2       10 UNK         0.5000 
     21 O           0.8518  -23.6444  -46.1155 O.2       10 UNK        -0.5000 
     22 CA          1.0082  -21.8734  -44.5190 C.3       10 UNK         0.1400 
     23 CB          2.3629  -21.1506  -44.5050 C.3       10 UNK        -0.1800 
     24 N          -0.0499  -20.9889  -44.0294 N.am      10 UNK        -0.5000 
     25 C          -1.3045  -21.3899  -43.7750 C.2       9 UNK         0.5000 
     26 O          -1.6744  -22.5595  -43.8657 O.2       9 UNK        -0.5000 
     27 CA         -2.3307  -20.3080  -43.3938 C.3       9 UNK         0.1400 
     28 CB         -2.2720  -20.0138  -41.8882 C.3       9 UNK        -0.1800 
     29 N          -2.1610  -19.0667  -44.1492 N.am      9 UNK        -0.5000 
     30 C          -2.3012  -18.9553  -45.4786 C.2       8 UNK         0.5000 
     31 O          -2.6326  -19.8868  -46.2130 O.2       8 UNK        -0.5000 
     32 CA         -1.9520  -17.5870  -46.0937 C.3       8 UNK         0.1400 
     33 CB         -3.0946  -16.5817  -45.8866 C.3       8 UNK        -0.1800 
     34 N          -0.7055  -17.0358  -45.5550 N.am      8 UNK        -0.5000 
     35 C           0.4933  -17.6233  -45.6855 C.2       7 UNK         0.5000 
     36 O           0.6810  -18.6551  -46.3283 O.2       7 UNK        -0.5000 
     37 CA          1.6626  -16.9981  -44.9037 C.3       7 UNK         0.1400 
     38 CB          2.3071  -15.8317  -45.6711 C.3       7 UNK        -0.1800 
     39 N           1.2429  -16.5640  -43.5696 N.am      7 UNK        -0.5000 
     40 C           0.9604  -17.4120  -42.5685 C.2       6 UNK         0.5000 
     41 O           1.1115  -18.6299  -42.6489 O.2       6 UNK        -0.5000 
     42 CA          0.3572  -16.8167  -41.2832 C.3       6 UNK         0.1400 
     43 CB          1.4453  -16.4979  -40.2500 C.3       6 UNK        -0.1800 
     44 N          -0.4501  -15.6253  -41.5486 N.am      6 UNK        -0.5000 
     45 C          -1.6617  -15.6748  -42.1216 C.2       5 UNK         0.5000 
     46 O          -2.2129  -16.7266  -42.4428 O.2       5 UNK        -0.5000 
     47 CA         -2.3654  -14.3397  -42.4272 C.3       5 UNK         0.1400 
     48 CB         -3.2894  -13.9424  -41.2668 C.3       5 UNK        -0.1800 
     49 N          -1.4450  -13.2381  -42.7069 N.am      5 UNK        -0.5000 
     50 C          -0.5784  -13.1935  -43.7271 C.2       4 UNK         0.5000 
     51 O          -0.4591  -14.0973  -44.5574 O.2       4 UNK        -0.5000 
     52 CA          0.3312  -11.9502  -43.8237 C.3       4 UNK         0.1400 
     53 CB         -0.0492  -10.8100  -42.8526 C.3       4 UNK        -0.1800 
     54 N           1.7501  -12.2844  -43.6679 N.am      4 UNK        -0.5000 
     55 C           2.3274  -12.9393  -42.6467 C.2       3 UNK         0.5000 
     56 O           1.6947  -13.4002  -41.6956 O.2       3 UNK        -0.5000 
     57 CA          3.8610  -13.1184  -42.6886 C.3       3 UNK         0.1400 
     58 CB          4.2804  -14.5562  -42.3386 C.3       3 UNK        -0.1800 
     59 N           4.4227  -12.7702  -43.9955 N.am      3 UNK        -0.5000 
     60 C           5.0586  -11.6267  -44.2821 C.2       2 UNK         0.5000 
     61 O           5.2944  -10.7436  -43.4570 O.2       2 UNK        -0.5000 
     62 CA          5.4759  -11.4228  -45.7519 C.3       2 UNK         0.1400 
     63 CB          6.9097  -11.9246  -45.9799 C.3       2 UNK        -0.1800 
     64 N           4.5845  -12.0717  -46.7193 N.am      2 UNK        -0.5000 
     65 C           3.2856  -11.7941  -46.8921 C.2       1 UNK         0.5000 
     66 O           2.6767  -10.9754  -46.2017 O.2       1 UNK        -0.5000 
     67 C          -1.4935  -22.9524  -48.0579 C.2       11 UNK         0.5000 
     68 O          -1.5127  -23.9715  -48.7495 O.2       11 UNK        -0.5000 
     69 N          -2.4523  -22.6395  -47.1758 N.am      12 UNK        -0.5000 
     70 CA         -3.6262  -23.4724  -46.9034 C.3       12 UNK         0.1400 
     71 CB         -4.5807  -22.7181  -45.9659 C.3       12 UNK        -0.1800 
     72 C          -3.2765  -24.8569  -46.3214 C.2       12 UNK         0.5000 
     73 O          -3.9744  -25.8285  -46.6101 O.2       12 UNK        -0.5000 
     74 N          -2.2037  -24.9289  -45.5247 N.am      13 UNK        -0.5000 
     75 CA         -1.6814  -26.1680  -44.9587 C.3       13 UNK         0.1400 
     76 CB         -0.8416  -25.8453  -43.7121 C.3       13 UNK        -0.1800 
     77 C          -0.8618  -26.9770  -45.9800 C.2       13 UNK         0.5000 
     78 O          -1.1182  -28.1693  -46.1528 O.2       13 UNK        -0.5000 
     79 N           0.1320  -26.3315  -46.6051 N.am      14 UNK        -0.5000 
     80 CA          1.1412  -26.9924  -47.4314 C.3       14 UNK         0.1400 
     81 CB          2.4211  -26.1413  -47.4557 C.3       14 UNK        -0.1800 
     82 C           0.6654  -27.2861  -48.8620 C.2       14 UNK         0.5000 
     83 O           0.8486  -28.4072  -49.3388 O.2       14 UNK        -0.5000 
     84 N           0.0991  -26.2752  -49.5328 N.am      15 UNK        -0.5000 
     85 CA         -0.3093  -26.3585  -50.9359 C.3       15 UNK         0.1400 
     86 CB         -0.0484  -25.0104  -51.6273 C.3       15 UNK        -0.1800 
     87 C          -1.7830  -26.7635  -51.0788 C.2       15 UNK         0.5000 
     88 O          -2.1215  -27.4755  -52.0249 O.2       15 UNK        -0.5000 
     89 N          -2.6297  -26.2874  -50.1545 N.am      16 UNK        -0.5000 
     90 CA         -4.0793  -26.4962  -50.0309 C.3       16 UNK         0.1400 
     91 CB         -4.4277  -27.9852  -49.8496 C.3       16 UNK        -0.1800 
     92 C          -4.9114  -25.8487  -51.1529 C.2       16 UNK         0.5000 
     93 O          -5.8665  -25.1307  -50.8585 O.2       16 UNK        -0.5000 
     94 N          -4.5261  -26.0750  -52.4132 N.am      17 UNK        -0.5000 
     95 CA         -5.0716  -25.3880  -53.5840 C.3       17 UNK         0.1400 
     96 CB         -4.7224  -26.1897  -54.8467 C.3       17 UNK        -0.1800 
     97 C          -4.5441  -23.9451  -53.6959 C.2       17 UNK         0.5000 
     98 O          -5.2755  -23.0659  -54.1532 O.2       17 UNK        -0.5000 
     99 N          -3.2928  -23.7373  -53.2537 N.am      18 UNK        -0.5000 
    100 CA        -2.5317  -22.4864  -53.2817 C.3       18 UNK         0.1400 
    101 CB        -3.0910  -21.4893  -52.2433 C.3       18 UNK        -0.1800 
    102 C         -2.4246  -21.9276  -54.7161 C.2       18 UNK         0.5000 
    103 O         -1.8734  -22.6109  -55.5812 O.2       18 UNK        -0.5000 
    104 N         -2.9572  -20.7232  -54.9475 N.am      19 UNK        -0.5000 
    105 CA        -3.0545  -20.0935  -56.2605 C.3       19 UNK         0.1400 
    106 CB        -1.7111  -19.4574  -56.6658 C.3       19 UNK        -0.1800 
    107 C         -4.1876  -19.0603  -56.2662 C.2       19 UNK         0.5000 
    108 O         -5.0543  -19.1146  -57.1390 O.2       19 UNK        -0.5000 
    109 N         -4.1562  -18.1342  -55.2960 N.am      20 UNK        -0.5000 
    110 CA        -5.0750  -16.9965  -55.2262 C.3       20 UNK         0.1400 
    111 CB        -4.4961  -15.9279  -54.2851 C.3       20 UNK        -0.1800 
    112 C         -6.5090  -17.3771  -54.8137 C.2       20 UNK         0.5000 
    113 O         -7.4542  -16.9194  -55.4570 O.2       20 UNK        -0.5000 
    114 N         -6.6422  -18.1978  -53.7607 N.am      21 UNK        -0.5000 
    115 CA        -7.9205  -18.6273  -53.1732 C.3       21 UNK         0.1400 
    116 CB        -8.7534  -17.4191  -52.6863 C.3       21 UNK        -0.1800 
    117 C         -7.7290  -19.5887  -51.9873 C.2       21 UNK         0.5000 
    118 O         -8.6154  -20.4024  -51.7287 O.2       21 UNK        -0.5000 
    119 N         -6.6081  -19.4481  -51.2656 N.am      22 UNK        -0.5000 
    120 CA        -6.3399  -20.0835  -49.9592 C.3       22 UNK         0.1400 
    121 C         -6.2346  -21.6372  -49.9356 C.2       22 UNK         0.5000 
    122 N         -6.2180  -22.3332  -51.0617 N.am      22 UNK        -0.7600 
    123 O         -6.1837  -22.2254  -48.8609 O.2       22 UNK        -0.5000 
    124 C124       -5.1144  -19.4372  -49.2573 C.3       23 UNK        -0.0398 
    125 S125       -5.3510  -17.6515  -48.9530 S.3       23 UNK        -0.2404 
    126 C126       -4.4195  -16.8921  -50.3194 C.3       23 UNK        -0.0205 
    127 H127        5.8360  -12.2716  -51.0747 H         1 UNK         0.0600 
    128 H128        4.1873  -11.9709  -51.6326 H         1 UNK         0.0600 
    129 H129        4.8656  -13.5989  -51.7223 H         1 UNK         0.0600 
    130 H130        2.7645  -11.7270  -49.9384 H         1 UNK         0.3000 
    131 H131        2.6158  -13.6192  -47.7508 H         1 UNK         0.0600 
    132 H132        0.9166  -11.1468  -48.3436 H         1 UNK         0.0800 
    133 H133        0.5738  -12.3249  -47.1034 H         1 UNK         0.0800 
    134 H134        0.3242  -14.8954  -47.5818 H         1 UNK         0.0800 
    135 H135       -1.2416  -14.1241  -47.5394 H         1 UNK         0.0800 
    136 H136       -3.0788  -14.9959  -48.9088 H         1 UNK         0.1150 
    137 H137       -2.4560  -18.6170  -51.1109 H         1 UNK         0.1150 
    138 H138        0.8750  -16.6010  -49.3247 H         1 UNK         0.1150 
    139 H139       -0.2261  -19.3756  -51.6034 H         1 UNK         0.0800 
    140 H140        1.1005  -18.2819  -51.3110 H         1 UNK         0.0800 
    141 H141       -1.0765  -21.1372  -49.9941 H         1 UNK         0.0800 
    142 H142       -1.3079  -20.1170  -48.5902 H         1 UNK         0.0800 
    143 H143        0.5193  -22.5721  -48.6231 H         1 UNK         0.0600 
    144 H144        0.1425  -20.6052  -46.6041 H         1 UNK         0.3000 
    145 H145        1.0755  -22.7169  -43.8287 H         1 UNK         0.0600 
    146 H146        3.1621  -21.8189  -44.8278 H         1 UNK         0.0600 
    147 H147        2.3716  -20.2880  -45.1699 H         1 UNK         0.0600 
    148 H148        2.6149  -20.8044  -43.5026 H         1 UNK         0.0600 
    149 H149        0.2011  -20.0196  -43.8717 H         1 UNK         0.3000 
    150 H150       -3.3245  -20.6972  -43.6223 H         1 UNK         0.0600 
    151 H151       -2.4486  -20.9200  -41.3075 H         1 UNK         0.0600 
    152 H152       -3.0311  -19.2877  -41.5968 H         1 UNK         0.0600 
    153 H153       -1.2994  -19.6209  -41.5936 H         1 UNK         0.0600 
    154 H154       -1.9504  -18.2327  -43.6084 H         1 UNK         0.3000 
    155 H155       -1.8159  -17.7365  -47.1662 H         1 UNK         0.0600 
    156 H156       -3.3110  -16.4226  -44.8313 H         1 UNK         0.0600 
    157 H157       -2.8586  -15.6142  -46.3283 H         1 UNK         0.0600 
    158 H158       -4.0120  -16.9386  -46.3545 H         1 UNK         0.0600 
    159 H159       -0.7691  -16.1704  -45.0322 H         1 UNK         0.3000 
    160 H160        2.4242  -17.7726  -44.7896 H         1 UNK         0.0600 
    161 H161        1.6769  -14.9445  -45.6780 H         1 UNK         0.0600 
    162 H162        2.5022  -16.1070  -46.7086 H         1 UNK         0.0600 
    163 H163        3.2638  -15.5550  -45.2308 H         1 UNK         0.0600 
    164 H164        1.0255  -15.5844  -43.4516 H         1 UNK         0.3000 
    165 H165       -0.2920  -17.5768  -40.8442 H         1 UNK         0.0600 
    166 H166        1.0097  -16.1429  -39.3160 H         1 UNK         0.0600 
    167 H167        2.0349  -17.3858  -40.0181 H         1 UNK         0.0600 
    168 H168        2.1314  -15.7349  -40.6093 H         1 UNK         0.0600 
    169 H169       -0.0213  -14.7267  -41.3578 H         1 UNK         0.3000 
    170 H170       -2.9802  -14.4896  -43.3167 H         1 UNK         0.0600 
    171 H171       -4.0066  -14.7353  -41.0499 H         1 UNK         0.0600 
    172 H172       -2.7268  -13.7492  -40.3525 H         1 UNK         0.0600 
    173 H173       -3.8614  -13.0458  -41.5064 H         1 UNK         0.0600 
    174 H174       -1.4562  -12.4659  -42.0566 H         1 UNK         0.3000 
    175 H175        0.2111  -11.5676  -44.8374 H         1 UNK         0.0600 
    176 H176        0.0767  -11.0966  -41.8078 H         1 UNK         0.0600 
    177 H177        0.5735   -9.9324  -43.0269 H         1 UNK         0.0600 
    178 H178       -1.0845  -10.4968  -42.9944 H         1 UNK         0.0600 
    179 H179        2.3481  -11.9292  -44.4047 H         1 UNK         0.3000 
    180 H180        4.2729  -12.4615  -41.9201 H         1 UNK         0.0600 
    181 H181        3.7556  -15.2964  -42.9412 H         1 UNK         0.0600 
    182 H182        4.0736  -14.7738  -41.2913 H         1 UNK         0.0600 
    183 H183        5.3508  -14.7027  -42.4847 H         1 UNK         0.0600 
    184 H184        4.2827  -13.4357  -44.7412 H         1 UNK         0.3000 
    185 H185        5.4535  -10.3495  -45.9513 H         1 UNK         0.0600 
    186 H186        7.6071  -11.4426  -45.2934 H         1 UNK         0.0600 
    187 H187        6.9878  -13.0017  -45.8261 H         1 UNK         0.0600 
    188 H188        7.2480  -11.7050  -46.9927 H         1 UNK         0.0600 
    189 H189        5.0029  -12.7497  -47.3499 H         1 UNK         0.3000 
    190 H190       -2.3894  -21.7599  -46.6701 H         1 UNK         0.3000 
    191 H191       -4.1377  -23.6371  -47.8536 H         1 UNK         0.0600 
    192 H192       -4.1380  -22.5560  -44.9838 H         1 UNK         0.0600 
    193 H193       -5.5049  -23.2787  -45.8215 H         1 UNK         0.0600 
    194 H194       -4.8524  -21.7457  -46.3769 H         1 UNK         0.0600 
    195 H195       -1.7292  -24.0701  -45.2685 H         1 UNK         0.3000 
    196 H196       -2.5217  -26.7878  -44.6384 H         1 UNK         0.0600 
    197 H197       -0.4385  -26.7551  -43.2656 H         1 UNK         0.0600 
    198 H198       -1.4444  -25.3486  -42.9516 H         1 UNK         0.0600 
    199 H199       -0.0003  -25.1924  -43.9463 H         1 UNK         0.0600 
    200 H200        0.2858  -25.3438  -46.4088 H         1 UNK         0.3000 
    201 H201        1.3955  -27.9474  -46.9658 H         1 UNK         0.0600 
    202 H202        2.8028  -25.9753  -46.4481 H         1 UNK         0.0600 
    203 H203        2.2504  -25.1656  -47.9123 H         1 UNK         0.0600 
    204 H204        3.2088  -26.6363  -48.0250 H         1 UNK         0.0600 
    205 H205       -0.0958  -25.4037  -49.0533 H         1 UNK         0.3000 
    206 H206        0.2918  -27.1108  -51.4514 H         1 UNK         0.0600 
    207 H207       -0.2933  -25.0642  -52.6888 H         1 UNK         0.0600 
    208 H208       -0.6414  -24.2058  -51.1935 H         1 UNK         0.0600 
    209 H209        1.0016  -24.7277  -51.5521 H         1 UNK         0.0600 
    210 H210       -2.2390  -25.6371  -49.4786 H         1 UNK         0.3000 
    211 H211       -4.3692  -25.9829  -49.1157 H         1 UNK         0.0600 
    212 H212       -4.1831  -28.5761  -50.7324 H         1 UNK         0.0600 
    213 H213       -5.4939  -28.1124  -49.6585 H         1 UNK         0.0600 
    214 H214       -3.8926  -28.4109  -49.0005 H         1 UNK         0.0600 
    215 H215       -3.7271  -26.6882  -52.5544 H         1 UNK         0.3000 
    216 H216       -6.1591  -25.3443  -53.4944 H         1 UNK         0.0600 
    217 H217       -3.6438  -26.2799  -54.9821 H         1 UNK         0.0600 
    218 H218       -5.1270  -25.7089  -55.7383 H         1 UNK         0.0600 
    219 H219       -5.1399  -27.1957  -54.8020 H         1 UNK         0.0600 
    220 H220       -2.7886  -24.5438  -52.9196 H         1 UNK         0.3000 
    221 H221       -1.5138  -22.7343  -52.9799 H         1 UNK         0.0600 
    222 H222       -4.0980  -21.1540  -52.4901 H         1 UNK         0.0600 
    223 H223       -3.1302  -21.9416  -51.2519 H         1 UNK         0.0600 
    224 H224       -2.4511  -20.6112  -52.1718 H         1 UNK         0.0600 
    225 H225       -3.4543  -20.2695  -54.1964 H         1 UNK         0.3000 
    226 H226       -3.3126  -20.8573  -56.9977 H         1 UNK         0.0600 
    227 H227       -0.9334  -20.2129  -56.7778 H         1 UNK         0.0600 
    228 H228       -1.7970  -18.9395  -57.6219 H         1 UNK         0.0600 
    229 H229       -1.3665  -18.7325  -55.9277 H         1 UNK         0.0600 
    230 H230       -3.3780  -18.1240  -54.6539 H         1 UNK         0.3000 
    231 H231       -5.1339  -16.5528  -56.2229 H         1 UNK         0.0600 
    232 H232       -5.1698  -15.0741  -54.2003 H         1 UNK         0.0600 
    233 H233       -3.5436  -15.5511  -54.6582 H         1 UNK         0.0600 
    234 H234       -4.3298  -16.3156  -53.2813 H         1 UNK         0.0600 
    235 H235       -5.8090  -18.6037  -53.3653 H         1 UNK         0.3000 
    236 H236       -8.4841  -19.1622  -53.9402 H         1 UNK         0.0600 
    237 H237       -9.1128  -16.8074  -53.5126 H         1 UNK         0.0600 
    238 H238       -9.6385  -17.7451  -52.1379 H         1 UNK         0.0600 
    239 H239       -8.1751  -16.7776  -52.0202 H         1 UNK         0.0600 
    240 H240       -5.9805  -18.7013  -51.5092 H         1 UNK         0.3000 
    241 H241       -7.2113  -19.8639  -49.3391 H         1 UNK         0.0600 
    242 H242       -6.3139  -21.8883  -51.9592 H         1 UNK         0.3800 
    243 H243       -6.1582  -23.3469  -50.9984 H         1 UNK         0.3800 
    244 H244       -4.9387  -19.9005  -48.2843 H         1 UNK         0.0800 
    245 H245       -4.2056  -19.6083  -49.8339 H         1 UNK         0.0800 
    246 H246       -4.8028  -15.8839  -50.4845 H         1 UNK         0.0800 
    247 H247       -4.6020  -17.4385  -51.2433 H         1 UNK         0.0800 
@<TRIPOS>BOND
     1    1    2 1    
     2    1  127 1    
     3    1  128 1    
     4    1  129 1    
     5    2    3 2    
     6    2    4 am   BACKBONE|DICT|INTERRES
     7    4    5 1    
     8    4  130 1    
     9    5    6 1    
    10    5   65 1    
    11    5  131 1    
    12    6    7 1    
    13    6  132 1    
    14    6  133 1    
    15    7    8 1    
    16    8    9 1    
    17    8  134 1    
    18    8  135 1    
    19    9   10 ar   
    20    9   14 ar   
    21   10   11 ar   
    22   10  136 1    
    23   11   12 ar   
    24   11  126 1    
    25   12   13 ar   
    26   12  137 1    
    27   13   14 ar   
    28   13   15 1    
    29   14  138 1    
    30   15   16 1    
    31   15  139 1    
    32   15  140 1    
    33   16   17 1    
    34   17   18 1    
    35   17  141 1    
    36   17  142 1    
    37   18   19 1    
    38   18   67 1    
    39   18  143 1    
    40   19   20 am   BACKBONE|DICT|INTERRES
    41   19  144 1    
    42   20   21 2    
    43   20   22 1    
    44   22   23 1    
    45   22   24 1    
    46   22  145 1    
    47   23  146 1    
    48   23  147 1    
    49   23  148 1    
    50   24   25 am   BACKBONE|DICT|INTERRES
    51   24  149 1    
    52   25   26 2    
    53   25   27 1    
    54   27   28 1    
    55   27   29 1    
    56   27  150 1    
    57   28  151 1    
    58   28  152 1    
    59   28  153 1    
    60   29   30 am   BACKBONE|DICT|INTERRES
    61   29  154 1    
    62   30   31 2    
    63   30   32 1    
    64   32   33 1    
    65   32   34 1    
    66   32  155 1    
    67   33  156 1    
    68   33  157 1    
    69   33  158 1    
    70   34   35 am   BACKBONE|DICT|INTERRES
    71   34  159 1    
    72   35   36 2    
    73   35   37 1    
    74   37   38 1    
    75   37   39 1    
    76   37  160 1    
    77   38  161 1    
    78   38  162 1    
    79   38  163 1    
    80   39   40 am   BACKBONE|DICT|INTERRES
    81   39  164 1    
    82   40   41 2    
    83   40   42 1    
    84   42   43 1    
    85   42   44 1    
    86   42  165 1    
    87   43  166 1    
    88   43  167 1    
    89   43  168 1    
    90   44   45 am   BACKBONE|DICT|INTERRES
    91   44  169 1    
    92   45   46 2    
    93   45   47 1    
    94   47   48 1    
    95   47   49 1    
    96   47  170 1    
    97   48  171 1    
    98   48  172 1    
    99   48  173 1    
   100   49   50 am   BACKBONE|DICT|INTERRES
   101   49  174 1    
   102   50   51 2    
   103   50   52 1    
   104   52   53 1    
   105   52   54 1    
   106   52  175 1    
   107   53  176 1    
   108   53  177 1    
   109   53  178 1    
   110   54   55 am   BACKBONE|DICT|INTERRES
   111   54  179 1    
   112   55   56 2    
   113   55   57 1    
   114   57   58 1    
   115   57   59 1    
   116   57  180 1    
   117   58  181 1    
   118   58  182 1    
   119   58  183 1    
   120   59   60 am   BACKBONE|DICT|INTERRES
   121   59  184 1    
   122   60   61 2    
   123   60   62 1    
   124   62   63 1    
   125   62   64 1    
   126   62  185 1    
   127   63  186 1    
   128   63  187 1    
   129   63  188 1    
   130   64   65 am   BACKBONE|DICT|INTERRES
   131   64  189 1    
   132   65   66 2    
   133   67   68 2    
   134   67   69 am   BACKBONE|DICT|INTERRES
   135   69   70 1    
   136   69  190 1    
   137   70   71 1    
   138   70   72 1    
   139   70  191 1    
   140   71  192 1    
   141   71  193 1    
   142   71  194 1    
   143   72   73 2    
   144   72   74 am   BACKBONE|DICT|INTERRES
   145   74   75 1    
   146   74  195 1    
   147   75   76 1    
   148   75   77 1    
   149   75  196 1    
   150   76  197 1    
   151   76  198 1    
   152   76  199 1    
   153   77   78 2    
   154   77   79 am   BACKBONE|DICT|INTERRES
   155   79   80 1    
   156   79  200 1    
   157   80   81 1    
   158   80   82 1    
   159   80  201 1    
   160   81  202 1    
   161   81  203 1    
   162   81  204 1    
   163   82   83 2    
   164   82   84 am   BACKBONE|DICT|INTERRES
   165   84   85 1    
   166   84  205 1    
   167   85   86 1    
   168   85   87 1    
   169   85  206 1    
   170   86  207 1    
   171   86  208 1    
   172   86  209 1    
   173   87   88 2    
   174   87   89 am   BACKBONE|DICT|INTERRES
   175   89   90 1    
   176   89  210 1    
   177   90   91 1    
   178   90   92 1    
   179   90  211 1    
   180   91  212 1    
   181   91  213 1    
   182   91  214 1    
   183   92   93 2    
   184   92   94 am   BACKBONE|DICT|INTERRES
   185   94   95 1    
   186   94  215 1    
   187   95   96 1    
   188   95   97 1    
   189   95  216 1    
   190   96  217 1    
   191   96  218 1    
   192   96  219 1    
   193   97   98 2    
   194   97   99 am   BACKBONE|DICT|INTERRES
   195   99  100 1    
   196   99  220 1    
   197  100  101 1    
   198  100  102 1    
   199  100  221 1    
   200  101  222 1    
   201  101  223 1    
   202  101  224 1    
   203  102  103 2    
   204  102  104 am   BACKBONE|DICT|INTERRES
   205  104  105 1    
   206  104  225 1    
   207  105  106 1    
   208  105  107 1    
   209  105  226 1    
   210  106  227 1    
   211  106  228 1    
   212  106  229 1    
   213  107  108 2    
   214  107  109 am   BACKBONE|DICT|INTERRES
   215  109  110 1    
   216  109  230 1    
   217  110  111 1    
   218  110  112 1    
   219  110  231 1    
   220  111  232 1    
   221  111  233 1    
   222  111  234 1    
   223  112  113 2    
   224  112  114 am   BACKBONE|DICT|INTERRES
   225  114  115 1    
   226  114  235 1    
   227  115  116 1    
   228  115  117 1    
   229  115  236 1    
   230  116  237 1    
   231  116  238 1    
   232  116  239 1    
   233  117  118 2    
   234  117  119 am   BACKBONE|DICT|INTERRES
   235  119  120 1    
   236  119  240 1    
   237  120  121 1    
   238  120  124 1    
   239  120  241 1    
   240  121  122 am   BACKBONE|DICT|INTERRES
   241  121  123 2    
   242  122  242 1    
   243  122  243 1    
   244  124  125 1    
   245  124  244 1    
   246  124  245 1    
   247  125  126 1    
   248  126  246 1    
   249  126  247 1    
@<TRIPOS>SUBSTRUCTURE
     1 UNK         1 GROUP             0       ****    0 ROOT    
