@<TRIPOS>MOLECULE
3R540
247   249    1
SMALL
USER_CHARGES


@<TRIPOS>ATOM
      1 CA          7.7922  -17.1587  -48.0835 C.3       0 UNK        -0.1800 
      2 C           6.8237  -15.9888  -48.1794 C.2       0 UNK         0.5000 
      3 O           7.2138  -14.8485  -47.9263 O.2       0 UNK        -0.5000 
      4 N           5.5624  -16.2715  -48.5286 N.am      1 UNK        -0.5000 
      5 CA          4.4377  -15.3418  -48.7335 C.3       1 UNK         0.1400 
      6 C6          4.6848  -14.2223  -49.7857 C.3       23 UNK        -0.0398 
      7 S7          5.4240  -14.7963  -51.3553 S.3       23 UNK        -0.2404 
      8 C8          3.9545  -15.2728  -52.3249 C.3       23 UNK        -0.0205 
      9 C9          3.2206  -16.4772  -51.7463 C.ar      23 UNK        -0.0193 
     10 C10         1.8303  -16.4473  -51.6032 C.ar      23 UNK        -0.1150 
     11 C11         1.1450  -17.5481  -51.0804 C.ar      23 UNK        -0.0193 
     12 C12         1.8611  -18.6793  -50.6830 C.ar      23 UNK        -0.1150 
     13 C13         3.2529  -18.7176  -50.8079 C.ar      23 UNK        -0.0193 
     14 C14         3.9227  -17.6241  -51.3600 C.ar      23 UNK        -0.1150 
     15 C15         4.0370  -19.9462  -50.3771 C.3       23 UNK        -0.0205 
     16 S16         4.6537  -19.8302  -48.6610 S.3       23 UNK        -0.2404 
     17 C17         3.1341  -19.9209  -47.6484 C.3       23 UNK        -0.0398 
     18 CA          2.7142  -21.3618  -47.2535 C.3       11 UNK         0.1400 
     19 N           1.7981  -21.3622  -46.1110 N.am      11 UNK        -0.5000 
     20 C           1.4421  -22.4460  -45.4069 C.2       10 UNK         0.5000 
     21 O           1.9362  -23.5619  -45.5708 O.2       10 UNK        -0.5000 
     22 CA          0.3428  -22.2562  -44.3436 C.3       10 UNK         0.1400 
     23 CB          0.9543  -21.8678  -42.9891 C.3       10 UNK        -0.1800 
     24 N          -0.6565  -21.2597  -44.7318 N.am      10 UNK        -0.5000 
     25 C          -1.5424  -21.4262  -45.7244 C.2       9 UNK         0.5000 
     26 O          -1.6569  -22.4628  -46.3730 O.2       9 UNK        -0.5000 
     27 CA         -2.4453  -20.2287  -46.0611 C.3       9 UNK         0.1400 
     28 CB         -3.6262  -20.1771  -45.0829 C.3       9 UNK        -0.1800 
     29 N          -1.7356  -18.9495  -46.0365 N.am      9 UNK        -0.5000 
     30 C          -0.6985  -18.6262  -46.8226 C.2       8 UNK         0.5000 
     31 O          -0.2506  -19.3626  -47.7006 O.2       8 UNK        -0.5000 
     32 CA          0.0011  -17.2850  -46.5282 C.3       8 UNK         0.1400 
     33 CB         -0.7740  -16.1114  -47.1439 C.3       8 UNK        -0.1800 
     34 N           0.1796  -17.0599  -45.0919 N.am      8 UNK        -0.5000 
     35 C           0.9329  -17.8294  -44.2930 C.2       7 UNK         0.5000 
     36 O           1.6226  -18.7627  -44.7024 O.2       7 UNK        -0.5000 
     37 CA          0.8492  -17.5616  -42.7794 C.3       7 UNK         0.1400 
     38 CB          1.7888  -16.4323  -42.3422 C.3       7 UNK        -0.1800 
     39 N          -0.5133  -17.2455  -42.3590 N.am      7 UNK        -0.5000 
     40 C          -1.4900  -18.1538  -42.2427 C.2       6 UNK         0.5000 
     41 O          -1.3293  -19.3564  -42.4484 O.2       6 UNK        -0.5000 
     42 CA         -2.8838  -17.6219  -41.8608 C.3       6 UNK         0.1400 
     43 CB         -3.0235  -17.5230  -40.3346 C.3       6 UNK        -0.1800 
     44 N          -3.1743  -16.3171  -42.4588 N.am      6 UNK        -0.5000 
     45 C          -3.3453  -16.1106  -43.7720 C.2       5 UNK         0.5000 
     46 O          -3.2936  -17.0024  -44.6161 O.2       5 UNK        -0.5000 
     47 CA         -3.5626  -14.6562  -44.2231 C.3       5 UNK         0.1400 
     48 CB         -5.0461  -14.2735  -44.1143 C.3       5 UNK        -0.1800 
     49 N          -2.7502  -13.6894  -43.4791 N.am      5 UNK        -0.5000 
     50 C          -1.4115  -13.6605  -43.4842 C.2       4 UNK         0.5000 
     51 O          -0.7062  -14.4870  -44.0688 O.2       4 UNK        -0.5000 
     52 CA         -0.7448  -12.5421  -42.6780 C.3       4 UNK         0.1400 
     53 CB         -0.4029  -13.0197  -41.2564 C.3       4 UNK        -0.1800 
     54 N           0.4719  -12.1411  -43.3752 N.am      4 UNK        -0.5000 
     55 C           1.0011  -10.9120  -43.3629 C.2       3 UNK         0.5000 
     56 O           0.5354   -9.9821  -42.7019 O.2       3 UNK        -0.5000 
     57 CA          2.2580  -10.6888  -44.2259 C.3       3 UNK         0.1400 
     58 CB          3.1425   -9.5348  -43.7144 C.3       3 UNK        -0.1800 
     59 N           3.0535  -11.9135  -44.3193 N.am      3 UNK        -0.5000 
     60 C           3.7466  -12.3049  -45.3946 C.2       2 UNK         0.5000 
     61 O           3.8017  -11.6539  -46.4414 O.2       2 UNK        -0.5000 
     62 CA          4.5467  -13.6210  -45.2630 C.3       2 UNK         0.1400 
     63 CB          3.9209  -14.6295  -44.2783 C.3       2 UNK        -0.1800 
     64 N           4.7930  -14.2669  -46.5535 N.am      2 UNK        -0.5000 
     65 C           3.8900  -14.7404  -47.4230 C.2       1 UNK         0.5000 
     66 O           2.6740  -14.7328  -47.2288 O.2       1 UNK        -0.5000 
     67 C           2.1110  -22.1296  -48.4493 C.2       11 UNK         0.5000 
     68 O           2.8007  -22.9564  -49.0489 O.2       11 UNK        -0.5000 
     69 N           0.8465  -21.8285  -48.7805 N.am      12 UNK        -0.5000 
     70 CA          0.1051  -22.4003  -49.9042 C.3       12 UNK         0.1400 
     71 CB         -1.2718  -21.7251  -49.9956 C.3       12 UNK        -0.1800 
     72 C          -0.0485  -23.9301  -49.8094 C.2       12 UNK         0.5000 
     73 O          -0.3298  -24.4595  -48.7326 O.2       12 UNK        -0.5000 
     74 N           0.1031  -24.6103  -50.9542 N.am      13 UNK        -0.5000 
     75 CA          0.0770  -26.0728  -51.0795 C.3       13 UNK         0.1400 
     76 CB          0.4625  -26.4551  -52.5168 C.3       13 UNK        -0.1800 
     77 C          -1.2661  -26.7237  -50.6930 C.2       13 UNK         0.5000 
     78 O          -1.2853  -27.8945  -50.3117 O.2       13 UNK        -0.5000 
     79 N          -2.3577  -25.9528  -50.7830 N.am      14 UNK        -0.5000 
     80 CA         -3.6998  -26.3543  -50.3639 C.3       14 UNK         0.1400 
     81 CB         -4.7186  -25.4124  -51.0182 C.3       14 UNK        -0.1800 
     82 C          -3.8913  -26.3724  -48.8332 C.2       14 UNK         0.5000 
     83 O          -4.8609  -26.9712  -48.3666 O.2       14 UNK        -0.5000 
     84 N          -2.9854  -25.7183  -48.0867 N.am      15 UNK        -0.5000 
     85 CA         -2.9719  -25.5834  -46.6252 C.3       15 UNK         0.1400 
     86 CB         -2.7274  -26.9514  -45.9537 C.3       15 UNK        -0.1800 
     87 C          -4.2091  -24.8473  -46.0602 C.2       15 UNK         0.5000 
     88 O          -4.6399  -25.1369  -44.9419 O.2       15 UNK        -0.5000 
     89 N          -4.7664  -23.9135  -46.8401 N.am      16 UNK        -0.5000 
     90 CA         -5.9549  -23.1342  -46.5141 C.3       16 UNK         0.1400 
     91 CB         -7.2187  -23.9398  -46.8606 C.3       16 UNK        -0.1800 
     92 C          -5.9121  -21.8067  -47.2808 C.2       16 UNK         0.5000 
     93 O          -5.2859  -21.7296  -48.3416 O.2       16 UNK        -0.5000 
     94 N          -6.5682  -20.7827  -46.7226 N.am      17 UNK        -0.5000 
     95 CA         -6.6487  -19.4415  -47.2970 C.3       17 UNK         0.1400 
     96 CB         -7.1203  -18.4510  -46.2191 C.3       17 UNK        -0.1800 
     97 C          -7.6020  -19.4171  -48.5021 C.2       17 UNK         0.5000 
     98 O          -8.7242  -19.9170  -48.3993 O.2       17 UNK        -0.5000 
     99 N          -7.1308  -18.8305  -49.6094 N.am      18 UNK        -0.5000 
    100 CA        -7.8175  -18.6563  -50.8976 C.3       18 UNK         0.1400 
    101 CB        -9.0562  -17.7502  -50.7391 C.3       18 UNK        -0.1800 
    102 C         -8.1461  -19.9715  -51.6422 C.2       18 UNK         0.5000 
    103 O         -8.8910  -19.9398  -52.6232 O.2       18 UNK        -0.5000 
    104 N         -7.5827  -21.0970  -51.1883 N.am      19 UNK        -0.5000 
    105 CA        -7.7334  -22.4134  -51.7973 C.3       19 UNK         0.1400 
    106 CB        -7.6840  -23.4721  -50.6888 C.3       19 UNK        -0.1800 
    107 C         -6.6132  -22.6366  -52.8239 C.2       19 UNK         0.5000 
    108 O         -5.4536  -22.3292  -52.5345 O.2       19 UNK        -0.5000 
    109 N         -6.9721  -23.1694  -53.9990 N.am      20 UNK        -0.5000 
    110 CA        -6.1022  -23.3557  -55.1646 C.3       20 UNK         0.1400 
    111 CB        -5.0464  -24.4536  -54.8988 C.3       20 UNK        -0.1800 
    112 C         -5.5090  -22.0069  -55.6252 C.2       20 UNK         0.5000 
    113 O         -6.2490  -21.1849  -56.1685 O.2       20 UNK        -0.5000 
    114 N         -4.2075  -21.7961  -55.3915 N.am      21 UNK        -0.5000 
    115 CA        -3.5048  -20.5498  -55.6838 C.3       21 UNK         0.1400 
    116 CB        -1.9884  -20.8036  -55.6663 C.3       21 UNK        -0.1800 
    117 C         -3.8795  -19.4160  -54.7114 C.2       21 UNK         0.5000 
    118 O         -4.2091  -18.3186  -55.1642 O.2       21 UNK        -0.5000 
    119 N         -3.8046  -19.6916  -53.4028 N.am      22 UNK        -0.5000 
    120 CA        -3.9345  -18.6899  -52.3297 C.3       22 UNK         0.1400 
    121 C         -4.1353  -19.2828  -50.9052 C.2       22 UNK         0.5000 
    122 N         -4.3672  -20.5767  -50.7354 N.am      22 UNK        -0.7600 
    123 O         -4.1614  -18.5407  -49.9271 O.2       22 UNK        -0.5000 
    124 C124       -2.8265  -17.5954  -52.3720 C.3       23 UNK        -0.0398 
    125 S125       -1.1221  -18.2502  -52.4544 S.3       23 UNK        -0.2404 
    126 C126       -0.3699  -17.5217  -50.9695 C.3       23 UNK        -0.0205 
    127 H127        8.1739  -17.2477  -47.0665 H         1 UNK         0.0600 
    128 H128        8.6370  -17.0011  -48.7540 H         1 UNK         0.0600 
    129 H129        7.3172  -18.1023  -48.3529 H         1 UNK         0.0600 
    130 H130        5.3245  -17.2410  -48.6889 H         1 UNK         0.3000 
    131 H131        3.6314  -15.9697  -49.1109 H         1 UNK         0.0600 
    132 H132        3.7506  -13.7040  -50.0091 H         1 UNK         0.0800 
    133 H133        5.3538  -13.4627  -49.3781 H         1 UNK         0.0800 
    134 H134        3.2895  -14.4116  -52.4062 H         1 UNK         0.0800 
    135 H135        4.2697  -15.5161  -53.3402 H         1 UNK         0.0800 
    136 H136        1.2763  -15.5720  -51.9125 H         1 UNK         0.1150 
    137 H137        1.3287  -19.5301  -50.2836 H         1 UNK         0.1150 
    138 H138        4.9973  -17.6584  -51.4719 H         1 UNK         0.1150 
    139 H139        3.4347  -20.8421  -50.5156 H         1 UNK         0.0800 
    140 H140        4.8962  -20.0734  -51.0374 H         1 UNK         0.0800 
    141 H141        3.3506  -19.3544  -46.7418 H         1 UNK         0.0800 
    142 H142        2.3218  -19.3799  -48.1289 H         1 UNK         0.0800 
    143 H143        3.6120  -21.8974  -46.9373 H         1 UNK         0.0600 
    144 H144        1.3918  -20.4693  -45.8551 H         1 UNK         0.3000 
    145 H145       -0.1674  -23.2141  -44.2219 H         1 UNK         0.0600 
    146 H146        0.1877  -21.7912  -42.2178 H         1 UNK         0.0600 
    147 H147        1.6755  -22.6160  -42.6581 H         1 UNK         0.0600 
    148 H148        1.4744  -20.9113  -43.0402 H         1 UNK         0.0600 
    149 H149       -0.6742  -20.3981  -44.1988 H         1 UNK         0.3000 
    150 H150       -2.8368  -20.3757  -47.0703 H         1 UNK         0.0600 
    151 H151       -4.1502  -21.1315  -45.0457 H         1 UNK         0.0600 
    152 H152       -4.3428  -19.4141  -45.3792 H         1 UNK         0.0600 
    153 H153       -3.3027  -19.9521  -44.0684 H         1 UNK         0.0600 
    154 H154       -2.0878  -18.2550  -45.3832 H         1 UNK         0.3000 
    155 H155        0.9913  -17.3148  -46.9881 H         1 UNK         0.0600 
    156 H156       -0.2519  -15.1683  -46.9798 H         1 UNK         0.0600 
    157 H157       -1.7734  -16.0196  -46.7188 H         1 UNK         0.0600 
    158 H158       -0.8847  -16.2393  -48.2208 H         1 UNK         0.0600 
    159 H159       -0.3134  -16.2684  -44.6889 H         1 UNK         0.3000 
    160 H160        1.1670  -18.4719  -42.2662 H         1 UNK         0.0600 
    161 H161        1.5088  -15.4794  -42.7901 H         1 UNK         0.0600 
    162 H162        2.8172  -16.6537  -42.6280 H         1 UNK         0.0600 
    163 H163        1.7750  -16.3072  -41.2594 H         1 UNK         0.0600 
    164 H164       -0.7361  -16.2710  -42.2241 H         1 UNK         0.3000 
    165 H165       -3.6249  -18.3361  -42.2252 H         1 UNK         0.0600 
    166 H166       -2.3225  -16.8030  -39.9104 H         1 UNK         0.0600 
    167 H167       -4.0311  -17.2193  -40.0499 H         1 UNK         0.0600 
    168 H168       -2.8303  -18.4871  -39.8622 H         1 UNK         0.0600 
    169 H169       -3.2319  -15.5271  -41.8333 H         1 UNK         0.3000 
    170 H170       -3.2731  -14.5930  -45.2741 H         1 UNK         0.0600 
    171 H171       -5.6709  -14.9705  -44.6750 H         1 UNK         0.0600 
    172 H172       -5.3911  -14.2827  -43.0796 H         1 UNK         0.0600 
    173 H173       -5.2277  -13.2783  -44.5205 H         1 UNK         0.0600 
    174 H174       -3.2545  -12.9818  -42.9643 H         1 UNK         0.3000 
    175 H175       -1.4341  -11.6966  -42.6228 H         1 UNK         0.0600 
    176 H176        0.0506  -12.2195  -40.6713 H         1 UNK         0.0600 
    177 H177       -1.2987  -13.3423  -40.7245 H         1 UNK         0.0600 
    178 H178        0.2937  -13.8585  -41.2691 H         1 UNK         0.0600 
    179 H179        0.8521  -12.8476  -43.9926 H         1 UNK         0.3000 
    180 H180        1.8892  -10.4209  -45.2181 H         1 UNK         0.0600 
    181 H181        4.0029   -9.3784  -44.3652 H         1 UNK         0.0600 
    182 H182        2.5887   -8.5957  -43.6842 H         1 UNK         0.0600 
    183 H183        3.5145   -9.7325  -42.7086 H         1 UNK         0.0600 
    184 H184        3.0656  -12.4929  -43.4914 H         1 UNK         0.3000 
    185 H185        5.5271  -13.3418  -44.8750 H         1 UNK         0.0600 
    186 H186        4.4898  -15.5592  -44.2574 H         1 UNK         0.0600 
    187 H187        3.9073  -14.2444  -43.2584 H         1 UNK         0.0600 
    188 H188        2.8970  -14.8752  -44.5608 H         1 UNK         0.0600 
    189 H189        5.7652  -14.3092  -46.8485 H         1 UNK         0.3000 
    190 H190        0.3574  -21.1231  -48.2368 H         1 UNK         0.3000 
    191 H191        0.6633  -22.1607  -50.8114 H         1 UNK         0.0600 
    192 H192       -1.1778  -20.6463  -50.1214 H         1 UNK         0.0600 
    193 H193       -1.8689  -21.9040  -49.1006 H         1 UNK         0.0600 
    194 H194       -1.8387  -22.1007  -50.8481 H         1 UNK         0.0600 
    195 H195        0.3170  -24.0995  -51.7985 H         1 UNK         0.3000 
    196 H196        0.8353  -26.4740  -50.4039 H         1 UNK         0.0600 
    197 H197        0.4827  -27.5387  -52.6416 H         1 UNK         0.0600 
    198 H198        1.4546  -26.0827  -52.7726 H         1 UNK         0.0600 
    199 H199       -0.2458  -26.0546  -53.2432 H         1 UNK         0.0600 
    200 H200       -2.2480  -25.0058  -51.1133 H         1 UNK         0.3000 
    201 H201       -3.8895  -27.3661  -50.7283 H         1 UNK         0.0600 
    202 H202       -4.6589  -25.4616  -52.1043 H         1 UNK         0.0600 
    203 H203       -4.5613  -24.3758  -50.7172 H         1 UNK         0.0600 
    204 H204       -5.7352  -25.6904  -50.7399 H         1 UNK         0.0600 
    205 H205       -2.2042  -25.2701  -48.5548 H         1 UNK         0.3000 
    206 H206       -2.1097  -24.9602  -46.3915 H         1 UNK         0.0600 
    207 H207       -1.8479  -27.4425  -46.3704 H         1 UNK         0.0600 
    208 H208       -2.5554  -26.8360  -44.8831 H         1 UNK         0.0600 
    209 H209       -3.5776  -27.6226  -46.0773 H         1 UNK         0.0600 
    210 H210       -4.3321  -23.6737  -47.7220 H         1 UNK         0.3000 
    211 H211       -5.9537  -22.9067  -45.4460 H         1 UNK         0.0600 
    212 H212       -7.2126  -24.2663  -47.9003 H         1 UNK         0.0600 
    213 H213       -8.1216  -23.3484  -46.7040 H         1 UNK         0.0600 
    214 H214       -7.3008  -24.8296  -46.2362 H         1 UNK         0.0600 
    215 H215       -7.0985  -20.9373  -45.8779 H         1 UNK         0.3000 
    216 H216       -5.6481  -19.1442  -47.6197 H         1 UNK         0.0600 
    217 H217       -7.1604  -17.4360  -46.6166 H         1 UNK         0.0600 
    218 H218       -6.4458  -18.4347  -45.3636 H         1 UNK         0.0600 
    219 H219       -8.1174  -18.6987  -45.8530 H         1 UNK         0.0600 
    220 H220       -6.1658  -18.5127  -49.5935 H         1 UNK         0.3000 
    221 H221       -7.1126  -18.1259  -51.5380 H         1 UNK         0.0600 
    222 H222       -9.8479  -18.2402  -50.1719 H         1 UNK         0.0600 
    223 H223       -8.8028  -16.8209  -50.2289 H         1 UNK         0.0600 
    224 H224       -9.4722  -17.4808  -51.7106 H         1 UNK         0.0600 
    225 H225       -6.9317  -21.0329  -50.4185 H         1 UNK         0.3000 
    226 H226       -8.7028  -22.4844  -52.2951 H         1 UNK         0.0600 
    227 H227       -8.4868  -23.3212  -49.9669 H         1 UNK         0.0600 
    228 H228       -7.8000  -24.4752  -51.1001 H         1 UNK         0.0600 
    229 H229       -6.7389  -23.4380  -50.1463 H         1 UNK         0.0600 
    230 H230       -7.9494  -23.3722  -54.1551 H         1 UNK         0.3000 
    231 H231       -6.7404  -23.7054  -55.9775 H         1 UNK         0.0600 
    232 H232       -4.4466  -24.6411  -55.7902 H         1 UNK         0.0600 
    233 H233       -5.5255  -25.3954  -54.6313 H         1 UNK         0.0600 
    234 H234       -4.3632  -24.1922  -54.0909 H         1 UNK         0.0600 
    235 H235       -3.6858  -22.5152  -54.9131 H         1 UNK         0.3000 
    236 H236       -3.7782  -20.2294  -56.6915 H         1 UNK         0.0600 
    237 H237       -1.6476  -21.1646  -54.6951 H         1 UNK         0.0600 
    238 H238       -1.7035  -21.5407  -56.4172 H         1 UNK         0.0600 
    239 H239       -1.4380  -19.8875  -55.8851 H         1 UNK         0.0600 
    240 H240       -3.5574  -20.6241  -53.1064 H         1 UNK         0.3000 
    241 H241       -4.8791  -18.1788  -52.5200 H         1 UNK         0.0600 
    242 H242       -4.5192  -20.9286  -49.7935 H         1 UNK         0.3800 
    243 H243       -4.5571  -21.2048  -51.5135 H         1 UNK         0.3800 
    244 H244       -2.9683  -16.9696  -53.2532 H         1 UNK         0.0800 
    245 H245       -2.9264  -16.9082  -51.5305 H         1 UNK         0.0800 
    246 H246       -0.7011  -18.0722  -50.0877 H         1 UNK         0.0800 
    247 H247       -0.7106  -16.4931  -50.8435 H         1 UNK         0.0800 
@<TRIPOS>BOND
     1    1    2 1    
     2    1  127 1    
     3    1  128 1    
     4    1  129 1    
     5    2    3 2    
     6    2    4 am   BACKBONE|DICT|INTERRES
     7    4    5 1    
     8    4  130 1    
     9    5    6 1    
    10    5   65 1    
    11    5  131 1    
    12    6    7 1    
    13    6  132 1    
    14    6  133 1    
    15    7    8 1    
    16    8    9 1    
    17    8  134 1    
    18    8  135 1    
    19    9   10 ar   
    20    9   14 ar   
    21   10   11 ar   
    22   10  136 1    
    23   11   12 ar   
    24   11  126 1    
    25   12   13 ar   
    26   12  137 1    
    27   13   14 ar   
    28   13   15 1    
    29   14  138 1    
    30   15   16 1    
    31   15  139 1    
    32   15  140 1    
    33   16   17 1    
    34   17   18 1    
    35   17  141 1    
    36   17  142 1    
    37   18   19 1    
    38   18   67 1    
    39   18  143 1    
    40   19   20 am   BACKBONE|DICT|INTERRES
    41   19  144 1    
    42   20   21 2    
    43   20   22 1    
    44   22   23 1    
    45   22   24 1    
    46   22  145 1    
    47   23  146 1    
    48   23  147 1    
    49   23  148 1    
    50   24   25 am   BACKBONE|DICT|INTERRES
    51   24  149 1    
    52   25   26 2    
    53   25   27 1    
    54   27   28 1    
    55   27   29 1    
    56   27  150 1    
    57   28  151 1    
    58   28  152 1    
    59   28  153 1    
    60   29   30 am   BACKBONE|DICT|INTERRES
    61   29  154 1    
    62   30   31 2    
    63   30   32 1    
    64   32   33 1    
    65   32   34 1    
    66   32  155 1    
    67   33  156 1    
    68   33  157 1    
    69   33  158 1    
    70   34   35 am   BACKBONE|DICT|INTERRES
    71   34  159 1    
    72   35   36 2    
    73   35   37 1    
    74   37   38 1    
    75   37   39 1    
    76   37  160 1    
    77   38  161 1    
    78   38  162 1    
    79   38  163 1    
    80   39   40 am   BACKBONE|DICT|INTERRES
    81   39  164 1    
    82   40   41 2    
    83   40   42 1    
    84   42   43 1    
    85   42   44 1    
    86   42  165 1    
    87   43  166 1    
    88   43  167 1    
    89   43  168 1    
    90   44   45 am   BACKBONE|DICT|INTERRES
    91   44  169 1    
    92   45   46 2    
    93   45   47 1    
    94   47   48 1    
    95   47   49 1    
    96   47  170 1    
    97   48  171 1    
    98   48  172 1    
    99   48  173 1    
   100   49   50 am   BACKBONE|DICT|INTERRES
   101   49  174 1    
   102   50   51 2    
   103   50   52 1    
   104   52   53 1    
   105   52   54 1    
   106   52  175 1    
   107   53  176 1    
   108   53  177 1    
   109   53  178 1    
   110   54   55 am   BACKBONE|DICT|INTERRES
   111   54  179 1    
   112   55   56 2    
   113   55   57 1    
   114   57   58 1    
   115   57   59 1    
   116   57  180 1    
   117   58  181 1    
   118   58  182 1    
   119   58  183 1    
   120   59   60 am   BACKBONE|DICT|INTERRES
   121   59  184 1    
   122   60   61 2    
   123   60   62 1    
   124   62   63 1    
   125   62   64 1    
   126   62  185 1    
   127   63  186 1    
   128   63  187 1    
   129   63  188 1    
   130   64   65 am   BACKBONE|DICT|INTERRES
   131   64  189 1    
   132   65   66 2    
   133   67   68 2    
   134   67   69 am   BACKBONE|DICT|INTERRES
   135   69   70 1    
   136   69  190 1    
   137   70   71 1    
   138   70   72 1    
   139   70  191 1    
   140   71  192 1    
   141   71  193 1    
   142   71  194 1    
   143   72   73 2    
   144   72   74 am   BACKBONE|DICT|INTERRES
   145   74   75 1    
   146   74  195 1    
   147   75   76 1    
   148   75   77 1    
   149   75  196 1    
   150   76  197 1    
   151   76  198 1    
   152   76  199 1    
   153   77   78 2    
   154   77   79 am   BACKBONE|DICT|INTERRES
   155   79   80 1    
   156   79  200 1    
   157   80   81 1    
   158   80   82 1    
   159   80  201 1    
   160   81  202 1    
   161   81  203 1    
   162   81  204 1    
   163   82   83 2    
   164   82   84 am   BACKBONE|DICT|INTERRES
   165   84   85 1    
   166   84  205 1    
   167   85   86 1    
   168   85   87 1    
   169   85  206 1    
   170   86  207 1    
   171   86  208 1    
   172   86  209 1    
   173   87   88 2    
   174   87   89 am   BACKBONE|DICT|INTERRES
   175   89   90 1    
   176   89  210 1    
   177   90   91 1    
   178   90   92 1    
   179   90  211 1    
   180   91  212 1    
   181   91  213 1    
   182   91  214 1    
   183   92   93 2    
   184   92   94 am   BACKBONE|DICT|INTERRES
   185   94   95 1    
   186   94  215 1    
   187   95   96 1    
   188   95   97 1    
   189   95  216 1    
   190   96  217 1    
   191   96  218 1    
   192   96  219 1    
   193   97   98 2    
   194   97   99 am   BACKBONE|DICT|INTERRES
   195   99  100 1    
   196   99  220 1    
   197  100  101 1    
   198  100  102 1    
   199  100  221 1    
   200  101  222 1    
   201  101  223 1    
   202  101  224 1    
   203  102  103 2    
   204  102  104 am   BACKBONE|DICT|INTERRES
   205  104  105 1    
   206  104  225 1    
   207  105  106 1    
   208  105  107 1    
   209  105  226 1    
   210  106  227 1    
   211  106  228 1    
   212  106  229 1    
   213  107  108 2    
   214  107  109 am   BACKBONE|DICT|INTERRES
   215  109  110 1    
   216  109  230 1    
   217  110  111 1    
   218  110  112 1    
   219  110  231 1    
   220  111  232 1    
   221  111  233 1    
   222  111  234 1    
   223  112  113 2    
   224  112  114 am   BACKBONE|DICT|INTERRES
   225  114  115 1    
   226  114  235 1    
   227  115  116 1    
   228  115  117 1    
   229  115  236 1    
   230  116  237 1    
   231  116  238 1    
   232  116  239 1    
   233  117  118 2    
   234  117  119 am   BACKBONE|DICT|INTERRES
   235  119  120 1    
   236  119  240 1    
   237  120  121 1    
   238  120  124 1    
   239  120  241 1    
   240  121  122 am   BACKBONE|DICT|INTERRES
   241  121  123 2    
   242  122  242 1    
   243  122  243 1    
   244  124  125 1    
   245  124  244 1    
   246  124  245 1    
   247  125  126 1    
   248  126  246 1    
   249  126  247 1    
@<TRIPOS>SUBSTRUCTURE
     1 UNK         1 GROUP             0       ****    0 ROOT    
