@<TRIPOS>MOLECULE
3R540
247   249    1
SMALL
USER_CHARGES


@<TRIPOS>ATOM
      1 CA         -3.1356  -13.0271  -42.2442 C.3       0 UNK        -0.1800 
      2 C          -2.9690  -11.8568  -43.2032 C.2       0 UNK         0.5000 
      3 O          -2.9656  -10.7025  -42.7740 O.2       0 UNK        -0.5000 
      4 N          -2.8262  -12.1468  -44.5012 N.am      1 UNK        -0.5000 
      5 CA         -2.7017  -11.1832  -45.6013 C.3       1 UNK         0.1400 
      6 C6         -3.2174  -11.7697  -46.9425 C.3       23 UNK        -0.0398 
      7 S7         -2.6305  -13.4563  -47.3422 S.3       23 UNK        -0.2404 
      8 C8         -3.8320  -13.8622  -48.6451 C.3       23 UNK        -0.0205 
      9 C9         -3.6898  -15.2917  -49.1397 C.ar      23 UNK        -0.0193 
     10 C10        -2.8381  -15.5859  -50.2068 C.ar      23 UNK        -0.1150 
     11 C11        -2.7557  -16.8869  -50.7080 C.ar      23 UNK        -0.0193 
     12 C12        -3.5287  -17.8974  -50.1295 C.ar      23 UNK        -0.1150 
     13 C13        -4.3886  -17.6200  -49.0582 C.ar      23 UNK        -0.0193 
     14 C14        -4.4557  -16.3119  -48.5686 C.ar      23 UNK        -0.1150 
     15 C15        -5.3001  -18.6819  -48.4377 C.3       23 UNK        -0.0205 
     16 S16        -4.7338  -20.4084  -48.6082 S.3       23 UNK        -0.2404 
     17 C17        -3.2162  -20.3490  -47.6067 C.3       23 UNK        -0.0398 
     18 CA         -2.4290  -21.6773  -47.6562 C.3       11 UNK         0.1400 
     19 N          -0.9877  -21.4624  -47.5146 N.am      11 UNK        -0.5000 
     20 C          -0.0521  -22.4128  -47.6415 C.2       10 UNK         0.5000 
     21 O          -0.2989  -23.5837  -47.9211 O.2       10 UNK        -0.5000 
     22 CA          1.4004  -21.9963  -47.3674 C.3       10 UNK         0.1400 
     23 CB          2.0070  -21.3144  -48.6031 C.3       10 UNK        -0.1800 
     24 N           1.5098  -21.1255  -46.1957 N.am      10 UNK        -0.5000 
     25 C           1.1982  -21.5074  -44.9470 C.2       9 UNK         0.5000 
     26 O           0.8532  -22.6523  -44.6493 O.2       9 UNK        -0.5000 
     27 CA          1.2213  -20.4194  -43.8572 C.3       9 UNK         0.1400 
     28 CB          2.6625  -20.0768  -43.4553 C.3       9 UNK        -0.1800 
     29 N           0.5258  -19.1986  -44.2640 N.am      9 UNK        -0.5000 
     30 C          -0.7728  -19.1216  -44.5865 C.2       8 UNK         0.5000 
     31 O          -1.5547  -20.0681  -44.5118 O.2       8 UNK        -0.5000 
     32 CA         -1.2725  -17.7769  -45.1449 C.3       8 UNK         0.1400 
     33 CB         -1.7440  -16.8401  -44.0229 C.3       8 UNK        -0.1800 
     34 N          -0.2678  -17.1084  -45.9745 N.am      8 UNK        -0.5000 
     35 C           0.1460  -17.5796  -47.1587 C.2       7 UNK         0.5000 
     36 O          -0.2442  -18.6409  -47.6447 O.2       7 UNK        -0.5000 
     37 CA          1.1907  -16.7383  -47.9055 C.3       7 UNK         0.1400 
     38 CB          0.6315  -15.3571  -48.2848 C.3       7 UNK        -0.1800 
     39 N           2.4353  -16.5686  -47.1578 N.am      7 UNK        -0.5000 
     40 C           3.2966  -17.5496  -46.8570 C.2       6 UNK         0.5000 
     41 O           3.0626  -18.7447  -47.0253 O.2       6 UNK        -0.5000 
     42 CA          4.6518  -17.1229  -46.2748 C.3       6 UNK         0.1400 
     43 CB          5.3974  -16.1630  -47.2187 C.3       6 UNK        -0.1800 
     44 N           4.4525  -16.4748  -44.9857 N.am      6 UNK        -0.5000 
     45 C           4.8174  -16.9867  -43.8032 C.2       5 UNK         0.5000 
     46 O           5.4591  -18.0302  -43.6770 O.2       5 UNK        -0.5000 
     47 CA          4.3989  -16.2112  -42.5361 C.3       5 UNK         0.1400 
     48 CB          5.6084  -15.4863  -41.9255 C.3       5 UNK        -0.1800 
     49 N           3.3300  -15.2347  -42.7568 N.am      5 UNK        -0.5000 
     50 C           2.0763  -15.5294  -43.1251 C.2       4 UNK         0.5000 
     51 O           1.6656  -16.6737  -43.3116 O.2       4 UNK        -0.5000 
     52 CA          1.1439  -14.3361  -43.3952 C.3       4 UNK         0.1400 
     53 CB          0.4234  -13.9138  -42.1081 C.3       4 UNK        -0.1800 
     54 N           1.8190  -13.1684  -43.9649 N.am      4 UNK        -0.5000 
     55 C           2.4995  -13.1310  -45.1189 C.2       3 UNK         0.5000 
     56 O           2.7389  -14.1330  -45.7944 O.2       3 UNK        -0.5000 
     57 CA          2.9659  -11.7415  -45.5989 C.3       3 UNK         0.1400 
     58 CB          3.4229  -11.7537  -47.0685 C.3       3 UNK        -0.1800 
     59 N           1.9022  -10.7481  -45.4465 N.am      3 UNK        -0.5000 
     60 C           1.6147  -10.0646  -44.3342 C.2       2 UNK         0.5000 
     61 O           2.2517  -10.1777  -43.2868 O.2       2 UNK        -0.5000 
     62 CA          0.3743   -9.1551  -44.3770 C.3       2 UNK         0.1400 
     63 CB          0.5476   -7.9944  -45.3765 C.3       2 UNK        -0.1800 
     64 N          -0.8785   -9.8868  -44.6051 N.am      2 UNK        -0.5000 
     65 C          -1.2889  -10.5594  -45.6904 C.2       1 UNK         0.5000 
     66 O          -0.6128  -10.6849  -46.7133 O.2       1 UNK        -0.5000 
     67 C          -2.9739  -22.7048  -46.6448 C.2       11 UNK         0.5000 
     68 O          -3.7222  -23.6005  -47.0358 O.2       11 UNK        -0.5000 
     69 N          -2.5533  -22.5895  -45.3779 N.am      12 UNK        -0.5000 
     70 CA         -2.8764  -23.5292  -44.3059 C.3       12 UNK         0.1400 
     71 CB         -2.3819  -22.9709  -42.9631 C.3       12 UNK        -0.1800 
     72 C          -2.3061  -24.9350  -44.5640 C.2       12 UNK         0.5000 
     73 O          -3.0318  -25.9173  -44.4075 O.2       12 UNK        -0.5000 
     74 N          -1.0395  -25.0058  -45.0000 N.am      13 UNK        -0.5000 
     75 CA         -0.3555  -26.2495  -45.3670 C.3       13 UNK         0.1400 
     76 CB          1.1316  -25.9596  -45.6202 C.3       13 UNK        -0.1800 
     77 C          -0.9911  -26.9556  -46.5817 C.2       13 UNK         0.5000 
     78 O          -1.0844  -28.1833  -46.5935 O.2       13 UNK        -0.5000 
     79 N          -1.4470  -26.1656  -47.5619 N.am      14 UNK        -0.5000 
     80 CA         -2.1530  -26.6177  -48.7620 C.3       14 UNK         0.1400 
     81 CB         -2.0061  -25.5418  -49.8482 C.3       14 UNK        -0.1800 
     82 C          -3.6429  -26.9452  -48.5236 C.2       14 UNK         0.5000 
     83 O          -4.3051  -27.4024  -49.4554 O.2       14 UNK        -0.5000 
     84 N          -4.1439  -26.7051  -47.3027 N.am      15 UNK        -0.5000 
     85 CA         -5.5202  -26.9133  -46.8450 C.3       15 UNK         0.1400 
     86 CB         -5.8983  -28.4095  -46.8789 C.3       15 UNK        -0.1800 
     87 C          -6.5339  -26.0047  -47.5715 C.2       15 UNK         0.5000 
     88 O          -7.5640  -26.4796  -48.0536 O.2       15 UNK        -0.5000 
     89 N          -6.2171  -24.7027  -47.6091 N.am      16 UNK        -0.5000 
     90 CA         -7.0167  -23.6000  -48.1497 C.3       16 UNK         0.1400 
     91 CB         -8.3486  -23.4459  -47.3853 C.3       16 UNK        -0.1800 
     92 C          -7.1903  -23.6763  -49.6794 C.2       16 UNK         0.5000 
     93 O          -8.2928  -23.4796  -50.1935 O.2       16 UNK        -0.5000 
     94 N          -6.0832  -23.9459  -50.3850 N.am      17 UNK        -0.5000 
     95 CA         -6.0285  -24.0342  -51.8490 C.3       17 UNK         0.1400 
     96 CB         -4.7948  -24.8545  -52.2556 C.3       17 UNK        -0.1800 
     97 C          -6.0383  -22.6651  -52.5657 C.2       17 UNK         0.5000 
     98 O          -6.1044  -22.6368  -53.7956 O.2       17 UNK        -0.5000 
     99 N          -5.9678  -21.5633  -51.8024 N.am      18 UNK        -0.5000 
    100 CA        -5.9406  -20.1710  -52.2595 C.3       18 UNK         0.1400 
    101 CB        -7.2817  -19.7784  -52.9191 C.3       18 UNK        -0.1800 
    102 C         -4.6946  -19.8912  -53.1227 C.2       18 UNK         0.5000 
    103 O         -3.5935  -20.2540  -52.7080 O.2       18 UNK        -0.5000 
    104 N         -4.8662  -19.2694  -54.2979 N.am      19 UNK        -0.5000 
    105 CA        -3.7954  -18.8751  -55.2222 C.3       19 UNK         0.1400 
    106 CB        -4.4194  -18.2113  -56.4583 C.3       19 UNK        -0.1800 
    107 C         -2.8538  -20.0208  -55.6458 C.2       19 UNK         0.5000 
    108 O         -1.6697  -19.7753  -55.8797 O.2       19 UNK        -0.5000 
    109 N         -3.3779  -21.2537  -55.6855 N.am      20 UNK        -0.5000 
    110 CA        -2.6194  -22.4730  -55.9655 C.3       20 UNK         0.1400 
    111 CB        -3.6007  -23.6295  -56.2072 C.3       20 UNK        -0.1800 
    112 C         -1.6030  -22.8419  -54.8648 C.2       20 UNK         0.5000 
    113 O         -0.6552  -23.5729  -55.1548 O.2       20 UNK        -0.5000 
    114 N         -1.7975  -22.3373  -53.6366 N.am      21 UNK        -0.5000 
    115 CA        -0.8558  -22.5036  -52.5309 C.3       21 UNK         0.1400 
    116 CB        -1.5631  -22.2243  -51.1982 C.3       21 UNK        -0.1800 
    117 C          0.3613  -21.5771  -52.6828 C.2       21 UNK         0.5000 
    118 O          1.4912  -22.0176  -52.4680 O.2       21 UNK        -0.5000 
    119 N          0.1028  -20.3135  -53.0436 N.am      22 UNK        -0.5000 
    120 CA         1.1364  -19.2868  -53.2434 C.3       22 UNK         0.1400 
    121 C          1.8721  -19.4165  -54.6056 C.2       22 UNK         0.5000 
    122 N          1.2033  -19.8252  -55.6772 N.am      22 UNK        -0.7600 
    123 O          3.0666  -19.1453  -54.6904 O.2       22 UNK        -0.5000 
    124 C124        0.5866  -17.8503  -53.0628 C.3       23 UNK        -0.0398 
    125 S125       -0.1651  -17.5700  -51.4213 S.3       23 UNK        -0.2404 
    126 C126       -1.8723  -17.1876  -51.9076 C.3       23 UNK        -0.0205 
    127 H127       -2.5126  -12.8857  -41.3611 H         1 UNK         0.0600 
    128 H128       -2.8560  -13.9730  -42.7089 H         1 UNK         0.0600 
    129 H129       -4.1734  -13.0984  -41.9193 H         1 UNK         0.0600 
    130 H130       -2.8137  -13.1136  -44.7946 H         1 UNK         0.3000 
    131 H131       -3.3629  -10.3440  -45.3730 H         1 UNK         0.0600 
    132 H132       -2.9900  -11.1055  -47.7784 H         1 UNK         0.0800 
    133 H133       -4.3066  -11.8050  -46.8951 H         1 UNK         0.0800 
    134 H134       -4.8442  -13.7065  -48.2684 H         1 UNK         0.0800 
    135 H135       -3.7064  -13.1677  -49.4773 H         1 UNK         0.0800 
    136 H136       -2.2512  -14.7984  -50.6584 H         1 UNK         0.1150 
    137 H137       -3.4618  -18.8982  -50.5275 H         1 UNK         0.1150 
    138 H138       -5.1258  -16.0794  -47.7527 H         1 UNK         0.1150 
    139 H139       -5.4416  -18.4734  -47.3760 H         1 UNK         0.0800 
    140 H140       -6.2840  -18.5976  -48.9005 H         1 UNK         0.0800 
    141 H141       -3.4571  -20.0529  -46.5842 H         1 UNK         0.0800 
    142 H142       -2.6059  -19.5444  -48.0143 H         1 UNK         0.0800 
    143 H143       -2.5668  -22.1158  -48.6446 H         1 UNK         0.0600 
    144 H144       -0.6848  -20.5081  -47.3390 H         1 UNK         0.3000 
    145 H145        1.9742  -22.9030  -47.1658 H         1 UNK         0.0600 
    146 H146        1.9213  -21.9523  -49.4839 H         1 UNK         0.0600 
    147 H147        1.5078  -20.3722  -48.8326 H         1 UNK         0.0600 
    148 H148        3.0664  -21.1049  -48.4565 H         1 UNK         0.0600 
    149 H149        1.8132  -20.1721  -46.3702 H         1 UNK         0.3000 
    150 H150        0.7070  -20.8160  -42.9795 H         1 UNK         0.0600 
    151 H151        3.1957  -20.9652  -43.1150 H         1 UNK         0.0600 
    152 H152        2.6843  -19.3515  -42.6417 H         1 UNK         0.0600 
    153 H153        3.2230  -19.6577  -44.2915 H         1 UNK         0.0600 
    154 H154        1.0729  -18.3444  -44.2789 H         1 UNK         0.3000 
    155 H155       -2.1346  -17.9861  -45.7818 H         1 UNK         0.0600 
    156 H156       -0.9553  -16.6393  -43.2995 H         1 UNK         0.0600 
    157 H157       -2.0909  -15.8868  -44.4220 H         1 UNK         0.0600 
    158 H158       -2.5763  -17.2847  -43.4759 H         1 UNK         0.0600 
    159 H159        0.1368  -16.2559  -45.6210 H         1 UNK         0.3000 
    160 H160        1.4324  -17.2668  -48.8298 H         1 UNK         0.0600 
    161 H161        0.4347  -14.7393  -47.4078 H         1 UNK         0.0600 
    162 H162       -0.3054  -15.4544  -48.8340 H         1 UNK         0.0600 
    163 H163        1.3269  -14.8139  -48.9246 H         1 UNK         0.0600 
    164 H164        2.6673  -15.6161  -46.8872 H         1 UNK         0.3000 
    165 H165        5.2600  -18.0237  -46.1688 H         1 UNK         0.0600 
    166 H166        6.3967  -15.9454  -46.8417 H         1 UNK         0.0600 
    167 H167        5.5128  -16.6018  -48.2105 H         1 UNK         0.0600 
    168 H168        4.8752  -15.2128  -47.3368 H         1 UNK         0.0600 
    169 H169        3.8983  -15.6262  -44.9980 H         1 UNK         0.3000 
    170 H170        4.0366  -16.9455  -41.8137 H         1 UNK         0.0600 
    171 H171        6.4175  -16.1859  -41.7115 H         1 UNK         0.0600 
    172 H172        6.0025  -14.7249  -42.5998 H         1 UNK         0.0600 
    173 H173        5.3450  -15.0006  -40.9857 H         1 UNK         0.0600 
    174 H174        3.5772  -14.2621  -42.6481 H         1 UNK         0.3000 
    175 H175        0.3932  -14.6568  -44.1191 H         1 UNK         0.0600 
    176 H176        1.1287  -13.6148  -41.3316 H         1 UNK         0.0600 
    177 H177       -0.2430  -13.0720  -42.2909 H         1 UNK         0.0600 
    178 H178       -0.1797  -14.7305  -41.7093 H         1 UNK         0.0600 
    179 H179        1.7128  -12.2951  -43.4644 H         1 UNK         0.3000 
    180 H180        3.8205  -11.4551  -44.9829 H         1 UNK         0.0600 
    181 H181        2.6179  -12.0647  -47.7360 H         1 UNK         0.0600 
    182 H182        4.2574  -12.4406  -47.2155 H         1 UNK         0.0600 
    183 H183        3.7581  -10.7659  -47.3851 H         1 UNK         0.0600 
    184 H184        1.2349  -10.6777  -46.2103 H         1 UNK         0.3000 
    185 H185        0.2786   -8.7119  -43.3845 H         1 UNK         0.0600 
    186 H186        1.4417   -7.4143  -45.1449 H         1 UNK         0.0600 
    187 H187        0.6453   -8.3431  -46.4047 H         1 UNK         0.0600 
    188 H188       -0.3012   -7.3119  -45.3353 H         1 UNK         0.0600 
    189 H189       -1.5128   -9.9067  -43.8108 H         1 UNK         0.3000 
    190 H190       -1.9783  -21.7899  -45.1227 H         1 UNK         0.3000 
    191 H191       -3.9638  -23.6159  -44.2568 H         1 UNK         0.0600 
    192 H192       -1.3016  -22.8240  -42.9594 H         1 UNK         0.0600 
    193 H193       -2.6253  -23.6488  -42.1442 H         1 UNK         0.0600 
    194 H194       -2.8485  -22.0109  -42.7412 H         1 UNK         0.0600 
    195 H195       -0.5015  -24.1488  -45.0811 H         1 UNK         0.3000 
    196 H196       -0.4272  -26.9299  -44.5160 H         1 UNK         0.0600 
    197 H197        1.6734  -26.8761  -45.8567 H         1 UNK         0.0600 
    198 H198        1.6028  -25.5199  -44.7409 H         1 UNK         0.0600 
    199 H199        1.2719  -25.2709  -46.4534 H         1 UNK         0.0600 
    200 H200       -1.2545  -25.1682  -47.5066 H         1 UNK         0.3000 
    201 H201       -1.6737  -27.5301  -49.1224 H         1 UNK         0.0600 
    202 H202       -0.9585  -25.3013  -50.0302 H         1 UNK         0.0600 
    203 H203       -2.5179  -24.6218  -49.5649 H         1 UNK         0.0600 
    204 H204       -2.4255  -25.8816  -50.7950 H         1 UNK         0.0600 
    205 H205       -3.5185  -26.3050  -46.6148 H         1 UNK         0.3000 
    206 H206       -5.5358  -26.6025  -45.7993 H         1 UNK         0.0600 
    207 H207       -6.8698  -28.5751  -46.4119 H         1 UNK         0.0600 
    208 H208       -5.9579  -28.7939  -47.8973 H         1 UNK         0.0600 
    209 H209       -5.1706  -29.0115  -46.3347 H         1 UNK         0.0600 
    210 H210       -5.3043  -24.4246  -47.2496 H         1 UNK         0.3000 
    211 H211       -6.4377  -22.6971  -47.9582 H         1 UNK         0.0600 
    212 H212       -9.0214  -24.2851  -47.5631 H         1 UNK         0.0600 
    213 H213       -8.8709  -22.5395  -47.6936 H         1 UNK         0.0600 
    214 H214       -8.1799  -23.3719  -46.3110 H         1 UNK         0.0600 
    215 H215       -5.2226  -24.1147  -49.8852 H         1 UNK         0.3000 
    216 H216       -6.9127  -24.5770  -52.1897 H         1 UNK         0.0600 
    217 H217       -3.8678  -24.3351  -52.0196 H         1 UNK         0.0600 
    218 H218       -4.7932  -25.0513  -53.3278 H         1 UNK         0.0600 
    219 H219       -4.7803  -25.8220  -51.7535 H         1 UNK         0.0600 
    220 H220       -5.8629  -21.6933  -50.8071 H         1 UNK         0.3000 
    221 H221       -5.8277  -19.5574  -51.3658 H         1 UNK         0.0600 
    222 H222       -7.4563  -20.3130  -53.8534 H         1 UNK         0.0600 
    223 H223       -8.1177  -19.9979  -52.2548 H         1 UNK         0.0600 
    224 H224       -7.3191  -18.7095  -53.1324 H         1 UNK         0.0600 
    225 H225       -5.8060  -19.0257  -54.5744 H         1 UNK         0.3000 
    226 H226       -3.1835  -18.1296  -54.7117 H         1 UNK         0.0600 
    227 H227       -5.0005  -17.3309  -56.1833 H         1 UNK         0.0600 
    228 H228       -3.6487  -17.8840  -57.1577 H         1 UNK         0.0600 
    229 H229       -5.0783  -18.8967  -56.9928 H         1 UNK         0.0600 
    230 H230       -4.3507  -21.3727  -55.4379 H         1 UNK         0.3000 
    231 H231       -2.0543  -22.3110  -56.8858 H         1 UNK         0.0600 
    232 H232       -3.0693  -24.5488  -56.4566 H         1 UNK         0.0600 
    233 H233       -4.2748  -23.4095  -57.0351 H         1 UNK         0.0600 
    234 H234       -4.2074  -23.8308  -55.3249 H         1 UNK         0.0600 
    235 H235       -2.5806  -21.7123  -53.4690 H         1 UNK         0.3000 
    236 H236       -0.5088  -23.5392  -52.5193 H         1 UNK         0.0600 
    237 H237       -2.5084  -22.7568  -51.1199 H         1 UNK         0.0600 
    238 H238       -0.9329  -22.5486  -50.3726 H         1 UNK         0.0600 
    239 H239       -1.7693  -21.1632  -51.0513 H         1 UNK         0.0600 
    240 H240       -0.8541  -20.0376  -53.2055 H         1 UNK         0.3000 
    241 H241        1.8942  -19.4306  -52.4701 H         1 UNK         0.0600 
    242 H242        0.1966  -19.9646  -55.6463 H         1 UNK         0.3800 
    243 H243        1.6872  -19.9124  -56.5563 H         1 UNK         0.3800 
    244 H244        1.3918  -17.1224  -53.1776 H         1 UNK         0.0800 
    245 H245       -0.1371  -17.6230  -53.8477 H         1 UNK         0.0800 
    246 H246       -2.2769  -18.0289  -52.4679 H         1 UNK         0.0800 
    247 H247       -1.8738  -16.3345  -52.5878 H         1 UNK         0.0800 
@<TRIPOS>BOND
     1    1    2 1    
     2    1  127 1    
     3    1  128 1    
     4    1  129 1    
     5    2    3 2    
     6    2    4 am   BACKBONE|DICT|INTERRES
     7    4    5 1    
     8    4  130 1    
     9    5    6 1    
    10    5   65 1    
    11    5  131 1    
    12    6    7 1    
    13    6  132 1    
    14    6  133 1    
    15    7    8 1    
    16    8    9 1    
    17    8  134 1    
    18    8  135 1    
    19    9   10 ar   
    20    9   14 ar   
    21   10   11 ar   
    22   10  136 1    
    23   11   12 ar   
    24   11  126 1    
    25   12   13 ar   
    26   12  137 1    
    27   13   14 ar   
    28   13   15 1    
    29   14  138 1    
    30   15   16 1    
    31   15  139 1    
    32   15  140 1    
    33   16   17 1    
    34   17   18 1    
    35   17  141 1    
    36   17  142 1    
    37   18   19 1    
    38   18   67 1    
    39   18  143 1    
    40   19   20 am   BACKBONE|DICT|INTERRES
    41   19  144 1    
    42   20   21 2    
    43   20   22 1    
    44   22   23 1    
    45   22   24 1    
    46   22  145 1    
    47   23  146 1    
    48   23  147 1    
    49   23  148 1    
    50   24   25 am   BACKBONE|DICT|INTERRES
    51   24  149 1    
    52   25   26 2    
    53   25   27 1    
    54   27   28 1    
    55   27   29 1    
    56   27  150 1    
    57   28  151 1    
    58   28  152 1    
    59   28  153 1    
    60   29   30 am   BACKBONE|DICT|INTERRES
    61   29  154 1    
    62   30   31 2    
    63   30   32 1    
    64   32   33 1    
    65   32   34 1    
    66   32  155 1    
    67   33  156 1    
    68   33  157 1    
    69   33  158 1    
    70   34   35 am   BACKBONE|DICT|INTERRES
    71   34  159 1    
    72   35   36 2    
    73   35   37 1    
    74   37   38 1    
    75   37   39 1    
    76   37  160 1    
    77   38  161 1    
    78   38  162 1    
    79   38  163 1    
    80   39   40 am   BACKBONE|DICT|INTERRES
    81   39  164 1    
    82   40   41 2    
    83   40   42 1    
    84   42   43 1    
    85   42   44 1    
    86   42  165 1    
    87   43  166 1    
    88   43  167 1    
    89   43  168 1    
    90   44   45 am   BACKBONE|DICT|INTERRES
    91   44  169 1    
    92   45   46 2    
    93   45   47 1    
    94   47   48 1    
    95   47   49 1    
    96   47  170 1    
    97   48  171 1    
    98   48  172 1    
    99   48  173 1    
   100   49   50 am   BACKBONE|DICT|INTERRES
   101   49  174 1    
   102   50   51 2    
   103   50   52 1    
   104   52   53 1    
   105   52   54 1    
   106   52  175 1    
   107   53  176 1    
   108   53  177 1    
   109   53  178 1    
   110   54   55 am   BACKBONE|DICT|INTERRES
   111   54  179 1    
   112   55   56 2    
   113   55   57 1    
   114   57   58 1    
   115   57   59 1    
   116   57  180 1    
   117   58  181 1    
   118   58  182 1    
   119   58  183 1    
   120   59   60 am   BACKBONE|DICT|INTERRES
   121   59  184 1    
   122   60   61 2    
   123   60   62 1    
   124   62   63 1    
   125   62   64 1    
   126   62  185 1    
   127   63  186 1    
   128   63  187 1    
   129   63  188 1    
   130   64   65 am   BACKBONE|DICT|INTERRES
   131   64  189 1    
   132   65   66 2    
   133   67   68 2    
   134   67   69 am   BACKBONE|DICT|INTERRES
   135   69   70 1    
   136   69  190 1    
   137   70   71 1    
   138   70   72 1    
   139   70  191 1    
   140   71  192 1    
   141   71  193 1    
   142   71  194 1    
   143   72   73 2    
   144   72   74 am   BACKBONE|DICT|INTERRES
   145   74   75 1    
   146   74  195 1    
   147   75   76 1    
   148   75   77 1    
   149   75  196 1    
   150   76  197 1    
   151   76  198 1    
   152   76  199 1    
   153   77   78 2    
   154   77   79 am   BACKBONE|DICT|INTERRES
   155   79   80 1    
   156   79  200 1    
   157   80   81 1    
   158   80   82 1    
   159   80  201 1    
   160   81  202 1    
   161   81  203 1    
   162   81  204 1    
   163   82   83 2    
   164   82   84 am   BACKBONE|DICT|INTERRES
   165   84   85 1    
   166   84  205 1    
   167   85   86 1    
   168   85   87 1    
   169   85  206 1    
   170   86  207 1    
   171   86  208 1    
   172   86  209 1    
   173   87   88 2    
   174   87   89 am   BACKBONE|DICT|INTERRES
   175   89   90 1    
   176   89  210 1    
   177   90   91 1    
   178   90   92 1    
   179   90  211 1    
   180   91  212 1    
   181   91  213 1    
   182   91  214 1    
   183   92   93 2    
   184   92   94 am   BACKBONE|DICT|INTERRES
   185   94   95 1    
   186   94  215 1    
   187   95   96 1    
   188   95   97 1    
   189   95  216 1    
   190   96  217 1    
   191   96  218 1    
   192   96  219 1    
   193   97   98 2    
   194   97   99 am   BACKBONE|DICT|INTERRES
   195   99  100 1    
   196   99  220 1    
   197  100  101 1    
   198  100  102 1    
   199  100  221 1    
   200  101  222 1    
   201  101  223 1    
   202  101  224 1    
   203  102  103 2    
   204  102  104 am   BACKBONE|DICT|INTERRES
   205  104  105 1    
   206  104  225 1    
   207  105  106 1    
   208  105  107 1    
   209  105  226 1    
   210  106  227 1    
   211  106  228 1    
   212  106  229 1    
   213  107  108 2    
   214  107  109 am   BACKBONE|DICT|INTERRES
   215  109  110 1    
   216  109  230 1    
   217  110  111 1    
   218  110  112 1    
   219  110  231 1    
   220  111  232 1    
   221  111  233 1    
   222  111  234 1    
   223  112  113 2    
   224  112  114 am   BACKBONE|DICT|INTERRES
   225  114  115 1    
   226  114  235 1    
   227  115  116 1    
   228  115  117 1    
   229  115  236 1    
   230  116  237 1    
   231  116  238 1    
   232  116  239 1    
   233  117  118 2    
   234  117  119 am   BACKBONE|DICT|INTERRES
   235  119  120 1    
   236  119  240 1    
   237  120  121 1    
   238  120  124 1    
   239  120  241 1    
   240  121  122 am   BACKBONE|DICT|INTERRES
   241  121  123 2    
   242  122  242 1    
   243  122  243 1    
   244  124  125 1    
   245  124  244 1    
   246  124  245 1    
   247  125  126 1    
   248  126  246 1    
   249  126  247 1    
@<TRIPOS>SUBSTRUCTURE
     1 UNK         1 GROUP             0       ****    0 ROOT    
