@<TRIPOS>MOLECULE
3R540
247   249    1
SMALL
USER_CHARGES


@<TRIPOS>ATOM
      1 CA          5.9575  -14.4290  -48.4348 C.3       0 UNK        -0.1800 
      2 C           4.6707  -14.8689  -47.7534 C.2       0 UNK         0.5000 
      3 O           4.6016  -14.8659  -46.5240 O.2       0 UNK        -0.5000 
      4 N           3.6484  -15.2262  -48.5460 N.am      1 UNK        -0.5000 
      5 CA          2.3332  -15.7215  -48.1086 C.3       1 UNK         0.1400 
      6 C6          1.4358  -16.0673  -49.3262 C.3       23 UNK        -0.0398 
      7 S7         -0.0676  -17.0286  -48.9185 S.3       23 UNK        -0.2404 
      8 C8         -1.3237  -15.7276  -49.1205 C.3       23 UNK        -0.0205 
      9 C9         -2.7138  -16.1880  -48.7116 C.ar      23 UNK        -0.0193 
     10 C10        -3.6234  -16.6463  -49.6695 C.ar      23 UNK        -0.1150 
     11 C11        -4.9324  -16.9758  -49.3057 C.ar      23 UNK        -0.0193 
     12 C12        -5.3213  -16.8711  -47.9667 C.ar      23 UNK        -0.1150 
     13 C13        -4.4188  -16.4208  -46.9983 C.ar      23 UNK        -0.0193 
     14 C14        -3.1170  -16.0820  -47.3785 C.ar      23 UNK        -0.1150 
     15 C15        -4.8621  -16.2471  -45.5526 C.3       23 UNK        -0.0205 
     16 S16        -3.9741  -17.3536  -44.4145 S.3       23 UNK        -0.2404 
     17 C17        -4.6014  -18.9892  -44.9168 C.3       23 UNK        -0.0398 
     18 CA         -3.6528  -19.7442  -45.8808 C.3       11 UNK         0.1400 
     19 N          -2.2699  -19.7819  -45.3888 N.am      11 UNK        -0.5000 
     20 C          -1.2343  -20.3335  -46.0333 C.2       10 UNK         0.5000 
     21 O          -1.3169  -20.8262  -47.1544 O.2       10 UNK        -0.5000 
     22 CA          0.1111  -20.4241  -45.2983 C.3       10 UNK         0.1400 
     23 CB          1.0723  -19.3666  -45.8476 C.3       10 UNK        -0.1800 
     24 N           0.0425  -20.3498  -43.8320 N.am      10 UNK        -0.5000 
     25 C          -0.6748  -21.1683  -43.0437 C.2       9 UNK         0.5000 
     26 O          -1.4387  -22.0331  -43.4836 O.2       9 UNK        -0.5000 
     27 CA         -0.5141  -20.9754  -41.5195 C.3       9 UNK         0.1400 
     28 CB         -1.1108  -22.1398  -40.7014 C.3       9 UNK        -0.1800 
     29 N           0.8736  -20.7067  -41.1216 N.am      9 UNK        -0.5000 
     30 C           1.9345  -21.5087  -41.3032 C.2       8 UNK         0.5000 
     31 O           1.8575  -22.6435  -41.7754 O.2       8 UNK        -0.5000 
     32 CA          3.3202  -20.9630  -40.9077 C.3       8 UNK         0.1400 
     33 CB          4.3078  -21.0618  -42.0845 C.3       8 UNK        -0.1800 
     34 N           3.2888  -19.5714  -40.4426 N.am      8 UNK        -0.5000 
     35 C           3.9653  -19.1155  -39.3799 C.2       7 UNK         0.5000 
     36 O           4.5956  -19.8439  -38.6118 O.2       7 UNK        -0.5000 
     37 CA          3.9786  -17.5946  -39.1292 C.3       7 UNK         0.1400 
     38 CB          5.2306  -16.9545  -39.7486 C.3       7 UNK        -0.1800 
     39 N           2.7894  -16.8803  -39.5990 N.am      7 UNK        -0.5000 
     40 C           1.6122  -16.9045  -38.9570 C.2       6 UNK         0.5000 
     41 O           1.3649  -17.6496  -38.0085 O.2       6 UNK        -0.5000 
     42 CA          0.5404  -15.9138  -39.4373 C.3       6 UNK         0.1400 
     43 CB          0.8589  -14.4918  -38.9487 C.3       6 UNK        -0.1800 
     44 N           0.4417  -15.9089  -40.8920 N.am      6 UNK        -0.5000 
     45 C          -0.3908  -16.6891  -41.5929 C.2       5 UNK         0.5000 
     46 O          -1.2050  -17.4607  -41.0873 O.2       5 UNK        -0.5000 
     47 CA         -0.2660  -16.6152  -43.1250 C.3       5 UNK         0.1400 
     48 CB         -1.0626  -15.4107  -43.6494 C.3       5 UNK        -0.1800 
     49 N           1.1203  -16.5089  -43.5850 N.am      5 UNK        -0.5000 
     50 C           2.1236  -17.3378  -43.2651 C.2       4 UNK         0.5000 
     51 O           1.9557  -18.3878  -42.6483 O.2       4 UNK        -0.5000 
     52 CA          3.5560  -16.9133  -43.6398 C.3       4 UNK         0.1400 
     53 CB          4.0898  -17.6941  -44.8460 C.3       4 UNK        -0.1800 
     54 N           3.6959  -15.4811  -43.8923 N.am      4 UNK        -0.5000 
     55 C           3.5200  -14.5167  -42.9783 C.2       3 UNK         0.5000 
     56 O           3.1940  -14.7357  -41.8086 O.2       3 UNK        -0.5000 
     57 CA          3.6985  -13.0747  -43.4766 C.3       3 UNK         0.1400 
     58 CB          5.1898  -12.7241  -43.5934 C.3       3 UNK        -0.1800 
     59 N           3.0545  -12.8938  -44.7793 N.am      3 UNK        -0.5000 
     60 C           1.7934  -12.4724  -44.9466 C.2       2 UNK         0.5000 
     61 O           1.0600  -12.1305  -44.0186 O.2       2 UNK        -0.5000 
     62 CA          1.2482  -12.4290  -46.3901 C.3       2 UNK         0.1400 
     63 CB          1.4936  -11.0475  -47.0152 C.3       2 UNK        -0.1800 
     64 N           1.8058  -13.4576  -47.2725 N.am      2 UNK        -0.5000 
     65 C           1.6262  -14.7763  -47.1094 C.2       1 UNK         0.5000 
     66 O           0.9756  -15.2566  -46.1851 O.2       1 UNK        -0.5000 
     67 C          -4.2222  -21.1543  -46.1540 C.2       11 UNK         0.5000 
     68 O          -5.0232  -21.3157  -47.0740 O.2       11 UNK        -0.5000 
     69 N          -3.7891  -22.1392  -45.3541 N.am      12 UNK        -0.5000 
     70 CA         -4.1421  -23.5487  -45.4966 C.3       12 UNK         0.1400 
     71 CB         -4.6143  -24.0835  -44.1354 C.3       12 UNK        -0.1800 
     72 C          -2.9490  -24.3721  -46.0074 C.2       12 UNK         0.5000 
     73 O          -3.1468  -25.2782  -46.8171 O.2       12 UNK        -0.5000 
     74 N          -1.7369  -24.0615  -45.5230 N.am      13 UNK        -0.5000 
     75 CA         -0.5224  -24.8349  -45.7937 C.3       13 UNK         0.1400 
     76 CB          0.5306  -24.5148  -44.7204 C.3       13 UNK        -0.1800 
     77 C           0.0581  -24.6460  -47.2100 C.2       13 UNK         0.5000 
     78 O           0.8351  -25.4966  -47.6465 O.2       13 UNK        -0.5000 
     79 N          -0.3111  -23.5593  -47.9002 N.am      14 UNK        -0.5000 
     80 CA          0.1267  -23.2553  -49.2644 C.3       14 UNK         0.1400 
     81 CB          1.2522  -22.2069  -49.2271 C.3       14 UNK        -0.1800 
     82 C          -1.0457  -22.7746  -50.1315 C.2       14 UNK         0.5000 
     83 O          -1.1940  -23.2389  -51.2618 O.2       14 UNK        -0.5000 
     84 N          -1.8502  -21.8514  -49.5845 N.am      15 UNK        -0.5000 
     85 CA         -3.0277  -21.2102  -50.1776 C.3       15 UNK         0.1400 
     86 CB         -4.1363  -22.2532  -50.4203 C.3       15 UNK        -0.1800 
     87 C          -2.7017  -20.3720  -51.4328 C.2       15 UNK         0.5000 
     88 O          -3.5582  -20.2057  -52.2994 O.2       15 UNK        -0.5000 
     89 N          -1.4509  -19.8961  -51.5358 N.am      16 UNK        -0.5000 
     90 CA         -0.8337  -19.1197  -52.6241 C.3       16 UNK         0.1400 
     91 CB         -1.4972  -17.7364  -52.7549 C.3       16 UNK        -0.1800 
     92 C          -0.7507  -19.8140  -54.0034 C.2       16 UNK         0.5000 
     93 O           0.1064  -19.4339  -54.8019 O.2       16 UNK        -0.5000 
     94 N          -1.6211  -20.7994  -54.2621 N.am      17 UNK        -0.5000 
     95 CA         -1.8164  -21.5256  -55.5196 C.3       17 UNK         0.1400 
     96 CB         -0.5793  -22.3771  -55.8720 C.3       17 UNK        -0.1800 
     97 C          -2.2642  -20.5844  -56.6559 C.2       17 UNK         0.5000 
     98 O          -1.7152  -20.6231  -57.7590 O.2       17 UNK        -0.5000 
     99 N          -3.2586  -19.7395  -56.3483 N.am      18 UNK        -0.5000 
    100 CA        -3.9260  -18.8521  -57.3026 C.3       18 UNK         0.1400 
    101 CB        -4.7710  -17.8316  -56.5267 C.3       18 UNK        -0.1800 
    102 C         -4.7954  -19.6382  -58.3033 C.2       18 UNK         0.5000 
    103 O         -4.8787  -19.2624  -59.4734 O.2       18 UNK        -0.5000 
    104 N         -5.3879  -20.7348  -57.8221 N.am      19 UNK        -0.5000 
    105 CA        -6.0431  -21.7748  -58.6037 C.3       19 UNK         0.1400 
    106 CB        -7.5717  -21.6194  -58.4697 C.3       19 UNK        -0.1800 
    107 C         -5.4884  -23.1185  -58.0962 C.2       19 UNK         0.5000 
    108 O         -4.2706  -23.2523  -57.9560 O.2       19 UNK        -0.5000 
    109 N         -6.3693  -24.0755  -57.7722 N.am      20 UNK        -0.5000 
    110 CA        -6.0192  -25.2980  -57.0369 C.3       20 UNK         0.1400 
    111 CB        -7.1979  -26.2808  -57.1074 C.3       20 UNK        -0.1800 
    112 C         -5.6389  -25.0105  -55.5671 C.2       20 UNK         0.5000 
    113 O         -4.9027  -25.7871  -54.9582 O.2       20 UNK        -0.5000 
    114 N         -6.1377  -23.8860  -55.0446 N.am      21 UNK        -0.5000 
    115 CA        -5.8195  -23.2960  -53.7536 C.3       21 UNK         0.1400 
    116 CB        -6.7125  -23.9206  -52.6601 C.3       21 UNK        -0.1800 
    117 C         -5.9695  -21.7726  -53.9217 C.2       21 UNK         0.5000 
    118 O         -5.4972  -21.2341  -54.9282 O.2       21 UNK        -0.5000 
    119 N         -6.6395  -21.1117  -52.9712 N.am      22 UNK        -0.5000 
    120 CA        -7.0231  -19.6940  -53.0417 C.3       22 UNK         0.1400 
    121 C         -8.0385  -19.4028  -54.1857 C.2       22 UNK         0.5000 
    122 N         -8.0609  -18.1821  -54.7036 N.am      22 UNK        -0.7600 
    123 O         -8.8348  -20.2536  -54.5779 O.2       22 UNK        -0.5000 
    124 C124       -7.5886  -19.1954  -51.6862 C.3       23 UNK        -0.0398 
    125 S125       -6.3323  -19.1376  -50.3619 S.3       23 UNK        -0.2404 
    126 C126       -5.9499  -17.3607  -50.3691 C.3       23 UNK        -0.0205 
    127 H127        6.2029  -13.4070  -48.1463 H         1 UNK         0.0600 
    128 H128        6.7802  -15.0765  -48.1317 H         1 UNK         0.0600 
    129 H129        5.8760  -14.4669  -49.5212 H         1 UNK         0.0600 
    130 H130        3.7844  -15.1882  -49.5463 H         1 UNK         0.3000 
    131 H131        2.5225  -16.6537  -47.5758 H         1 UNK         0.0600 
    132 H132        2.0043  -16.6753  -50.0312 H         1 UNK         0.0800 
    133 H133        1.1662  -15.1626  -49.8738 H         1 UNK         0.0800 
    134 H134       -1.3317  -15.3895  -50.1576 H         1 UNK         0.0800 
    135 H135       -1.0442  -14.8596  -48.5214 H         1 UNK         0.0800 
    136 H136       -3.3281  -16.7067  -50.7062 H         1 UNK         0.1150 
    137 H137       -6.3367  -17.1148  -47.6871 H         1 UNK         0.1150 
    138 H138       -2.4208  -15.7159  -46.6381 H         1 UNK         0.1150 
    139 H139       -5.9365  -16.4062  -45.4481 H         1 UNK         0.0800 
    140 H140       -4.6765  -15.2155  -45.2506 H         1 UNK         0.0800 
    141 H141       -4.7547  -19.5663  -44.0029 H         1 UNK         0.0800 
    142 H142       -5.5885  -18.8722  -45.3679 H         1 UNK         0.0800 
    143 H143       -3.6363  -19.2130  -46.8348 H         1 UNK         0.0600 
    144 H144       -2.1152  -19.3909  -44.4722 H         1 UNK         0.3000 
    145 H145        0.5310  -21.3985  -45.5471 H         1 UNK         0.0600 
    146 H146        2.0632  -19.4971  -45.4201 H         1 UNK         0.0600 
    147 H147        1.1773  -19.4542  -46.9299 H         1 UNK         0.0600 
    148 H148        0.7247  -18.3546  -45.6408 H         1 UNK         0.0600 
    149 H149        0.6691  -19.6877  -43.3841 H         1 UNK         0.3000 
    150 H150       -1.0838  -20.0811  -41.2690 H         1 UNK         0.0600 
    151 H151       -2.1794  -22.2435  -40.8937 H         1 UNK         0.0600 
    152 H152       -0.9895  -21.9726  -39.6312 H         1 UNK         0.0600 
    153 H153       -0.6431  -23.0932  -40.9483 H         1 UNK         0.0600 
    154 H154        1.0460  -19.7882  -40.7396 H         1 UNK         0.3000 
    155 H155        3.6749  -21.6183  -40.1100 H         1 UNK         0.0600 
    156 H156        4.4142  -22.0917  -42.4271 H         1 UNK         0.0600 
    157 H157        5.3002  -20.7128  -41.7989 H         1 UNK         0.0600 
    158 H158        3.9734  -20.4660  -42.9339 H         1 UNK         0.0600 
    159 H159        2.8084  -18.9170  -41.0535 H         1 UNK         0.3000 
    160 H160        4.0453  -17.4522  -38.0482 H         1 UNK         0.0600 
    161 H161        5.2622  -17.0829  -40.8289 H         1 UNK         0.0600 
    162 H162        5.2751  -15.8860  -39.5365 H         1 UNK         0.0600 
    163 H163        6.1378  -17.4034  -39.3423 H         1 UNK         0.0600 
    164 H164        2.9218  -16.2191  -40.3561 H         1 UNK         0.3000 
    165 H165       -0.4155  -16.2105  -38.9998 H         1 UNK         0.0600 
    166 H166        0.0726  -13.7934  -39.2355 H         1 UNK         0.0600 
    167 H167        0.9397  -14.4616  -37.8613 H         1 UNK         0.0600 
    168 H168        1.7995  -14.1218  -39.3589 H         1 UNK         0.0600 
    169 H169        1.1110  -15.3363  -41.3915 H         1 UNK         0.3000 
    170 H170       -0.6958  -17.5267  -43.5430 H         1 UNK         0.0600 
    171 H171       -2.0679  -15.3844  -43.2277 H         1 UNK         0.0600 
    172 H172       -0.5791  -14.4662  -43.3975 H         1 UNK         0.0600 
    173 H173       -1.1704  -15.4537  -44.7314 H         1 UNK         0.0600 
    174 H174        1.3203  -15.7339  -44.2070 H         1 UNK         0.3000 
    175 H175        4.1893  -17.1586  -42.7883 H         1 UNK         0.0600 
    176 H176        3.4754  -17.5349  -45.7300 H         1 UNK         0.0600 
    177 H177        5.1087  -17.3932  -45.0904 H         1 UNK         0.0600 
    178 H178        4.1138  -18.7641  -44.6411 H         1 UNK         0.0600 
    179 H179        3.9776  -15.2189  -44.8345 H         1 UNK         0.3000 
    180 H180        3.2518  -12.4047  -42.7390 H         1 UNK         0.0600 
    181 H181        5.6969  -12.8531  -42.6364 H         1 UNK         0.0600 
    182 H182        5.6995  -13.3543  -44.3236 H         1 UNK         0.0600 
    183 H183        5.3258  -11.6858  -43.8962 H         1 UNK         0.0600 
    184 H184        3.5726  -13.2130  -45.5885 H         1 UNK         0.3000 
    185 H185        0.1694  -12.5904  -46.3344 H         1 UNK         0.0600 
    186 H186        1.0314  -10.9716  -47.9996 H         1 UNK         0.0600 
    187 H187        1.0672  -10.2570  -46.3959 H         1 UNK         0.0600 
    188 H188        2.5585  -10.8394  -47.1258 H         1 UNK         0.0600 
    189 H189        2.3781  -13.1388  -48.0405 H         1 UNK         0.3000 
    190 H190       -3.1044  -21.9187  -44.6388 H         1 UNK         0.3000 
    191 H191       -4.9596  -23.6715  -46.2101 H         1 UNK         0.0600 
    192 H192       -4.8810  -25.1392  -44.2008 H         1 UNK         0.0600 
    193 H193       -5.4968  -23.5462  -43.7878 H         1 UNK         0.0600 
    194 H194       -3.8411  -23.9852  -43.3720 H         1 UNK         0.0600 
    195 H195       -1.6540  -23.3261  -44.8264 H         1 UNK         0.3000 
    196 H196       -0.7743  -25.8931  -45.6958 H         1 UNK         0.0600 
    197 H197        1.4179  -25.1364  -44.8459 H         1 UNK         0.0600 
    198 H198        0.1441  -24.7022  -43.7182 H         1 UNK         0.0600 
    199 H199        0.8545  -23.4764  -44.7600 H         1 UNK         0.0600 
    200 H200       -0.9630  -22.9099  -47.4789 H         1 UNK         0.3000 
    201 H201        0.5176  -24.1559  -49.7428 H         1 UNK         0.0600 
    202 H202        2.1177  -22.5809  -48.6802 H         1 UNK         0.0600 
    203 H203        0.9300  -21.2821  -48.7475 H         1 UNK         0.0600 
    204 H204        1.5871  -21.9567  -50.2345 H         1 UNK         0.0600 
    205 H205       -1.6072  -21.4900  -48.6605 H         1 UNK         0.3000 
    206 H206       -3.3969  -20.5035  -49.4327 H         1 UNK         0.0600 
    207 H207       -4.3375  -22.8299  -49.5173 H         1 UNK         0.0600 
    208 H208       -5.0687  -21.7690  -50.7039 H         1 UNK         0.0600 
    209 H209       -3.8720  -22.9509  -51.2146 H         1 UNK         0.0600 
    210 H210       -0.8279  -20.1190  -50.7732 H         1 UNK         0.3000 
    211 H211        0.1991  -18.9550  -52.3129 H         1 UNK         0.0600 
    212 H212       -2.5600  -17.8105  -52.9869 H         1 UNK         0.0600 
    213 H213       -1.0314  -17.1500  -53.5478 H         1 UNK         0.0600 
    214 H214       -1.3871  -17.1687  -51.8331 H         1 UNK         0.0600 
    215 H215       -2.3317  -20.9525  -53.5534 H         1 UNK         0.3000 
    216 H216       -2.6477  -22.2123  -55.3504 H         1 UNK         0.0600 
    217 H217       -0.3064  -23.0342  -55.0462 H         1 UNK         0.0600 
    218 H218       -0.7792  -23.0093  -56.7379 H         1 UNK         0.0600 
    219 H219        0.2872  -21.7604  -56.1116 H         1 UNK         0.0600 
    220 H220       -3.6758  -19.8079  -55.4291 H         1 UNK         0.3000 
    221 H221       -3.1632  -18.3124  -57.8675 H         1 UNK         0.0600 
    222 H222       -5.2847  -17.1505  -57.2063 H         1 UNK         0.0600 
    223 H223       -4.1506  -17.2273  -55.8646 H         1 UNK         0.0600 
    224 H224       -5.5286  -18.3255  -55.9185 H         1 UNK         0.0600 
    225 H225       -5.2529  -20.9524  -56.8377 H         1 UNK         0.3000 
    226 H226       -5.7677  -21.6930  -59.6570 H         1 UNK         0.0600 
    227 H227       -7.8919  -20.6389  -58.8230 H         1 UNK         0.0600 
    228 H228       -8.1025  -22.3606  -59.0681 H         1 UNK         0.0600 
    229 H229       -7.9014  -21.7160  -57.4341 H         1 UNK         0.0600 
    230 H230       -7.3522  -23.9084  -57.9335 H         1 UNK         0.3000 
    231 H231       -5.1560  -25.7604  -57.5203 H         1 UNK         0.0600 
    232 H232       -8.0951  -25.8685  -56.6439 H         1 UNK         0.0600 
    233 H233       -7.4385  -26.5351  -58.1398 H         1 UNK         0.0600 
    234 H234       -6.9603  -27.2120  -56.5912 H         1 UNK         0.0600 
    235 H235       -6.6935  -23.2948  -55.6460 H         1 UNK         0.3000 
    236 H236       -4.7716  -23.4895  -53.5159 H         1 UNK         0.0600 
    237 H237       -7.7702  -23.7288  -52.8451 H         1 UNK         0.0600 
    238 H238       -6.5775  -25.0015  -52.6175 H         1 UNK         0.0600 
    239 H239       -6.4681  -23.5346  -51.6708 H         1 UNK         0.0600 
    240 H240       -7.0064  -21.6284  -52.1873 H         1 UNK         0.3000 
    241 H241       -6.1159  -19.1281  -53.2647 H         1 UNK         0.0600 
    242 H242       -8.7267  -17.9763  -55.4320 H         1 UNK         0.3800 
    243 H243       -7.4359  -17.4571  -54.3887 H         1 UNK         0.3800 
    244 H244       -8.0269  -18.2012  -51.7899 H         1 UNK         0.0800 
    245 H245       -8.4048  -19.8406  -51.3570 H         1 UNK         0.0800 
    246 H246       -5.5888  -17.0806  -51.3601 H         1 UNK         0.0800 
    247 H247       -6.8663  -16.7922  -50.2031 H         1 UNK         0.0800 
@<TRIPOS>BOND
     1    1    2 1    
     2    1  127 1    
     3    1  128 1    
     4    1  129 1    
     5    2    3 2    
     6    2    4 am   BACKBONE|DICT|INTERRES
     7    4    5 1    
     8    4  130 1    
     9    5    6 1    
    10    5   65 1    
    11    5  131 1    
    12    6    7 1    
    13    6  132 1    
    14    6  133 1    
    15    7    8 1    
    16    8    9 1    
    17    8  134 1    
    18    8  135 1    
    19    9   10 ar   
    20    9   14 ar   
    21   10   11 ar   
    22   10  136 1    
    23   11   12 ar   
    24   11  126 1    
    25   12   13 ar   
    26   12  137 1    
    27   13   14 ar   
    28   13   15 1    
    29   14  138 1    
    30   15   16 1    
    31   15  139 1    
    32   15  140 1    
    33   16   17 1    
    34   17   18 1    
    35   17  141 1    
    36   17  142 1    
    37   18   19 1    
    38   18   67 1    
    39   18  143 1    
    40   19   20 am   BACKBONE|DICT|INTERRES
    41   19  144 1    
    42   20   21 2    
    43   20   22 1    
    44   22   23 1    
    45   22   24 1    
    46   22  145 1    
    47   23  146 1    
    48   23  147 1    
    49   23  148 1    
    50   24   25 am   BACKBONE|DICT|INTERRES
    51   24  149 1    
    52   25   26 2    
    53   25   27 1    
    54   27   28 1    
    55   27   29 1    
    56   27  150 1    
    57   28  151 1    
    58   28  152 1    
    59   28  153 1    
    60   29   30 am   BACKBONE|DICT|INTERRES
    61   29  154 1    
    62   30   31 2    
    63   30   32 1    
    64   32   33 1    
    65   32   34 1    
    66   32  155 1    
    67   33  156 1    
    68   33  157 1    
    69   33  158 1    
    70   34   35 am   BACKBONE|DICT|INTERRES
    71   34  159 1    
    72   35   36 2    
    73   35   37 1    
    74   37   38 1    
    75   37   39 1    
    76   37  160 1    
    77   38  161 1    
    78   38  162 1    
    79   38  163 1    
    80   39   40 am   BACKBONE|DICT|INTERRES
    81   39  164 1    
    82   40   41 2    
    83   40   42 1    
    84   42   43 1    
    85   42   44 1    
    86   42  165 1    
    87   43  166 1    
    88   43  167 1    
    89   43  168 1    
    90   44   45 am   BACKBONE|DICT|INTERRES
    91   44  169 1    
    92   45   46 2    
    93   45   47 1    
    94   47   48 1    
    95   47   49 1    
    96   47  170 1    
    97   48  171 1    
    98   48  172 1    
    99   48  173 1    
   100   49   50 am   BACKBONE|DICT|INTERRES
   101   49  174 1    
   102   50   51 2    
   103   50   52 1    
   104   52   53 1    
   105   52   54 1    
   106   52  175 1    
   107   53  176 1    
   108   53  177 1    
   109   53  178 1    
   110   54   55 am   BACKBONE|DICT|INTERRES
   111   54  179 1    
   112   55   56 2    
   113   55   57 1    
   114   57   58 1    
   115   57   59 1    
   116   57  180 1    
   117   58  181 1    
   118   58  182 1    
   119   58  183 1    
   120   59   60 am   BACKBONE|DICT|INTERRES
   121   59  184 1    
   122   60   61 2    
   123   60   62 1    
   124   62   63 1    
   125   62   64 1    
   126   62  185 1    
   127   63  186 1    
   128   63  187 1    
   129   63  188 1    
   130   64   65 am   BACKBONE|DICT|INTERRES
   131   64  189 1    
   132   65   66 2    
   133   67   68 2    
   134   67   69 am   BACKBONE|DICT|INTERRES
   135   69   70 1    
   136   69  190 1    
   137   70   71 1    
   138   70   72 1    
   139   70  191 1    
   140   71  192 1    
   141   71  193 1    
   142   71  194 1    
   143   72   73 2    
   144   72   74 am   BACKBONE|DICT|INTERRES
   145   74   75 1    
   146   74  195 1    
   147   75   76 1    
   148   75   77 1    
   149   75  196 1    
   150   76  197 1    
   151   76  198 1    
   152   76  199 1    
   153   77   78 2    
   154   77   79 am   BACKBONE|DICT|INTERRES
   155   79   80 1    
   156   79  200 1    
   157   80   81 1    
   158   80   82 1    
   159   80  201 1    
   160   81  202 1    
   161   81  203 1    
   162   81  204 1    
   163   82   83 2    
   164   82   84 am   BACKBONE|DICT|INTERRES
   165   84   85 1    
   166   84  205 1    
   167   85   86 1    
   168   85   87 1    
   169   85  206 1    
   170   86  207 1    
   171   86  208 1    
   172   86  209 1    
   173   87   88 2    
   174   87   89 am   BACKBONE|DICT|INTERRES
   175   89   90 1    
   176   89  210 1    
   177   90   91 1    
   178   90   92 1    
   179   90  211 1    
   180   91  212 1    
   181   91  213 1    
   182   91  214 1    
   183   92   93 2    
   184   92   94 am   BACKBONE|DICT|INTERRES
   185   94   95 1    
   186   94  215 1    
   187   95   96 1    
   188   95   97 1    
   189   95  216 1    
   190   96  217 1    
   191   96  218 1    
   192   96  219 1    
   193   97   98 2    
   194   97   99 am   BACKBONE|DICT|INTERRES
   195   99  100 1    
   196   99  220 1    
   197  100  101 1    
   198  100  102 1    
   199  100  221 1    
   200  101  222 1    
   201  101  223 1    
   202  101  224 1    
   203  102  103 2    
   204  102  104 am   BACKBONE|DICT|INTERRES
   205  104  105 1    
   206  104  225 1    
   207  105  106 1    
   208  105  107 1    
   209  105  226 1    
   210  106  227 1    
   211  106  228 1    
   212  106  229 1    
   213  107  108 2    
   214  107  109 am   BACKBONE|DICT|INTERRES
   215  109  110 1    
   216  109  230 1    
   217  110  111 1    
   218  110  112 1    
   219  110  231 1    
   220  111  232 1    
   221  111  233 1    
   222  111  234 1    
   223  112  113 2    
   224  112  114 am   BACKBONE|DICT|INTERRES
   225  114  115 1    
   226  114  235 1    
   227  115  116 1    
   228  115  117 1    
   229  115  236 1    
   230  116  237 1    
   231  116  238 1    
   232  116  239 1    
   233  117  118 2    
   234  117  119 am   BACKBONE|DICT|INTERRES
   235  119  120 1    
   236  119  240 1    
   237  120  121 1    
   238  120  124 1    
   239  120  241 1    
   240  121  122 am   BACKBONE|DICT|INTERRES
   241  121  123 2    
   242  122  242 1    
   243  122  243 1    
   244  124  125 1    
   245  124  244 1    
   246  124  245 1    
   247  125  126 1    
   248  126  246 1    
   249  126  247 1    
@<TRIPOS>SUBSTRUCTURE
     1 UNK         1 GROUP             0       ****    0 ROOT    
