@<TRIPOS>MOLECULE
3R540
247   249    1
SMALL
USER_CHARGES


@<TRIPOS>ATOM
      1 CA          0.7204  -13.0366  -46.5432 C.3       0 UNK        -0.1800 
      2 C           1.8880  -13.9296  -46.1292 C.2       0 UNK         0.5000 
      3 O           1.6977  -14.8590  -45.3498 O.2       0 UNK        -0.5000 
      4 N           3.1093  -13.7146  -46.6292 N.am      1 UNK        -0.5000 
      5 CA          3.4776  -12.7228  -47.6455 C.3       1 UNK         0.1400 
      6 C6          4.7208  -13.1607  -48.4644 C.3       23 UNK        -0.0398 
      7 S7          4.6686  -14.9069  -49.0029 S.3       23 UNK        -0.2404 
      8 C8          3.5181  -14.8495  -50.4129 C.3       23 UNK        -0.0205 
      9 C9          2.5282  -16.0082  -50.3809 C.ar      23 UNK        -0.0193 
     10 C10         1.1528  -15.7631  -50.3027 C.ar      23 UNK        -0.1150 
     11 C11         0.2380  -16.8218  -50.3173 C.ar      23 UNK        -0.0193 
     12 C12         0.7129  -18.1330  -50.4013 C.ar      23 UNK        -0.1150 
     13 C13         2.0833  -18.3964  -50.4617 C.ar      23 UNK        -0.0193 
     14 C14         2.9850  -17.3283  -50.4571 C.ar      23 UNK        -0.1150 
     15 C15         2.5882  -19.8299  -50.5604 C.3       23 UNK        -0.0205 
     16 S16         2.4948  -20.7058  -48.9647 S.3       23 UNK        -0.2404 
     17 C17         0.7295  -21.1645  -48.9017 C.3       23 UNK        -0.0398 
     18 CA          0.4700  -22.4235  -48.0451 C.3       11 UNK         0.1400 
     19 N           0.7537  -22.2042  -46.6240 N.am      11 UNK        -0.5000 
     20 C           0.7247  -23.1549  -45.6798 C.2       10 UNK         0.5000 
     21 O           0.5105  -24.3441  -45.9112 O.2       10 UNK        -0.5000 
     22 CA          0.9051  -22.6902  -44.2255 C.3       10 UNK         0.1400 
     23 CB          2.3891  -22.4879  -43.8836 C.3       10 UNK        -0.1800 
     24 N           0.1571  -21.4622  -43.9567 N.am      10 UNK        -0.5000 
     25 C          -1.1797  -21.3990  -43.8785 C.2       9 UNK         0.5000 
     26 O          -1.9161  -22.3803  -43.9825 O.2       9 UNK        -0.5000 
     27 CA         -1.7995  -20.0015  -43.6907 C.3       9 UNK         0.1400 
     28 CB         -1.8297  -19.6183  -42.2044 C.3       9 UNK        -0.1800 
     29 N          -1.1024  -18.9639  -44.4544 N.am      9 UNK        -0.5000 
     30 C          -1.0907  -18.9131  -45.7950 C.2       8 UNK         0.5000 
     31 O          -1.6836  -19.7163  -46.5121 O.2       8 UNK        -0.5000 
     32 CA         -0.2410  -17.8195  -46.4610 C.3       8 UNK         0.1400 
     33 CB         -1.0407  -16.5166  -46.5934 C.3       8 UNK        -0.1800 
     34 N           1.0290  -17.5547  -45.7877 N.am      8 UNK        -0.5000 
     35 C           1.9907  -18.4617  -45.5624 C.2       7 UNK         0.5000 
     36 O           1.8677  -19.6618  -45.8012 O.2       7 UNK        -0.5000 
     37 CA          3.2987  -17.9470  -44.9473 C.3       7 UNK         0.1400 
     38 CB          4.1923  -17.3361  -46.0374 C.3       7 UNK        -0.1800 
     39 N           3.0192  -16.9450  -43.9199 N.am      7 UNK        -0.5000 
     40 C           3.0690  -17.1754  -42.6025 C.2       6 UNK         0.5000 
     41 O           3.4590  -18.2319  -42.1034 O.2       6 UNK        -0.5000 
     42 CA          2.5870  -16.0408  -41.6780 C.3       6 UNK         0.1400 
     43 CB          3.7429  -15.0826  -41.3527 C.3       6 UNK        -0.1800 
     44 N           1.4687  -15.2643  -42.2141 N.am      6 UNK        -0.5000 
     45 C           0.2535  -15.7313  -42.5211 C.2       5 UNK         0.5000 
     46 O          -0.0516  -16.9218  -42.4343 O.2       5 UNK        -0.5000 
     47 CA         -0.7934  -14.7060  -43.0196 C.3       5 UNK         0.1400 
     48 CB         -2.2325  -15.2442  -42.9089 C.3       5 UNK        -0.1800 
     49 N          -0.7417  -13.3837  -42.3824 N.am      5 UNK        -0.5000 
     50 C           0.1891  -12.4421  -42.5812 C.2       4 UNK         0.5000 
     51 O           1.2329  -12.6289  -43.2093 O.2       4 UNK        -0.5000 
     52 CA         -0.0744  -11.0629  -41.9543 C.3       4 UNK         0.1400 
     53 CB          0.6083  -10.9560  -40.5826 C.3       4 UNK        -0.1800 
     54 N           0.4452  -10.0121  -42.8260 N.am      4 UNK        -0.5000 
     55 C          -0.0882   -9.6481  -43.9975 C.2       3 UNK         0.5000 
     56 O          -1.1873  -10.0364  -44.3954 O.2       3 UNK        -0.5000 
     57 CA          0.7574   -8.7200  -44.8931 C.3       3 UNK         0.1400 
     58 CB          0.8077   -7.2840  -44.3359 C.3       3 UNK        -0.1800 
     59 N           2.1019   -9.2390  -45.1862 N.am      3 UNK        -0.5000 
     60 C           3.1322   -9.4430  -44.3524 C.2       2 UNK         0.5000 
     61 O           3.1041   -9.1687  -43.1507 O.2       2 UNK        -0.5000 
     62 CA          4.3933  -10.0836  -44.9691 C.3       2 UNK         0.1400 
     63 CB          5.4494  -10.4477  -43.9092 C.3       2 UNK        -0.1800 
     64 N           4.0755  -11.2892  -45.7374 N.am      2 UNK        -0.5000 
     65 C           3.7056  -11.3283  -47.0247 C.2       1 UNK         0.5000 
     66 O           3.5190  -10.3198  -47.7053 O.2       1 UNK        -0.5000 
     67 C          -0.9661  -22.9412  -48.2663 C.2       11 UNK         0.5000 
     68 O          -1.1472  -23.9050  -49.0092 O.2       11 UNK        -0.5000 
     69 N          -1.9500  -22.3292  -47.5907 N.am      12 UNK        -0.5000 
     70 CA         -3.3549  -22.7394  -47.6107 C.3       12 UNK         0.1400 
     71 CB         -4.2035  -21.7313  -46.8216 C.3       12 UNK        -0.1800 
     72 C          -3.5640  -24.1601  -47.0613 C.2       12 UNK         0.5000 
     73 O          -4.2932  -24.9412  -47.6715 O.2       12 UNK        -0.5000 
     74 N          -2.8954  -24.4820  -45.9444 N.am      13 UNK        -0.5000 
     75 CA         -2.9071  -25.8098  -45.3294 C.3       13 UNK         0.1400 
     76 CB         -2.2257  -25.7468  -43.9542 C.3       13 UNK        -0.1800 
     77 C          -2.2545  -26.8870  -46.2161 C.2       13 UNK         0.5000 
     78 O          -2.7779  -27.9986  -46.2979 O.2       13 UNK        -0.5000 
     79 N          -1.1406  -26.5360  -46.8742 N.am      14 UNK        -0.5000 
     80 CA         -0.4248  -27.3973  -47.8153 C.3       14 UNK         0.1400 
     81 CB          0.9463  -26.7829  -48.1367 C.3       14 UNK        -0.1800 
     82 C          -1.2229  -27.6604  -49.1053 C.2       14 UNK         0.5000 
     83 O          -1.2612  -28.8006  -49.5701 O.2       14 UNK        -0.5000 
     84 N          -1.8498  -26.6100  -49.6536 N.am      15 UNK        -0.5000 
     85 CA         -2.7084  -26.6830  -50.8361 C.3       15 UNK         0.1400 
     86 CB         -2.9991  -25.2630  -51.3482 C.3       15 UNK        -0.1800 
     87 C          -4.0259  -27.4303  -50.5675 C.2       15 UNK         0.5000 
     88 O          -4.4728  -28.1952  -51.4228 O.2       15 UNK        -0.5000 
     89 N          -4.6217  -27.1747  -49.3925 N.am      16 UNK        -0.5000 
     90 CA         -5.9172  -27.6715  -48.9145 C.3       16 UNK         0.1400 
     91 CB         -5.8820  -29.2010  -48.7171 C.3       16 UNK        -0.1800 
     92 C          -7.1091  -27.2011  -49.7791 C.2       16 UNK         0.5000 
     93 O          -8.1622  -27.8414  -49.7790 O.2       16 UNK        -0.5000 
     94 N          -6.9239  -26.0870  -50.4959 N.am      17 UNK        -0.5000 
     95 CA         -7.8536  -25.4850  -51.4420 C.3       17 UNK         0.1400 
     96 CB         -7.9651  -26.3600  -52.7069 C.3       17 UNK        -0.1800 
     97 C          -7.3338  -24.0869  -51.8045 C.2       17 UNK         0.5000 
     98 O          -6.1636  -23.7766  -51.5553 O.2       17 UNK        -0.5000 
     99 N          -8.1945  -23.2829  -52.4395 N.am      18 UNK        -0.5000 
    100 CA        -7.9094  -21.9301  -52.9286 C.3       18 UNK         0.1400 
    101 CB        -9.2388  -21.1676  -53.0719 C.3       18 UNK        -0.1800 
    102 C         -7.0775  -21.9169  -54.2335 C.2       18 UNK         0.5000 
    103 O         -7.3781  -21.1517  -55.1527 O.2       18 UNK        -0.5000 
    104 N         -6.0406  -22.7626  -54.2989 N.am      19 UNK        -0.5000 
    105 CA        -5.0541  -22.8235  -55.3757 C.3       19 UNK         0.1400 
    106 CB        -4.1238  -24.0225  -55.1379 C.3       19 UNK        -0.1800 
    107 C         -4.2581  -21.5091  -55.4344 C.2       19 UNK         0.5000 
    108 O         -3.6384  -21.1376  -54.4343 O.2       19 UNK        -0.5000 
    109 N         -4.3535  -20.8049  -56.5716 N.am      20 UNK        -0.5000 
    110 CA        -3.8472  -19.4436  -56.7987 C.3       20 UNK         0.1400 
    111 CB        -2.3042  -19.4337  -56.8288 C.3       20 UNK        -0.1800 
    112 C         -4.4371  -18.4195  -55.8009 C.2       20 UNK         0.5000 
    113 O         -3.7312  -17.5177  -55.3493 O.2       20 UNK        -0.5000 
    114 N         -5.7117  -18.6243  -55.4329 N.am      21 UNK        -0.5000 
    115 CA        -6.5106  -17.9388  -54.4082 C.3       21 UNK         0.1400 
    116 CB        -6.5779  -16.4179  -54.6457 C.3       21 UNK        -0.1800 
    117 C         -6.0963  -18.2671  -52.9588 C.2       21 UNK         0.5000 
    118 O         -6.9682  -18.3304  -52.0918 O.2       21 UNK        -0.5000 
    119 N         -4.7982  -18.4794  -52.7177 N.am      22 UNK        -0.5000 
    120 CA        -4.2162  -18.8462  -51.4190 C.3       22 UNK         0.1400 
    121 C         -4.6462  -20.2569  -50.9309 C.2       22 UNK         0.5000 
    122 N         -4.5644  -21.2833  -51.7665 N.am      22 UNK        -0.7600 
    123 O         -5.0734  -20.4158  -49.7927 O.2       22 UNK        -0.5000 
    124 C124       -2.6733  -18.7116  -51.4277 C.3       23 UNK        -0.0398 
    125 S125       -2.1296  -16.9981  -51.7715 S.3       23 UNK        -0.2404 
    126 C126       -1.2590  -16.5491  -50.2348 C.3       23 UNK        -0.0205 
    127 H127       -0.1802  -13.3030  -45.9917 H         1 UNK         0.0600 
    128 H128        0.5027  -13.1504  -47.6048 H         1 UNK         0.0600 
    129 H129        0.9338  -11.9896  -46.3313 H         1 UNK         0.0600 
    130 H130        3.8558  -14.3364  -46.3569 H         1 UNK         0.3000 
    131 H131        2.6520  -12.6268  -48.3521 H         1 UNK         0.0600 
    132 H132        5.6293  -13.0420  -47.8707 H         1 UNK         0.0800 
    133 H133        4.8481  -12.5218  -49.3402 H         1 UNK         0.0800 
    134 H134        2.9870  -13.8971  -50.4254 H         1 UNK         0.0800 
    135 H135        4.0908  -14.8916  -51.3403 H         1 UNK         0.0800 
    136 H136        0.7926  -14.7457  -50.2428 H         1 UNK         0.1150 
    137 H137        0.0128  -18.9523  -50.4275 H         1 UNK         0.1150 
    138 H138        4.0471  -17.5209  -50.5157 H         1 UNK         0.1150 
    139 H139        2.0281  -20.3718  -51.3235 H         1 UNK         0.0800 
    140 H140        3.6273  -19.8366  -50.8927 H         1 UNK         0.0800 
    141 H141        0.3840  -21.3308  -49.9238 H         1 UNK         0.0800 
    142 H142        0.1608  -20.3193  -48.5140 H         1 UNK         0.0800 
    143 H143        1.1450  -23.2098  -48.3899 H         1 UNK         0.0600 
    144 H144        1.0018  -21.2562  -46.3512 H         1 UNK         0.3000 
    145 H145        0.5156  -23.4753  -43.5738 H         1 UNK         0.0600 
    146 H146        2.5169  -22.1901  -42.8428 H         1 UNK         0.0600 
    147 H147        2.9487  -23.4128  -44.0283 H         1 UNK         0.0600 
    148 H148        2.8533  -21.7258  -44.5092 H         1 UNK         0.0600 
    149 H149        0.6864  -20.6021  -43.9385 H         1 UNK         0.3000 
    150 H150       -2.8305  -20.0462  -44.0480 H         1 UNK         0.0600 
    151 H151       -2.3285  -18.6606  -42.0544 H         1 UNK         0.0600 
    152 H152       -0.8244  -19.5404  -41.7884 H         1 UNK         0.0600 
    153 H153       -2.3713  -20.3629  -41.6196 H         1 UNK         0.0600 
    154 H154       -0.5898  -18.2699  -43.9201 H         1 UNK         0.3000 
    155 H155        0.0008  -18.1651  -47.4673 H         1 UNK         0.0600 
    156 H156       -1.2462  -16.0741  -45.6219 H         1 UNK         0.0600 
    157 H157       -0.5027  -15.7833  -47.1940 H         1 UNK         0.0600 
    158 H158       -2.0027  -16.6922  -47.0758 H         1 UNK         0.0600 
    159 H159        1.2263  -16.5810  -45.5707 H         1 UNK         0.3000 
    160 H160        3.8278  -18.8009  -44.5191 H         1 UNK         0.0600 
    161 H161        3.6911  -16.5230  -46.5616 H         1 UNK         0.0600 
    162 H162        4.4584  -18.0848  -46.7847 H         1 UNK         0.0600 
    163 H163        5.1204  -16.9474  -45.6185 H         1 UNK         0.0600 
    164 H164        2.6355  -16.0608  -44.2432 H         1 UNK         0.3000 
    165 H165        2.2494  -16.4994  -40.7466 H         1 UNK         0.0600 
    166 H166        3.4392  -14.3318  -40.6229 H         1 UNK         0.0600 
    167 H167        4.5921  -15.6216  -40.9306 H         1 UNK         0.0600 
    168 H168        4.0934  -14.5605  -42.2441 H         1 UNK         0.0600 
    169 H169        1.6426  -14.2841  -42.4184 H         1 UNK         0.3000 
    170 H170       -0.5856  -14.5552  -44.0772 H         1 UNK         0.0600 
    171 H171       -2.3492  -16.1894  -43.4406 H         1 UNK         0.0600 
    172 H172       -2.5150  -15.4171  -41.8698 H         1 UNK         0.0600 
    173 H173       -2.9494  -14.5460  -43.3413 H         1 UNK         0.0600 
    174 H174       -1.5360  -13.1525  -41.8034 H         1 UNK         0.3000 
    175 H175       -1.1498  -10.9199  -41.8300 H         1 UNK         0.0600 
    176 H176        1.6889  -11.0852  -40.6608 H         1 UNK         0.0600 
    177 H177        0.4196   -9.9856  -40.1232 H         1 UNK         0.0600 
    178 H178        0.2342  -11.7186  -39.8984 H         1 UNK         0.0600 
    179 H179        1.3942   -9.6970  -42.6415 H         1 UNK         0.3000 
    180 H180        0.2490   -8.6718  -45.8574 H         1 UNK         0.0600 
    181 H181        1.2903   -7.2366  -43.3596 H         1 UNK         0.0600 
    182 H182       -0.1983   -6.8792  -44.2193 H         1 UNK         0.0600 
    183 H183        1.3489   -6.6196  -45.0095 H         1 UNK         0.0600 
    184 H184        2.2532   -9.5097  -46.1508 H         1 UNK         0.3000 
    185 H185        4.8364   -9.3398  -45.6348 H         1 UNK         0.0600 
    186 H186        5.7610   -9.5671  -43.3460 H         1 UNK         0.0600 
    187 H187        5.0670  -11.1782  -43.1949 H         1 UNK         0.0600 
    188 H188        6.3435  -10.8668  -44.3713 H         1 UNK         0.0600 
    189 H189        4.1263  -12.1631  -45.2335 H         1 UNK         0.3000 
    190 H190       -1.7346  -21.5011  -47.0404 H         1 UNK         0.3000 
    191 H191       -3.6897  -22.7287  -48.6502 H         1 UNK         0.0600 
    192 H192       -3.9052  -21.6815  -45.7744 H         1 UNK         0.0600 
    193 H193       -5.2593  -22.0028  -46.8525 H         1 UNK         0.0600 
    194 H194       -4.1160  -20.7293  -47.2412 H         1 UNK         0.0600 
    195 H195       -2.3470  -23.7682  -45.4769 H         1 UNK         0.3000 
    196 H196       -3.9498  -26.0958  -45.1765 H         1 UNK         0.0600 
    197 H197       -2.2398  -26.7219  -43.4659 H         1 UNK         0.0600 
    198 H198       -2.7357  -25.0449  -43.2941 H         1 UNK         0.0600 
    199 H199       -1.1845  -25.4338  -44.0336 H         1 UNK         0.0600 
    200 H200       -0.7374  -25.6199  -46.6996 H         1 UNK         0.3000 
    201 H201       -0.2559  -28.3595  -47.3274 H         1 UNK         0.0600 
    202 H202        1.5481  -26.6706  -47.2347 H         1 UNK         0.0600 
    203 H203        0.8499  -25.7996  -48.5977 H         1 UNK         0.0600 
    204 H204        1.5069  -27.4160  -48.8255 H         1 UNK         0.0600 
    205 H205       -1.7136  -25.6877  -49.2466 H         1 UNK         0.3000 
    206 H206       -2.1699  -27.2232  -51.6175 H         1 UNK         0.0600 
    207 H207       -2.0825  -24.7560  -51.6499 H         1 UNK         0.0600 
    208 H208       -3.6599  -25.2883  -52.2153 H         1 UNK         0.0600 
    209 H209       -3.4834  -24.6500  -50.5868 H         1 UNK         0.0600 
    210 H210       -4.1967  -26.4776  -48.7860 H         1 UNK         0.3000 
    211 H211       -6.0638  -27.2189  -47.9329 H         1 UNK         0.0600 
    212 H212       -5.8141  -29.7318  -49.6669 H         1 UNK         0.0600 
    213 H213       -6.7823  -29.5512  -48.2112 H         1 UNK         0.0600 
    214 H214       -5.0305  -29.4976  -48.1041 H         1 UNK         0.0600 
    215 H215       -6.0481  -25.5853  -50.4112 H         1 UNK         0.3000 
    216 H216       -8.8313  -25.3836  -50.9672 H         1 UNK         0.0600 
    217 H217       -6.9932  -26.4974  -53.1832 H         1 UNK         0.0600 
    218 H218       -8.6317  -25.9108  -53.4438 H         1 UNK         0.0600 
    219 H219       -8.3649  -27.3476  -52.4774 H         1 UNK         0.0600 
    220 H220       -9.1201  -23.6333  -52.6404 H         1 UNK         0.3000 
    221 H221       -7.3192  -21.4091  -52.1728 H         1 UNK         0.0600 
    222 H222       -9.7902  -21.1566  -52.1316 H         1 UNK         0.0600 
    223 H223       -9.8792  -21.6142  -53.8333 H         1 UNK         0.0600 
    224 H224       -9.0667  -20.1278  -53.3529 H         1 UNK         0.0600 
    225 H225       -5.8467  -23.3178  -53.4737 H         1 UNK         0.3000 
    226 H226       -5.5841  -22.9755  -56.3182 H         1 UNK         0.0600 
    227 H227       -4.6855  -24.9551  -55.0817 H         1 UNK         0.0600 
    228 H228       -3.4039  -24.1231  -55.9509 H         1 UNK         0.0600 
    229 H229       -3.5582  -23.9147  -54.2116 H         1 UNK         0.0600 
    230 H230       -4.9049  -21.1906  -57.3259 H         1 UNK         0.3000 
    231 H231       -4.1990  -19.1423  -57.7863 H         1 UNK         0.0600 
    232 H232       -1.8773  -19.6622  -55.8517 H         1 UNK         0.0600 
    233 H233       -1.9255  -18.4561  -57.1292 H         1 UNK         0.0600 
    234 H234       -1.9191  -20.1626  -57.5417 H         1 UNK         0.0600 
    235 H235       -6.1684  -19.4456  -55.8129 H         1 UNK         0.3000 
    236 H236       -7.5226  -18.3279  -54.5310 H         1 UNK         0.0600 
    237 H237       -7.2966  -15.9541  -53.9692 H         1 UNK         0.0600 
    238 H238       -5.6167  -15.9329  -54.4746 H         1 UNK         0.0600 
    239 H239       -6.8950  -16.1901  -55.6633 H         1 UNK         0.0600 
    240 H240       -4.1490  -18.3671  -53.4868 H         1 UNK         0.3000 
    241 H241       -4.6005  -18.1336  -50.6863 H         1 UNK         0.0600 
    242 H242       -4.8940  -22.1917  -51.4642 H         1 UNK         0.3800 
    243 H243       -4.1964  -21.1662  -52.7090 H         1 UNK         0.3800 
    244 H244       -2.2380  -19.3677  -52.1838 H         1 UNK         0.0800 
    245 H245       -2.2675  -19.0409  -50.4704 H         1 UNK         0.0800 
    246 H246       -1.6871  -17.0879  -49.3902 H         1 UNK         0.0800 
    247 H247       -1.4387  -15.4912  -50.0380 H         1 UNK         0.0800 
@<TRIPOS>BOND
     1    1    2 1    
     2    1  127 1    
     3    1  128 1    
     4    1  129 1    
     5    2    3 2    
     6    2    4 am   BACKBONE|DICT|INTERRES
     7    4    5 1    
     8    4  130 1    
     9    5    6 1    
    10    5   65 1    
    11    5  131 1    
    12    6    7 1    
    13    6  132 1    
    14    6  133 1    
    15    7    8 1    
    16    8    9 1    
    17    8  134 1    
    18    8  135 1    
    19    9   10 ar   
    20    9   14 ar   
    21   10   11 ar   
    22   10  136 1    
    23   11   12 ar   
    24   11  126 1    
    25   12   13 ar   
    26   12  137 1    
    27   13   14 ar   
    28   13   15 1    
    29   14  138 1    
    30   15   16 1    
    31   15  139 1    
    32   15  140 1    
    33   16   17 1    
    34   17   18 1    
    35   17  141 1    
    36   17  142 1    
    37   18   19 1    
    38   18   67 1    
    39   18  143 1    
    40   19   20 am   BACKBONE|DICT|INTERRES
    41   19  144 1    
    42   20   21 2    
    43   20   22 1    
    44   22   23 1    
    45   22   24 1    
    46   22  145 1    
    47   23  146 1    
    48   23  147 1    
    49   23  148 1    
    50   24   25 am   BACKBONE|DICT|INTERRES
    51   24  149 1    
    52   25   26 2    
    53   25   27 1    
    54   27   28 1    
    55   27   29 1    
    56   27  150 1    
    57   28  151 1    
    58   28  152 1    
    59   28  153 1    
    60   29   30 am   BACKBONE|DICT|INTERRES
    61   29  154 1    
    62   30   31 2    
    63   30   32 1    
    64   32   33 1    
    65   32   34 1    
    66   32  155 1    
    67   33  156 1    
    68   33  157 1    
    69   33  158 1    
    70   34   35 am   BACKBONE|DICT|INTERRES
    71   34  159 1    
    72   35   36 2    
    73   35   37 1    
    74   37   38 1    
    75   37   39 1    
    76   37  160 1    
    77   38  161 1    
    78   38  162 1    
    79   38  163 1    
    80   39   40 am   BACKBONE|DICT|INTERRES
    81   39  164 1    
    82   40   41 2    
    83   40   42 1    
    84   42   43 1    
    85   42   44 1    
    86   42  165 1    
    87   43  166 1    
    88   43  167 1    
    89   43  168 1    
    90   44   45 am   BACKBONE|DICT|INTERRES
    91   44  169 1    
    92   45   46 2    
    93   45   47 1    
    94   47   48 1    
    95   47   49 1    
    96   47  170 1    
    97   48  171 1    
    98   48  172 1    
    99   48  173 1    
   100   49   50 am   BACKBONE|DICT|INTERRES
   101   49  174 1    
   102   50   51 2    
   103   50   52 1    
   104   52   53 1    
   105   52   54 1    
   106   52  175 1    
   107   53  176 1    
   108   53  177 1    
   109   53  178 1    
   110   54   55 am   BACKBONE|DICT|INTERRES
   111   54  179 1    
   112   55   56 2    
   113   55   57 1    
   114   57   58 1    
   115   57   59 1    
   116   57  180 1    
   117   58  181 1    
   118   58  182 1    
   119   58  183 1    
   120   59   60 am   BACKBONE|DICT|INTERRES
   121   59  184 1    
   122   60   61 2    
   123   60   62 1    
   124   62   63 1    
   125   62   64 1    
   126   62  185 1    
   127   63  186 1    
   128   63  187 1    
   129   63  188 1    
   130   64   65 am   BACKBONE|DICT|INTERRES
   131   64  189 1    
   132   65   66 2    
   133   67   68 2    
   134   67   69 am   BACKBONE|DICT|INTERRES
   135   69   70 1    
   136   69  190 1    
   137   70   71 1    
   138   70   72 1    
   139   70  191 1    
   140   71  192 1    
   141   71  193 1    
   142   71  194 1    
   143   72   73 2    
   144   72   74 am   BACKBONE|DICT|INTERRES
   145   74   75 1    
   146   74  195 1    
   147   75   76 1    
   148   75   77 1    
   149   75  196 1    
   150   76  197 1    
   151   76  198 1    
   152   76  199 1    
   153   77   78 2    
   154   77   79 am   BACKBONE|DICT|INTERRES
   155   79   80 1    
   156   79  200 1    
   157   80   81 1    
   158   80   82 1    
   159   80  201 1    
   160   81  202 1    
   161   81  203 1    
   162   81  204 1    
   163   82   83 2    
   164   82   84 am   BACKBONE|DICT|INTERRES
   165   84   85 1    
   166   84  205 1    
   167   85   86 1    
   168   85   87 1    
   169   85  206 1    
   170   86  207 1    
   171   86  208 1    
   172   86  209 1    
   173   87   88 2    
   174   87   89 am   BACKBONE|DICT|INTERRES
   175   89   90 1    
   176   89  210 1    
   177   90   91 1    
   178   90   92 1    
   179   90  211 1    
   180   91  212 1    
   181   91  213 1    
   182   91  214 1    
   183   92   93 2    
   184   92   94 am   BACKBONE|DICT|INTERRES
   185   94   95 1    
   186   94  215 1    
   187   95   96 1    
   188   95   97 1    
   189   95  216 1    
   190   96  217 1    
   191   96  218 1    
   192   96  219 1    
   193   97   98 2    
   194   97   99 am   BACKBONE|DICT|INTERRES
   195   99  100 1    
   196   99  220 1    
   197  100  101 1    
   198  100  102 1    
   199  100  221 1    
   200  101  222 1    
   201  101  223 1    
   202  101  224 1    
   203  102  103 2    
   204  102  104 am   BACKBONE|DICT|INTERRES
   205  104  105 1    
   206  104  225 1    
   207  105  106 1    
   208  105  107 1    
   209  105  226 1    
   210  106  227 1    
   211  106  228 1    
   212  106  229 1    
   213  107  108 2    
   214  107  109 am   BACKBONE|DICT|INTERRES
   215  109  110 1    
   216  109  230 1    
   217  110  111 1    
   218  110  112 1    
   219  110  231 1    
   220  111  232 1    
   221  111  233 1    
   222  111  234 1    
   223  112  113 2    
   224  112  114 am   BACKBONE|DICT|INTERRES
   225  114  115 1    
   226  114  235 1    
   227  115  116 1    
   228  115  117 1    
   229  115  236 1    
   230  116  237 1    
   231  116  238 1    
   232  116  239 1    
   233  117  118 2    
   234  117  119 am   BACKBONE|DICT|INTERRES
   235  119  120 1    
   236  119  240 1    
   237  120  121 1    
   238  120  124 1    
   239  120  241 1    
   240  121  122 am   BACKBONE|DICT|INTERRES
   241  121  123 2    
   242  122  242 1    
   243  122  243 1    
   244  124  125 1    
   245  124  244 1    
   246  124  245 1    
   247  125  126 1    
   248  126  246 1    
   249  126  247 1    
@<TRIPOS>SUBSTRUCTURE
     1 UNK         1 GROUP             0       ****    0 ROOT    
