@<TRIPOS>MOLECULE
3R540
247   249    1
SMALL
USER_CHARGES


@<TRIPOS>ATOM
      1 CA         -1.7604  -10.5299  -50.2466 C.3       0 UNK        -0.1800 
      2 C          -1.4195  -11.8515  -49.5732 C.2       0 UNK         0.5000 
      3 O          -0.2577  -12.2575  -49.5769 O.2       0 UNK        -0.5000 
      4 N          -2.4274  -12.5193  -48.9959 N.am      1 UNK        -0.5000 
      5 CA         -2.3024  -13.8115  -48.3069 C.3       1 UNK         0.1400 
      6 C6         -3.6824  -14.4252  -47.9646 C.3       23 UNK        -0.0398 
      7 S7         -4.7260  -14.6898  -49.4377 S.3       23 UNK        -0.2404 
      8 C8         -4.5067  -16.4743  -49.7145 C.3       23 UNK        -0.0205 
      9 C9         -3.0908  -16.8085  -50.1556 C.ar      23 UNK        -0.0193 
     10 C10        -2.7034  -16.5812  -51.4784 C.ar      23 UNK        -0.1150 
     11 C11        -1.4059  -16.8810  -51.9000 C.ar      23 UNK        -0.0193 
     12 C12        -0.4903  -17.4074  -50.9846 C.ar      23 UNK        -0.1150 
     13 C13        -0.8631  -17.6318  -49.6555 C.ar      23 UNK        -0.0193 
     14 C14        -2.1675  -17.3374  -49.2476 C.ar      23 UNK        -0.1150 
     15 C15         0.1533  -18.1734  -48.6619 C.3       23 UNK        -0.0205 
     16 S16         0.2630  -19.9875  -48.7340 S.3       23 UNK        -0.2404 
     17 C17        -1.2365  -20.4757  -47.8202 C.3       23 UNK        -0.0398 
     18 CA         -1.0814  -21.8746  -47.1811 C.3       11 UNK         0.1400 
     19 N          -0.1017  -21.9102  -46.0919 N.am      11 UNK        -0.5000 
     20 C           0.3327  -23.0368  -45.5089 C.2       10 UNK         0.5000 
     21 O          -0.0186  -24.1646  -45.8540 O.2       10 UNK        -0.5000 
     22 CA          1.2703  -22.8847  -44.3007 C.3       10 UNK         0.1400 
     23 CB          2.7052  -22.5787  -44.7541 C.3       10 UNK        -0.1800 
     24 N           0.8067  -21.8656  -43.3586 N.am      10 UNK        -0.5000 
     25 C          -0.3498  -21.9323  -42.6827 C.2       9 UNK         0.5000 
     26 O          -1.1275  -22.8840  -42.7548 O.2       9 UNK        -0.5000 
     27 CA         -0.7236  -20.7214  -41.8091 C.3       9 UNK         0.1400 
     28 CB          0.0207  -20.7687  -40.4667 C.3       9 UNK        -0.1800 
     29 N          -0.4723  -19.4404  -42.4704 N.am      9 UNK        -0.5000 
     30 C          -1.0833  -19.0295  -43.5921 C.2       8 UNK         0.5000 
     31 O          -1.9545  -19.6745  -44.1761 O.2       8 UNK        -0.5000 
     32 CA         -0.5942  -17.7019  -44.1995 C.3       8 UNK         0.1400 
     33 CB         -1.1678  -16.4975  -43.4391 C.3       8 UNK        -0.1800 
     34 N           0.8646  -17.6099  -44.2334 N.am      8 UNK        -0.5000 
     35 C           1.6628  -18.4582  -44.8965 C.2       7 UNK         0.5000 
     36 O           1.2516  -19.3945  -45.5795 O.2       7 UNK        -0.5000 
     37 CA          3.1756  -18.2635  -44.7144 C.3       7 UNK         0.1400 
     38 CB          3.6859  -17.0866  -45.5608 C.3       7 UNK        -0.1800 
     39 N           3.5318  -18.0684  -43.3078 N.am      7 UNK        -0.5000 
     40 C           3.4237  -19.0166  -42.3649 C.2       6 UNK         0.5000 
     41 O           3.0386  -20.1627  -42.5887 O.2       6 UNK        -0.5000 
     42 CA          3.7718  -18.6095  -40.9223 C.3       6 UNK         0.1400 
     43 CB          5.2852  -18.7115  -40.6815 C.3       6 UNK        -0.1800 
     44 N           3.3185  -17.2589  -40.5943 N.am      6 UNK        -0.5000 
     45 C           2.0335  -16.8873  -40.5059 C.2       5 UNK         0.5000 
     46 O           1.0827  -17.6531  -40.6632 O.2       5 UNK        -0.5000 
     47 CA          1.7780  -15.3879  -40.2647 C.3       5 UNK         0.1400 
     48 CB          1.8972  -15.0466  -38.7719 C.3       5 UNK        -0.1800 
     49 N           2.6844  -14.5332  -41.0398 N.am      5 UNK        -0.5000 
     50 C           2.7126  -14.5058  -42.3774 C.2       4 UNK         0.5000 
     51 O           1.9673  -15.1889  -43.0877 O.2       4 UNK        -0.5000 
     52 CA          3.7598  -13.6019  -43.0402 C.3       4 UNK         0.1400 
     53 CB          5.1321  -14.2963  -43.1044 C.3       4 UNK        -0.1800 
     54 N           3.2613  -13.3233  -44.3768 N.am      4 UNK        -0.5000 
     55 C           3.6447  -12.3609  -45.2188 C.2       3 UNK         0.5000 
     56 O           4.6036  -11.6120  -45.0293 O.2       3 UNK        -0.5000 
     57 CA          2.7564  -12.1873  -46.4671 C.3       3 UNK         0.1400 
     58 CB          3.2244  -13.1132  -47.6002 C.3       3 UNK        -0.1800 
     59 N           1.3447  -12.4613  -46.1777 N.am      3 UNK        -0.5000 
     60 C           0.5692  -11.7195  -45.3751 C.2       2 UNK         0.5000 
     61 O           0.9358  -10.6548  -44.8746 O.2       2 UNK        -0.5000 
     62 CA         -0.8446  -12.2659  -45.0883 C.3       2 UNK         0.1400 
     63 CB         -1.7010  -11.2997  -44.2500 C.3       2 UNK        -0.1800 
     64 N          -1.5647  -12.5805  -46.3205 N.am      2 UNK        -0.5000 
     65 C          -1.4484  -13.7124  -47.0270 C.2       1 UNK         0.5000 
     66 O          -0.6956  -14.6357  -46.7150 O.2       1 UNK        -0.5000 
     67 C          -2.4476  -22.4290  -46.7381 C.2       11 UNK         0.5000 
     68 O          -3.0364  -23.2189  -47.4750 O.2       11 UNK        -0.5000 
     69 N          -2.9205  -22.0485  -45.5428 N.am      12 UNK        -0.5000 
     70 CA         -4.1559  -22.5623  -44.9449 C.3       12 UNK         0.1400 
     71 CB         -4.4466  -21.8246  -43.6299 C.3       12 UNK        -0.1800 
     72 C          -4.1323  -24.0872  -44.7316 C.2       12 UNK         0.5000 
     73 O          -5.1139  -24.7586  -45.0514 O.2       12 UNK        -0.5000 
     74 N          -3.0068  -24.5997  -44.2199 N.am      13 UNK        -0.5000 
     75 CA         -2.7943  -26.0160  -43.9424 C.3       13 UNK         0.1400 
     76 CB         -1.6029  -26.1719  -42.9830 C.3       13 UNK        -0.1800 
     77 C          -2.5891  -26.8613  -45.2122 C.2       13 UNK         0.5000 
     78 O          -3.3130  -27.8377  -45.4120 O.2       13 UNK        -0.5000 
     79 N          -1.5819  -26.5070  -46.0207 N.am      14 UNK        -0.5000 
     80 CA         -1.0655  -27.3626  -47.0906 C.3       14 UNK         0.1400 
     81 CB          0.4585  -27.1845  -47.1804 C.3       14 UNK        -0.1800 
     82 C          -1.7056  -27.0948  -48.4607 C.2       14 UNK         0.5000 
     83 O          -1.8163  -28.0282  -49.2568 O.2       14 UNK        -0.5000 
     84 N          -2.0933  -25.8414  -48.7277 N.am      15 UNK        -0.5000 
     85 CA         -2.5913  -25.3941  -50.0327 C.3       15 UNK         0.1400 
     86 CB         -1.7803  -24.1649  -50.4801 C.3       15 UNK        -0.1800 
     87 C          -4.0999  -25.0897  -50.0174 C.2       15 UNK         0.5000 
     88 O          -4.6104  -24.5619  -51.0057 O.2       15 UNK        -0.5000 
     89 N          -4.7831  -25.3914  -48.9020 N.am      16 UNK        -0.5000 
     90 CA         -6.2093  -25.1499  -48.6466 C.3       16 UNK         0.1400 
     91 CB         -7.0786  -26.0875  -49.5101 C.3       16 UNK        -0.1800 
     92 C          -6.5987  -23.6610  -48.7881 C.2       16 UNK         0.5000 
     93 O          -7.6340  -23.3403  -49.3730 O.2       16 UNK        -0.5000 
     94 N          -5.7276  -22.7900  -48.2610 N.am      17 UNK        -0.5000 
     95 CA         -5.7561  -21.3236  -48.2967 C.3       17 UNK         0.1400 
     96 CB         -7.1053  -20.7415  -47.8263 C.3       17 UNK        -0.1800 
     97 C          -5.2628  -20.7193  -49.6249 C.2       17 UNK         0.5000 
     98 O          -5.3497  -19.5036  -49.7853 O.2       17 UNK        -0.5000 
     99 N          -4.7030  -21.5506  -50.5176 N.am      18 UNK        -0.5000 
    100 CA        -4.0597  -21.1887  -51.7830 C.3       18 UNK         0.1400 
    101 CB        -2.6959  -20.5132  -51.5178 C.3       18 UNK        -0.1800 
    102 C         -4.9957  -20.3881  -52.7130 C.2       18 UNK         0.5000 
    103 O         -6.0358  -20.9197  -53.1076 O.2       18 UNK        -0.5000 
    104 N         -4.6018  -19.1566  -53.0726 N.am      19 UNK        -0.5000 
    105 CA        -5.2254  -18.2176  -54.0164 C.3       19 UNK         0.1400 
    106 CB        -6.6618  -17.8489  -53.6009 C.3       19 UNK        -0.1800 
    107 C         -5.1496  -18.6912  -55.4808 C.2       19 UNK         0.5000 
    108 O         -4.6884  -17.9412  -56.3424 O.2       19 UNK        -0.5000 
    109 N         -5.5517  -19.9412  -55.7312 N.am      20 UNK        -0.5000 
    110 CA        -5.2586  -20.6806  -56.9533 C.3       20 UNK         0.1400 
    111 CB        -6.1690  -21.9159  -57.0199 C.3       20 UNK        -0.1800 
    112 C         -3.7759  -21.0962  -56.9733 C.2       20 UNK         0.5000 
    113 O         -3.2187  -21.4219  -55.9221 O.2       20 UNK        -0.5000 
    114 N         -3.1769  -21.0818  -58.1715 N.am      21 UNK        -0.5000 
    115 CA        -1.7781  -21.4241  -58.4696 C.3       21 UNK         0.1400 
    116 CB        -1.4757  -22.8960  -58.1154 C.3       21 UNK        -0.1800 
    117 C         -0.7334  -20.4461  -57.8819 C.2       21 UNK         0.5000 
    118 O          0.4554  -20.7701  -57.8646 O.2       21 UNK        -0.5000 
    119 N         -1.1742  -19.2558  -57.4524 N.am      22 UNK        -0.5000 
    120 CA        -0.3104  -18.1558  -56.9870 C.3       22 UNK         0.1400 
    121 C          0.4151  -17.3856  -58.1321 C.2       22 UNK         0.5000 
    122 N          0.0685  -17.5803  -59.3991 N.am      22 UNK        -0.7600 
    123 O          1.3197  -16.5992  -57.8650 O.2       22 UNK        -0.5000 
    124 C124       -1.0853  -17.1726  -56.0728 C.3       23 UNK        -0.0398 
    125 S125       -1.5454  -17.9128  -54.4685 S.3       23 UNK        -0.2404 
    126 C126       -0.9902  -16.6022  -53.3349 C.3       23 UNK        -0.0205 
    127 H127       -1.1990   -9.7179  -49.7844 H         1 UNK         0.0600 
    128 H128       -2.8226  -10.2967  -50.1688 H         1 UNK         0.0600 
    129 H129       -1.4977  -10.5692  -51.3037 H         1 UNK         0.0600 
    130 H130       -3.3648  -12.1474  -49.0550 H         1 UNK         0.3000 
    131 H131       -1.7814  -14.4907  -48.9845 H         1 UNK         0.0600 
    132 H132       -3.5642  -15.3731  -47.4365 H         1 UNK         0.0800 
    133 H133       -4.2309  -13.7725  -47.2831 H         1 UNK         0.0800 
    134 H134       -5.2094  -16.8031  -50.4817 H         1 UNK         0.0800 
    135 H135       -4.7707  -17.0223  -48.8088 H         1 UNK         0.0800 
    136 H136       -3.4119  -16.1604  -52.1776 H         1 UNK         0.1150 
    137 H137        0.5169  -17.6367  -51.3032 H         1 UNK         0.1150 
    138 H138       -2.4604  -17.5116  -48.2221 H         1 UNK         0.1150 
    139 H139        1.1363  -17.7559  -48.8837 H         1 UNK         0.0800 
    140 H140       -0.0854  -17.8503  -47.6475 H         1 UNK         0.0800 
    141 H141       -2.0691  -20.4549  -48.5257 H         1 UNK         0.0800 
    142 H142       -1.4608  -19.7326  -47.0531 H         1 UNK         0.0800 
    143 H143       -0.7128  -22.5514  -47.9547 H         1 UNK         0.0600 
    144 H144        0.2744  -21.0157  -45.7854 H         1 UNK         0.3000 
    145 H145        1.2827  -23.8403  -43.7724 H         1 UNK         0.0600 
    146 H146        3.3920  -22.5721  -43.9078 H         1 UNK         0.0600 
    147 H147        3.0622  -23.3336  -45.4557 H         1 UNK         0.0600 
    148 H148        2.7755  -21.6105  -45.2498 H         1 UNK         0.0600 
    149 H149        1.4217  -21.0707  -43.2128 H         1 UNK         0.3000 
    150 H150       -1.7941  -20.7814  -41.6030 H         1 UNK         0.0600 
    151 H151       -0.3086  -19.9669  -39.8056 H         1 UNK         0.0600 
    152 H152       -0.1631  -21.7119  -39.9506 H         1 UNK         0.0600 
    153 H153        1.0983  -20.6708  -40.5999 H         1 UNK         0.0600 
    154 H154        0.2125  -18.8315  -42.0330 H         1 UNK         0.3000 
    155 H155       -0.9532  -17.6544  -45.2296 H         1 UNK         0.0600 
    156 H156       -0.8119  -16.4632  -42.4089 H         1 UNK         0.0600 
    157 H157       -2.2574  -16.5341  -43.4126 H         1 UNK         0.0600 
    158 H158       -0.8847  -15.5618  -43.9208 H         1 UNK         0.0600 
    159 H159        1.2844  -16.8449  -43.7120 H         1 UNK         0.3000 
    160 H160        3.6726  -19.1702  -45.0658 H         1 UNK         0.0600 
    161 H161        3.2327  -16.1419  -45.2624 H         1 UNK         0.0600 
    162 H162        3.4527  -17.2390  -46.6155 H         1 UNK         0.0600 
    163 H163        4.7678  -16.9822  -45.4805 H         1 UNK         0.0600 
    164 H164        3.8114  -17.1406  -43.0311 H         1 UNK         0.3000 
    165 H165        3.2709  -19.3082  -40.2489 H         1 UNK         0.0600 
    166 H166        5.5340  -18.4995  -39.6415 H         1 UNK         0.0600 
    167 H167        5.6482  -19.7161  -40.9029 H         1 UNK         0.0600 
    168 H168        5.8426  -18.0151  -41.3093 H         1 UNK         0.0600 
    169 H169        4.0321  -16.5596  -40.4525 H         1 UNK         0.3000 
    170 H170        0.7558  -15.1718  -40.5833 H         1 UNK         0.0600 
    171 H171        1.2213  -15.6618  -38.1764 H         1 UNK         0.0600 
    172 H172        2.9081  -15.2128  -38.3979 H         1 UNK         0.0600 
    173 H173        1.6365  -14.0049  -38.5840 H         1 UNK         0.0600 
    174 H174        3.3202  -13.9489  -40.5159 H         1 UNK         0.3000 
    175 H175        3.8337  -12.6675  -42.4806 H         1 UNK         0.0600 
    176 H176        5.0891  -15.2253  -43.6727 H         1 UNK         0.0600 
    177 H177        5.8788  -13.6555  -43.5731 H         1 UNK         0.0600 
    178 H178        5.4972  -14.5374  -42.1055 H         1 UNK         0.0600 
    179 H179        2.4473  -13.8789  -44.6112 H         1 UNK         0.3000 
    180 H180        2.8445  -11.1527  -46.8048 H         1 UNK         0.0600 
    181 H181        3.1430  -14.1648  -47.3220 H         1 UNK         0.0600 
    182 H182        4.2669  -12.9202  -47.8565 H         1 UNK         0.0600 
    183 H183        2.6330  -12.9589  -48.5032 H         1 UNK         0.0600 
    184 H184        0.9496  -13.3122  -46.5616 H         1 UNK         0.3000 
    185 H185       -0.7180  -13.1806  -44.5058 H         1 UNK         0.0600 
    186 H186       -1.2225  -11.0794  -43.2949 H         1 UNK         0.0600 
    187 H187       -1.8612  -10.3519  -44.7654 H         1 UNK         0.0600 
    188 H188       -2.6776  -11.7305  -44.0284 H         1 UNK         0.0600 
    189 H189       -2.1645  -11.8543  -46.6843 H         1 UNK         0.3000 
    190 H190       -2.4046  -21.3615  -44.9988 H         1 UNK         0.3000 
    191 H191       -4.9771  -22.3434  -45.6269 H         1 UNK         0.0600 
    192 H192       -4.5527  -20.7524  -43.7955 H         1 UNK         0.0600 
    193 H193       -5.3759  -22.1777  -43.1814 H         1 UNK         0.0600 
    194 H194       -3.6527  -21.9724  -42.8984 H         1 UNK         0.0600 
    195 H195       -2.2610  -23.9657  -43.9473 H         1 UNK         0.3000 
    196 H196       -3.6810  -26.3979  -43.4317 H         1 UNK         0.0600 
    197 H197       -1.4134  -27.2225  -42.7596 H         1 UNK         0.0600 
    198 H198       -1.7939  -25.6671  -42.0358 H         1 UNK         0.0600 
    199 H199       -0.6874  -25.7529  -43.4025 H         1 UNK         0.0600 
    200 H200       -1.0488  -25.6616  -45.8220 H         1 UNK         0.3000 
    201 H201       -1.2551  -28.4087  -46.8396 H         1 UNK         0.0600 
    202 H202        0.9380  -27.3943  -46.2242 H         1 UNK         0.0600 
    203 H203        0.7304  -26.1707  -47.4766 H         1 UNK         0.0600 
    204 H204        0.8882  -27.8655  -47.9162 H         1 UNK         0.0600 
    205 H205       -2.0183  -25.1316  -48.0093 H         1 UNK         0.3000 
    206 H206       -2.4426  -26.1711  -50.7849 H         1 UNK         0.0600 
    207 H207       -0.7092  -24.3649  -50.4518 H         1 UNK         0.0600 
    208 H208       -2.0286  -23.8839  -51.5041 H         1 UNK         0.0600 
    209 H209       -1.9769  -23.2989  -49.8507 H         1 UNK         0.0600 
    210 H210       -4.2603  -25.7901  -48.1351 H         1 UNK         0.3000 
    211 H211       -6.3822  -25.4101  -47.6012 H         1 UNK         0.0600 
    212 H212       -6.9919  -25.8566  -50.5723 H         1 UNK         0.0600 
    213 H213       -8.1321  -26.0016  -49.2415 H         1 UNK         0.0600 
    214 H214       -6.7930  -27.1298  -49.3692 H         1 UNK         0.0600 
    215 H215       -4.8671  -23.1762  -47.8784 H         1 UNK         0.3000 
    216 H216       -5.0144  -21.0066  -47.5638 H         1 UNK         0.0600 
    217 H217       -7.0248  -19.6676  -47.6538 H         1 UNK         0.0600 
    218 H218       -7.4283  -21.1960  -46.8898 H         1 UNK         0.0600 
    219 H219       -7.8930  -20.8882  -48.5653 H         1 UNK         0.0600 
    220 H220       -4.7525  -22.5459  -50.3368 H         1 UNK         0.3000 
    221 H221       -3.8598  -22.1273  -52.3018 H         1 UNK         0.0600 
    222 H222       -2.8035  -19.5827  -50.9627 H         1 UNK         0.0600 
    223 H223       -2.0407  -21.1629  -50.9395 H         1 UNK         0.0600 
    224 H224       -2.1741  -20.2902  -52.4492 H         1 UNK         0.0600 
    225 H225       -3.7157  -18.8423  -52.7014 H         1 UNK         0.3000 
    226 H226       -4.6300  -17.3058  -53.9555 H         1 UNK         0.0600 
    227 H227       -6.6917  -17.4820  -52.5749 H         1 UNK         0.0600 
    228 H228       -7.0583  -17.0602  -54.2412 H         1 UNK         0.0600 
    229 H229       -7.3426  -18.6972  -53.6732 H         1 UNK         0.0600 
    230 H230       -5.8672  -20.4871  -54.9342 H         1 UNK         0.3000 
    231 H231       -5.4693  -20.0408  -57.8129 H         1 UNK         0.0600 
    232 H232       -6.0028  -22.5836  -56.1733 H         1 UNK         0.0600 
    233 H233       -5.9866  -22.4875  -57.9307 H         1 UNK         0.0600 
    234 H234       -7.2212  -21.6305  -57.0197 H         1 UNK         0.0600 
    235 H235       -3.7243  -20.7962  -58.9721 H         1 UNK         0.3000 
    236 H236       -1.6812  -21.3314  -59.5522 H         1 UNK         0.0600 
    237 H237       -1.4587  -23.0603  -57.0378 H         1 UNK         0.0600 
    238 H238       -2.2188  -23.5668  -58.5464 H         1 UNK         0.0600 
    239 H239       -0.5033  -23.2004  -58.5042 H         1 UNK         0.0600 
    240 H240       -2.1652  -19.0664  -57.4798 H         1 UNK         0.3000 
    241 H241        0.4890  -18.5949  -56.3867 H         1 UNK         0.0600 
    242 H242       -0.6728  -18.2185  -59.6389 H         1 UNK         0.3800 
    243 H243        0.5514  -17.0779  -60.1278 H         1 UNK         0.3800 
    244 H244       -0.4874  -16.2801  -55.8796 H         1 UNK         0.0800 
    245 H245       -1.9920  -16.8218  -56.5685 H         1 UNK         0.0800 
    246 H246       -1.4110  -15.6463  -53.6511 H         1 UNK         0.0800 
    247 H247        0.0940  -16.5007  -53.4040 H         1 UNK         0.0800 
@<TRIPOS>BOND
     1    1    2 1    
     2    1  127 1    
     3    1  128 1    
     4    1  129 1    
     5    2    3 2    
     6    2    4 am   BACKBONE|DICT|INTERRES
     7    4    5 1    
     8    4  130 1    
     9    5    6 1    
    10    5   65 1    
    11    5  131 1    
    12    6    7 1    
    13    6  132 1    
    14    6  133 1    
    15    7    8 1    
    16    8    9 1    
    17    8  134 1    
    18    8  135 1    
    19    9   10 ar   
    20    9   14 ar   
    21   10   11 ar   
    22   10  136 1    
    23   11   12 ar   
    24   11  126 1    
    25   12   13 ar   
    26   12  137 1    
    27   13   14 ar   
    28   13   15 1    
    29   14  138 1    
    30   15   16 1    
    31   15  139 1    
    32   15  140 1    
    33   16   17 1    
    34   17   18 1    
    35   17  141 1    
    36   17  142 1    
    37   18   19 1    
    38   18   67 1    
    39   18  143 1    
    40   19   20 am   BACKBONE|DICT|INTERRES
    41   19  144 1    
    42   20   21 2    
    43   20   22 1    
    44   22   23 1    
    45   22   24 1    
    46   22  145 1    
    47   23  146 1    
    48   23  147 1    
    49   23  148 1    
    50   24   25 am   BACKBONE|DICT|INTERRES
    51   24  149 1    
    52   25   26 2    
    53   25   27 1    
    54   27   28 1    
    55   27   29 1    
    56   27  150 1    
    57   28  151 1    
    58   28  152 1    
    59   28  153 1    
    60   29   30 am   BACKBONE|DICT|INTERRES
    61   29  154 1    
    62   30   31 2    
    63   30   32 1    
    64   32   33 1    
    65   32   34 1    
    66   32  155 1    
    67   33  156 1    
    68   33  157 1    
    69   33  158 1    
    70   34   35 am   BACKBONE|DICT|INTERRES
    71   34  159 1    
    72   35   36 2    
    73   35   37 1    
    74   37   38 1    
    75   37   39 1    
    76   37  160 1    
    77   38  161 1    
    78   38  162 1    
    79   38  163 1    
    80   39   40 am   BACKBONE|DICT|INTERRES
    81   39  164 1    
    82   40   41 2    
    83   40   42 1    
    84   42   43 1    
    85   42   44 1    
    86   42  165 1    
    87   43  166 1    
    88   43  167 1    
    89   43  168 1    
    90   44   45 am   BACKBONE|DICT|INTERRES
    91   44  169 1    
    92   45   46 2    
    93   45   47 1    
    94   47   48 1    
    95   47   49 1    
    96   47  170 1    
    97   48  171 1    
    98   48  172 1    
    99   48  173 1    
   100   49   50 am   BACKBONE|DICT|INTERRES
   101   49  174 1    
   102   50   51 2    
   103   50   52 1    
   104   52   53 1    
   105   52   54 1    
   106   52  175 1    
   107   53  176 1    
   108   53  177 1    
   109   53  178 1    
   110   54   55 am   BACKBONE|DICT|INTERRES
   111   54  179 1    
   112   55   56 2    
   113   55   57 1    
   114   57   58 1    
   115   57   59 1    
   116   57  180 1    
   117   58  181 1    
   118   58  182 1    
   119   58  183 1    
   120   59   60 am   BACKBONE|DICT|INTERRES
   121   59  184 1    
   122   60   61 2    
   123   60   62 1    
   124   62   63 1    
   125   62   64 1    
   126   62  185 1    
   127   63  186 1    
   128   63  187 1    
   129   63  188 1    
   130   64   65 am   BACKBONE|DICT|INTERRES
   131   64  189 1    
   132   65   66 2    
   133   67   68 2    
   134   67   69 am   BACKBONE|DICT|INTERRES
   135   69   70 1    
   136   69  190 1    
   137   70   71 1    
   138   70   72 1    
   139   70  191 1    
   140   71  192 1    
   141   71  193 1    
   142   71  194 1    
   143   72   73 2    
   144   72   74 am   BACKBONE|DICT|INTERRES
   145   74   75 1    
   146   74  195 1    
   147   75   76 1    
   148   75   77 1    
   149   75  196 1    
   150   76  197 1    
   151   76  198 1    
   152   76  199 1    
   153   77   78 2    
   154   77   79 am   BACKBONE|DICT|INTERRES
   155   79   80 1    
   156   79  200 1    
   157   80   81 1    
   158   80   82 1    
   159   80  201 1    
   160   81  202 1    
   161   81  203 1    
   162   81  204 1    
   163   82   83 2    
   164   82   84 am   BACKBONE|DICT|INTERRES
   165   84   85 1    
   166   84  205 1    
   167   85   86 1    
   168   85   87 1    
   169   85  206 1    
   170   86  207 1    
   171   86  208 1    
   172   86  209 1    
   173   87   88 2    
   174   87   89 am   BACKBONE|DICT|INTERRES
   175   89   90 1    
   176   89  210 1    
   177   90   91 1    
   178   90   92 1    
   179   90  211 1    
   180   91  212 1    
   181   91  213 1    
   182   91  214 1    
   183   92   93 2    
   184   92   94 am   BACKBONE|DICT|INTERRES
   185   94   95 1    
   186   94  215 1    
   187   95   96 1    
   188   95   97 1    
   189   95  216 1    
   190   96  217 1    
   191   96  218 1    
   192   96  219 1    
   193   97   98 2    
   194   97   99 am   BACKBONE|DICT|INTERRES
   195   99  100 1    
   196   99  220 1    
   197  100  101 1    
   198  100  102 1    
   199  100  221 1    
   200  101  222 1    
   201  101  223 1    
   202  101  224 1    
   203  102  103 2    
   204  102  104 am   BACKBONE|DICT|INTERRES
   205  104  105 1    
   206  104  225 1    
   207  105  106 1    
   208  105  107 1    
   209  105  226 1    
   210  106  227 1    
   211  106  228 1    
   212  106  229 1    
   213  107  108 2    
   214  107  109 am   BACKBONE|DICT|INTERRES
   215  109  110 1    
   216  109  230 1    
   217  110  111 1    
   218  110  112 1    
   219  110  231 1    
   220  111  232 1    
   221  111  233 1    
   222  111  234 1    
   223  112  113 2    
   224  112  114 am   BACKBONE|DICT|INTERRES
   225  114  115 1    
   226  114  235 1    
   227  115  116 1    
   228  115  117 1    
   229  115  236 1    
   230  116  237 1    
   231  116  238 1    
   232  116  239 1    
   233  117  118 2    
   234  117  119 am   BACKBONE|DICT|INTERRES
   235  119  120 1    
   236  119  240 1    
   237  120  121 1    
   238  120  124 1    
   239  120  241 1    
   240  121  122 am   BACKBONE|DICT|INTERRES
   241  121  123 2    
   242  122  242 1    
   243  122  243 1    
   244  124  125 1    
   245  124  244 1    
   246  124  245 1    
   247  125  126 1    
   248  126  246 1    
   249  126  247 1    
@<TRIPOS>SUBSTRUCTURE
     1 UNK         1 GROUP             0       ****    0 ROOT    
