@<TRIPOS>MOLECULE
3R540
247   249    1
SMALL
USER_CHARGES


@<TRIPOS>ATOM
      1 CA         -6.8119  -15.0217  -50.8783 C.3       0 UNK        -0.1800 
      2 C          -5.8618  -13.8916  -50.5141 C.2       0 UNK         0.5000 
      3 O          -6.2651  -12.9398  -49.8445 O.2       0 UNK        -0.5000 
      4 N          -4.6064  -13.9877  -50.9669 N.am      1 UNK        -0.5000 
      5 CA         -3.5310  -13.0344  -50.6709 C.3       1 UNK         0.1400 
      6 C6         -2.3036  -13.2072  -51.6029 C.3       23 UNK        -0.0398 
      7 S7         -1.7333  -14.9294  -51.7909 S.3       23 UNK        -0.2404 
      8 C8         -0.2209  -14.9340  -50.7943 C.3       23 UNK        -0.0205 
      9 C9          0.3126  -16.3464  -50.6184 C.ar      23 UNK        -0.0193 
     10 C10         0.9296  -17.0087  -51.6830 C.ar      23 UNK        -0.1150 
     11 C11         1.4657  -18.2886  -51.5082 C.ar      23 UNK        -0.0193 
     12 C12         1.3993  -18.8969  -50.2499 C.ar      23 UNK        -0.1150 
     13 C13         0.7768  -18.2463  -49.1814 C.ar      23 UNK        -0.0193 
     14 C14         0.2164  -16.9826  -49.3796 C.ar      23 UNK        -0.1150 
     15 C15         0.7554  -18.8692  -47.7959 C.3       23 UNK        -0.0205 
     16 S16        -0.7241  -19.8920  -47.5101 S.3       23 UNK        -0.2404 
     17 C17        -0.1691  -21.5209  -48.1156 C.3       23 UNK        -0.0398 
     18 CA         -0.3756  -22.6941  -47.1245 C.3       11 UNK         0.1400 
     19 N           0.3243  -22.5478  -45.8401 N.am      11 UNK        -0.5000 
     20 C           0.5630  -23.5891  -45.0253 C.2       10 UNK         0.5000 
     21 O           0.2287  -24.7444  -45.2889 O.2       10 UNK        -0.5000 
     22 CA          1.2406  -23.3067  -43.6736 C.3       10 UNK         0.1400 
     23 CB          2.7423  -23.0332  -43.8458 C.3       10 UNK        -0.1800 
     24 N           0.6113  -22.2130  -42.9376 N.am      10 UNK        -0.5000 
     25 C          -0.6527  -22.2183  -42.4923 C.2       9 UNK         0.5000 
     26 O          -1.4358  -23.1514  -42.6650 O.2       9 UNK        -0.5000 
     27 CA         -1.1318  -20.9582  -41.7530 C.3       9 UNK         0.1400 
     28 CB         -0.7403  -21.0053  -40.2680 C.3       9 UNK        -0.1800 
     29 N          -0.6018  -19.7422  -42.3659 N.am      9 UNK        -0.5000 
     30 C          -1.0529  -19.2332  -43.5202 C.2       8 UNK         0.5000 
     31 O          -1.9997  -19.7035  -44.1491 O.2       8 UNK        -0.5000 
     32 CA         -0.3092  -18.0047  -44.0742 C.3       8 UNK         0.1400 
     33 CB         -0.8571  -16.7244  -43.4312 C.3       8 UNK        -0.1800 
     34 N           1.1431  -18.0537  -43.8847 N.am      8 UNK        -0.5000 
     35 C           1.9520  -19.0221  -44.3379 C.2       7 UNK         0.5000 
     36 O           1.5710  -19.9876  -44.9985 O.2       7 UNK        -0.5000 
     37 CA          3.4302  -18.9345  -43.9185 C.3       7 UNK         0.1400 
     38 CB          4.1912  -17.9344  -44.8020 C.3       7 UNK        -0.1800 
     39 N           3.6189  -18.5966  -42.5030 N.am      7 UNK        -0.5000 
     40 C           3.1045  -19.2843  -41.4716 C.2       6 UNK         0.5000 
     41 O           2.3706  -20.2620  -41.6107 O.2       6 UNK        -0.5000 
     42 CA          3.4450  -18.8148  -40.0435 C.3       6 UNK         0.1400 
     43 CB          4.2512  -19.8979  -39.3097 C.3       6 UNK        -0.1800 
     44 N           4.2084  -17.5639  -40.0020 N.am      6 UNK        -0.5000 
     45 C           3.7443  -16.3075  -40.0484 C.2       5 UNK         0.5000 
     46 O           4.5167  -15.3494  -39.9937 O.2       5 UNK        -0.5000 
     47 CA          2.2226  -16.0369  -40.1412 C.3       5 UNK         0.1400 
     48 CB          1.6009  -15.9403  -38.7391 C.3       5 UNK        -0.1800 
     49 N           1.9706  -14.7837  -40.8522 N.am      5 UNK        -0.5000 
     50 C           2.1190  -14.6349  -42.1727 C.2       4 UNK         0.5000 
     51 O           2.3164  -15.5791  -42.9425 O.2       4 UNK        -0.5000 
     52 CA          2.0898  -13.1892  -42.7020 C.3       4 UNK         0.1400 
     53 CB          3.4421  -12.5034  -42.4492 C.3       4 UNK        -0.1800 
     54 N           1.8179  -13.1588  -44.1375 N.am      4 UNK        -0.5000 
     55 C           0.5966  -13.2157  -44.6772 C.2       3 UNK         0.5000 
     56 O          -0.4458  -13.1932  -44.0168 O.2       3 UNK        -0.5000 
     57 CA          0.5461  -13.3525  -46.2121 C.3       3 UNK         0.1400 
     58 CB          0.9129  -14.7824  -46.6387 C.3       3 UNK        -0.1800 
     59 N          -0.7739  -13.0143  -46.7487 N.am      3 UNK        -0.5000 
     60 C          -1.2597  -11.7700  -46.8185 C.2       2 UNK         0.5000 
     61 O          -0.5775  -10.7608  -46.6266 O.2       2 UNK        -0.5000 
     62 CA         -2.7545  -11.6404  -47.1662 C.3       2 UNK         0.1400 
     63 CB         -3.3296  -10.2665  -46.7759 C.3       2 UNK        -0.1800 
     64 N          -2.9989  -11.8586  -48.5900 N.am      2 UNK        -0.5000 
     65 C          -3.1481  -13.0540  -49.1732 C.2       1 UNK         0.5000 
     66 O          -3.0116  -14.1255  -48.5770 O.2       1 UNK        -0.5000 
     67 C          -1.8625  -23.0661  -46.9443 C.2       11 UNK         0.5000 
     68 O          -2.3738  -23.8669  -47.7306 O.2       11 UNK        -0.5000 
     69 N          -2.5138  -22.5332  -45.8976 N.am      12 UNK        -0.5000 
     70 CA         -3.8864  -22.8701  -45.5087 C.3       12 UNK         0.1400 
     71 CB         -4.3669  -21.9383  -44.3877 C.3       12 UNK        -0.1800 
     72 C          -4.0481  -24.3455  -45.1067 C.2       12 UNK         0.5000 
     73 O          -5.0075  -24.9872  -45.5351 O.2       12 UNK        -0.5000 
     74 N          -3.0918  -24.8619  -44.3239 N.am      13 UNK        -0.5000 
     75 CA         -3.0174  -26.2677  -43.9303 C.3       13 UNK         0.1400 
     76 CB         -1.9727  -26.4307  -42.8157 C.3       13 UNK        -0.1800 
     77 C          -2.6997  -27.2007  -45.1133 C.2       13 UNK         0.5000 
     78 O          -3.2418  -28.3052  -45.1705 O.2       13 UNK        -0.5000 
     79 N          -1.8296  -26.7462  -46.0266 N.am      14 UNK        -0.5000 
     80 CA         -1.4006  -27.4948  -47.2054 C.3       14 UNK         0.1400 
     81 CB         -0.1766  -26.8175  -47.8420 C.3       14 UNK        -0.1800 
     82 C          -2.5207  -27.6870  -48.2422 C.2       14 UNK         0.5000 
     83 O          -2.7948  -28.8275  -48.6202 O.2       14 UNK        -0.5000 
     84 N          -3.1298  -26.5833  -48.7005 N.am      15 UNK        -0.5000 
     85 CA         -4.0989  -26.6064  -49.8044 C.3       15 UNK         0.1400 
     86 CB         -3.3507  -26.8032  -51.1408 C.3       15 UNK        -0.1800 
     87 C          -5.0082  -25.3672  -49.8970 C.2       15 UNK         0.5000 
     88 O          -5.9406  -25.3890  -50.7014 O.2       15 UNK        -0.5000 
     89 N          -4.7161  -24.3027  -49.1339 N.am      16 UNK        -0.5000 
     90 CA         -5.2833  -22.9529  -49.2640 C.3       16 UNK         0.1400 
     91 CB         -6.7999  -22.9263  -48.9833 C.3       16 UNK        -0.1800 
     92 C          -4.8814  -22.2910  -50.5964 C.2       16 UNK         0.5000 
     93 O          -5.6772  -21.5819  -51.2140 O.2       16 UNK        -0.5000 
     94 N          -3.6222  -22.5254  -50.9975 N.am      17 UNK        -0.5000 
     95 CA         -3.0122  -22.0722  -52.2507 C.3       17 UNK         0.1400 
     96 CB         -1.5965  -22.6563  -52.3476 C.3       17 UNK        -0.1800 
     97 C          -2.9856  -20.5422  -52.4325 C.2       17 UNK         0.5000 
     98 O          -2.9529  -20.0721  -53.5708 O.2       17 UNK        -0.5000 
     99 N          -3.0683  -19.7959  -51.3207 N.am      18 UNK        -0.5000 
    100 CA        -3.2197  -18.3402  -51.2675 C.3       18 UNK         0.1400 
    101 CB        -3.2678  -17.8933  -49.7998 C.3       18 UNK        -0.1800 
    102 C         -4.4603  -17.8097  -52.0145 C.2       18 UNK         0.5000 
    103 O         -4.4408  -16.6674  -52.4708 O.2       18 UNK        -0.5000 
    104 N         -5.4967  -18.6475  -52.1770 N.am      19 UNK        -0.5000 
    105 CA        -6.6936  -18.3514  -52.9703 C.3       19 UNK         0.1400 
    106 CB        -7.7159  -19.4809  -52.7774 C.3       19 UNK        -0.1800 
    107 C         -6.4058  -18.1371  -54.4717 C.2       19 UNK         0.5000 
    108 O         -7.1715  -17.4392  -55.1373 O.2       19 UNK        -0.5000 
    109 N         -5.3091  -18.7243  -54.9681 N.am      20 UNK        -0.5000 
    110 CA        -4.8131  -18.5851  -56.3378 C.3       20 UNK         0.1400 
    111 CB        -4.8017  -19.9805  -56.9866 C.3       20 UNK        -0.1800 
    112 C         -3.4066  -17.9532  -56.3712 C.2       20 UNK         0.5000 
    113 O         -2.7720  -17.9581  -57.4274 O.2       20 UNK        -0.5000 
    114 N         -2.9161  -17.4737  -55.2159 N.am      21 UNK        -0.5000 
    115 CA        -1.5562  -16.9795  -54.9573 C.3       21 UNK         0.1400 
    116 CB        -1.3721  -15.5775  -55.5701 C.3       21 UNK        -0.1800 
    117 C         -0.4474  -17.9739  -55.3728 C.2       21 UNK         0.5000 
    118 O          0.6137  -17.5613  -55.8440 O.2       21 UNK        -0.5000 
    119 N         -0.7396  -19.2710  -55.2134 N.am      22 UNK        -0.5000 
    120 CA         0.0622  -20.4230  -55.6585 C.3       22 UNK         0.1400 
    121 C          0.1839  -20.5782  -57.2069 C.2       22 UNK         0.5000 
    122 N         -0.6091  -19.8867  -58.0179 N.am      22 UNK        -0.7600 
    123 O          0.9908  -21.3684  -57.6897 O.2       22 UNK        -0.5000 
    124 C124        1.4356  -20.5428  -54.9389 C.3       23 UNK        -0.0398 
    125 S125        1.2770  -20.5332  -53.1189 S.3       23 UNK        -0.2404 
    126 C126        2.1435  -18.9956  -52.6715 C.3       23 UNK        -0.0205 
    127 H127       -6.8576  -15.1405  -51.9608 H         1 UNK         0.0600 
    128 H128       -7.8194  -14.8162  -50.5162 H         1 UNK         0.0600 
    129 H129       -6.4752  -15.9596  -50.4367 H         1 UNK         0.0600 
    130 H130       -4.3304  -14.8096  -51.4955 H         1 UNK         0.3000 
    131 H131       -3.9383  -12.0430  -50.8816 H         1 UNK         0.0600 
    132 H132       -2.5709  -12.8573  -52.6008 H         1 UNK         0.0800 
    133 H133       -1.4758  -12.5692  -51.2880 H         1 UNK         0.0800 
    134 H134        0.5352  -14.3131  -51.2767 H         1 UNK         0.0800 
    135 H135       -0.4256  -14.4802  -49.8234 H         1 UNK         0.0800 
    136 H136        0.9964  -16.5204  -52.6452 H         1 UNK         0.1150 
    137 H137        1.8356  -19.8749  -50.1050 H         1 UNK         0.1150 
    138 H138       -0.2806  -16.4861  -48.5597 H         1 UNK         0.1150 
    139 H139        1.6624  -19.4512  -47.6281 H         1 UNK         0.0800 
    140 H140        0.7797  -18.0743  -47.0510 H         1 UNK         0.0800 
    141 H141        0.8879  -21.4700  -48.3767 H         1 UNK         0.0800 
    142 H142       -0.6845  -21.7232  -49.0559 H         1 UNK         0.0800 
    143 H143        0.0785  -23.5576  -47.6147 H         1 UNK         0.0600 
    144 H144        0.6254  -21.6143  -45.5692 H         1 UNK         0.3000 
    145 H145        1.1369  -24.2054  -43.0620 H         1 UNK         0.0600 
    146 H146        3.2238  -22.8512  -42.8848 H         1 UNK         0.0600 
    147 H147        3.2409  -23.8880  -44.3041 H         1 UNK         0.0600 
    148 H148        2.9289  -22.1695  -44.4825 H         1 UNK         0.0600 
    149 H149        1.1967  -21.4125  -42.7220 H         1 UNK         0.3000 
    150 H150       -2.2220  -20.9298  -41.8096 H         1 UNK         0.0600 
    151 H151       -1.1724  -21.8810  -39.7821 H         1 UNK         0.0600 
    152 H152       -1.1042  -20.1262  -39.7361 H         1 UNK         0.0600 
    153 H153        0.3398  -21.0575  -40.1308 H         1 UNK         0.0600 
    154 H154        0.2265  -19.3442  -41.9482 H         1 UNK         0.3000 
    155 H155       -0.5086  -17.9564  -45.1447 H         1 UNK         0.0600 
    156 H156       -0.6466  -16.6855  -42.3617 H         1 UNK         0.0600 
    157 H157       -1.9375  -16.6490  -43.5604 H         1 UNK         0.0600 
    158 H158       -0.4148  -15.8433  -43.8901 H         1 UNK         0.0600 
    159 H159        1.5667  -17.2642  -43.4034 H         1 UNK         0.3000 
    160 H160        3.8710  -19.9209  -44.0743 H         1 UNK         0.0600 
    161 H161        3.8267  -16.9155  -44.6702 H         1 UNK         0.0600 
    162 H162        4.0814  -18.1860  -45.8578 H         1 UNK         0.0600 
    163 H163        5.2576  -17.9407  -44.5765 H         1 UNK         0.0600 
    164 H164        4.1967  -17.7929  -42.3051 H         1 UNK         0.3000 
    165 H165        2.5033  -18.6928  -39.5071 H         1 UNK         0.0600 
    166 H166        4.4546  -19.6077  -38.2787 H         1 UNK         0.0600 
    167 H167        3.7038  -20.8412  -39.2760 H         1 UNK         0.0600 
    168 H168        5.2066  -20.0909  -39.7992 H         1 UNK         0.0600 
    169 H169        5.2084  -17.6842  -39.9323 H         1 UNK         0.3000 
    170 H170        1.7270  -16.8380  -40.6906 H         1 UNK         0.0600 
    171 H171        1.7492  -16.8609  -38.1742 H         1 UNK         0.0600 
    172 H172        2.0417  -15.1285  -38.1590 H         1 UNK         0.0600 
    173 H173        0.5262  -15.7658  -38.7963 H         1 UNK         0.0600 
    174 H174        1.8545  -13.9615  -40.2779 H         1 UNK         0.3000 
    175 H175        1.3120  -12.6365  -42.1707 H         1 UNK         0.0600 
    176 H176        4.2588  -13.0277  -42.9473 H         1 UNK         0.0600 
    177 H177        3.4355  -11.4739  -42.8077 H         1 UNK         0.0600 
    178 H178        3.6757  -12.4734  -41.3841 H         1 UNK         0.0600 
    179 H179        2.6233  -13.2368  -44.7410 H         1 UNK         0.3000 
    180 H180        1.2832  -12.6670  -46.6358 H         1 UNK         0.0600 
    181 H181        0.1386  -15.4989  -46.3626 H         1 UNK         0.0600 
    182 H182        1.8432  -15.1151  -46.1761 H         1 UNK         0.0600 
    183 H183        1.0613  -14.8310  -47.7163 H         1 UNK         0.0600 
    184 H184       -1.4005  -13.7832  -46.9481 H         1 UNK         0.3000 
    185 H185       -3.2944  -12.3944  -46.5888 H         1 UNK         0.0600 
    186 H186       -3.1693  -10.0635  -45.7162 H         1 UNK         0.0600 
    187 H187       -2.8660   -9.4563  -47.3401 H         1 UNK         0.0600 
    188 H188       -4.4045  -10.2255  -46.9536 H         1 UNK         0.0600 
    189 H189       -3.0966  -11.0242  -49.1505 H         1 UNK         0.3000 
    190 H190       -2.0280  -21.8672  -45.3109 H         1 UNK         0.3000 
    191 H191       -4.5328  -22.6991  -46.3671 H         1 UNK         0.0600 
    192 H192       -4.3697  -20.8991  -44.7162 H         1 UNK         0.0600 
    193 H193       -5.3855  -22.1838  -44.0848 H         1 UNK         0.0600 
    194 H194       -3.7359  -22.0092  -43.5025 H         1 UNK         0.0600 
    195 H195       -2.3673  -24.2491  -43.9595 H         1 UNK         0.3000 
    196 H196       -3.9902  -26.5587  -43.5285 H         1 UNK         0.0600 
    197 H197       -1.9031  -27.4701  -42.4927 H         1 UNK         0.0600 
    198 H198       -2.2342  -25.8347  -41.9412 H         1 UNK         0.0600 
    199 H199       -0.9804  -26.1206  -43.1457 H         1 UNK         0.0600 
    200 H200       -1.3734  -25.8552  -45.8618 H         1 UNK         0.3000 
    201 H201       -1.0887  -28.4864  -46.8705 H         1 UNK         0.0600 
    202 H202        0.6532  -26.7599  -47.1376 H         1 UNK         0.0600 
    203 H203       -0.4020  -25.8064  -48.1788 H         1 UNK         0.0600 
    204 H204        0.1730  -27.3800  -48.7086 H         1 UNK         0.0600 
    205 H205       -2.8489  -25.6813  -48.3314 H         1 UNK         0.3000 
    206 H206       -4.7711  -27.4541  -49.6552 H         1 UNK         0.0600 
    207 H207       -2.8120  -27.7502  -51.1661 H         1 UNK         0.0600 
    208 H208       -4.0402  -26.8106  -51.9860 H         1 UNK         0.0600 
    209 H209       -2.6292  -26.0039  -51.3136 H         1 UNK         0.0600 
    210 H210       -3.9192  -24.3540  -48.5060 H         1 UNK         0.3000 
    211 H211       -4.8040  -22.3422  -48.5013 H         1 UNK         0.0600 
    212 H212       -7.3717  -23.4260  -49.7651 H         1 UNK         0.0600 
    213 H213       -7.1645  -21.9002  -48.9237 H         1 UNK         0.0600 
    214 H214       -7.0320  -23.4092  -48.0340 H         1 UNK         0.0600 
    215 H215       -3.0484  -23.1166  -50.4144 H         1 UNK         0.3000 
    216 H216       -3.6080  -22.4818  -53.0687 H         1 UNK         0.0600 
    217 H217       -1.1379  -22.4058  -53.3039 H         1 UNK         0.0600 
    218 H218       -1.6091  -23.7438  -52.2737 H         1 UNK         0.0600 
    219 H219       -0.9467  -22.2718  -51.5605 H         1 UNK         0.0600 
    220 H220       -3.0880  -20.2769  -50.4347 H         1 UNK         0.3000 
    221 H221       -2.3354  -17.9034  -51.7347 H         1 UNK         0.0600 
    222 H222       -4.1258  -18.3159  -49.2758 H         1 UNK         0.0600 
    223 H223       -2.3677  -18.1945  -49.2675 H         1 UNK         0.0600 
    224 H224       -3.3361  -16.8068  -49.7234 H         1 UNK         0.0600 
    225 H225       -5.4423  -19.5807  -51.7821 H         1 UNK         0.3000 
    226 H226       -7.1317  -17.4297  -52.5856 H         1 UNK         0.0600 
    227 H227       -7.9691  -19.6097  -51.7249 H         1 UNK         0.0600 
    228 H228       -8.6424  -19.2660  -53.3113 H         1 UNK         0.0600 
    229 H229       -7.3358  -20.4334  -53.1492 H         1 UNK         0.0600 
    230 H230       -4.7276  -19.2769  -54.3474 H         1 UNK         0.3000 
    231 H231       -5.4657  -17.9355  -56.9239 H         1 UNK         0.0600 
    232 H232       -5.7949  -20.4295  -56.9712 H         1 UNK         0.0600 
    233 H233       -4.1198  -20.6568  -56.4690 H         1 UNK         0.0600 
    234 H234       -4.4871  -19.9298  -58.0297 H         1 UNK         0.0600 
    235 H235       -3.5289  -17.4832  -54.4118 H         1 UNK         0.3000 
    236 H236       -1.4702  -16.8865  -53.8757 H         1 UNK         0.0600 
    237 H237       -0.4114  -15.1479  -55.2843 H         1 UNK         0.0600 
    238 H238       -1.4114  -15.6057  -56.6594 H         1 UNK         0.0600 
    239 H239       -2.1461  -14.8934  -55.2219 H         1 UNK         0.0600 
    240 H240       -1.6243  -19.5073  -54.7716 H         1 UNK         0.3000 
    241 H241       -0.5238  -21.2916  -55.3584 H         1 UNK         0.0600 
    242 H242       -1.2875  -19.2218  -57.6599 H         1 UNK         0.3800 
    243 H243       -0.5203  -20.0119  -59.0136 H         1 UNK         0.3800 
    244 H244        2.1132  -19.7561  -55.2715 H         1 UNK         0.0800 
    245 H245        1.9202  -21.4823  -55.2090 H         1 UNK         0.0800 
    246 H246        3.1749  -19.2296  -52.4051 H         1 UNK         0.0800 
    247 H247        2.1920  -18.3271  -53.5319 H         1 UNK         0.0800 
@<TRIPOS>BOND
     1    1    2 1    
     2    1  127 1    
     3    1  128 1    
     4    1  129 1    
     5    2    3 2    
     6    2    4 am   BACKBONE|DICT|INTERRES
     7    4    5 1    
     8    4  130 1    
     9    5    6 1    
    10    5   65 1    
    11    5  131 1    
    12    6    7 1    
    13    6  132 1    
    14    6  133 1    
    15    7    8 1    
    16    8    9 1    
    17    8  134 1    
    18    8  135 1    
    19    9   10 ar   
    20    9   14 ar   
    21   10   11 ar   
    22   10  136 1    
    23   11   12 ar   
    24   11  126 1    
    25   12   13 ar   
    26   12  137 1    
    27   13   14 ar   
    28   13   15 1    
    29   14  138 1    
    30   15   16 1    
    31   15  139 1    
    32   15  140 1    
    33   16   17 1    
    34   17   18 1    
    35   17  141 1    
    36   17  142 1    
    37   18   19 1    
    38   18   67 1    
    39   18  143 1    
    40   19   20 am   BACKBONE|DICT|INTERRES
    41   19  144 1    
    42   20   21 2    
    43   20   22 1    
    44   22   23 1    
    45   22   24 1    
    46   22  145 1    
    47   23  146 1    
    48   23  147 1    
    49   23  148 1    
    50   24   25 am   BACKBONE|DICT|INTERRES
    51   24  149 1    
    52   25   26 2    
    53   25   27 1    
    54   27   28 1    
    55   27   29 1    
    56   27  150 1    
    57   28  151 1    
    58   28  152 1    
    59   28  153 1    
    60   29   30 am   BACKBONE|DICT|INTERRES
    61   29  154 1    
    62   30   31 2    
    63   30   32 1    
    64   32   33 1    
    65   32   34 1    
    66   32  155 1    
    67   33  156 1    
    68   33  157 1    
    69   33  158 1    
    70   34   35 am   BACKBONE|DICT|INTERRES
    71   34  159 1    
    72   35   36 2    
    73   35   37 1    
    74   37   38 1    
    75   37   39 1    
    76   37  160 1    
    77   38  161 1    
    78   38  162 1    
    79   38  163 1    
    80   39   40 am   BACKBONE|DICT|INTERRES
    81   39  164 1    
    82   40   41 2    
    83   40   42 1    
    84   42   43 1    
    85   42   44 1    
    86   42  165 1    
    87   43  166 1    
    88   43  167 1    
    89   43  168 1    
    90   44   45 am   BACKBONE|DICT|INTERRES
    91   44  169 1    
    92   45   46 2    
    93   45   47 1    
    94   47   48 1    
    95   47   49 1    
    96   47  170 1    
    97   48  171 1    
    98   48  172 1    
    99   48  173 1    
   100   49   50 am   BACKBONE|DICT|INTERRES
   101   49  174 1    
   102   50   51 2    
   103   50   52 1    
   104   52   53 1    
   105   52   54 1    
   106   52  175 1    
   107   53  176 1    
   108   53  177 1    
   109   53  178 1    
   110   54   55 am   BACKBONE|DICT|INTERRES
   111   54  179 1    
   112   55   56 2    
   113   55   57 1    
   114   57   58 1    
   115   57   59 1    
   116   57  180 1    
   117   58  181 1    
   118   58  182 1    
   119   58  183 1    
   120   59   60 am   BACKBONE|DICT|INTERRES
   121   59  184 1    
   122   60   61 2    
   123   60   62 1    
   124   62   63 1    
   125   62   64 1    
   126   62  185 1    
   127   63  186 1    
   128   63  187 1    
   129   63  188 1    
   130   64   65 am   BACKBONE|DICT|INTERRES
   131   64  189 1    
   132   65   66 2    
   133   67   68 2    
   134   67   69 am   BACKBONE|DICT|INTERRES
   135   69   70 1    
   136   69  190 1    
   137   70   71 1    
   138   70   72 1    
   139   70  191 1    
   140   71  192 1    
   141   71  193 1    
   142   71  194 1    
   143   72   73 2    
   144   72   74 am   BACKBONE|DICT|INTERRES
   145   74   75 1    
   146   74  195 1    
   147   75   76 1    
   148   75   77 1    
   149   75  196 1    
   150   76  197 1    
   151   76  198 1    
   152   76  199 1    
   153   77   78 2    
   154   77   79 am   BACKBONE|DICT|INTERRES
   155   79   80 1    
   156   79  200 1    
   157   80   81 1    
   158   80   82 1    
   159   80  201 1    
   160   81  202 1    
   161   81  203 1    
   162   81  204 1    
   163   82   83 2    
   164   82   84 am   BACKBONE|DICT|INTERRES
   165   84   85 1    
   166   84  205 1    
   167   85   86 1    
   168   85   87 1    
   169   85  206 1    
   170   86  207 1    
   171   86  208 1    
   172   86  209 1    
   173   87   88 2    
   174   87   89 am   BACKBONE|DICT|INTERRES
   175   89   90 1    
   176   89  210 1    
   177   90   91 1    
   178   90   92 1    
   179   90  211 1    
   180   91  212 1    
   181   91  213 1    
   182   91  214 1    
   183   92   93 2    
   184   92   94 am   BACKBONE|DICT|INTERRES
   185   94   95 1    
   186   94  215 1    
   187   95   96 1    
   188   95   97 1    
   189   95  216 1    
   190   96  217 1    
   191   96  218 1    
   192   96  219 1    
   193   97   98 2    
   194   97   99 am   BACKBONE|DICT|INTERRES
   195   99  100 1    
   196   99  220 1    
   197  100  101 1    
   198  100  102 1    
   199  100  221 1    
   200  101  222 1    
   201  101  223 1    
   202  101  224 1    
   203  102  103 2    
   204  102  104 am   BACKBONE|DICT|INTERRES
   205  104  105 1    
   206  104  225 1    
   207  105  106 1    
   208  105  107 1    
   209  105  226 1    
   210  106  227 1    
   211  106  228 1    
   212  106  229 1    
   213  107  108 2    
   214  107  109 am   BACKBONE|DICT|INTERRES
   215  109  110 1    
   216  109  230 1    
   217  110  111 1    
   218  110  112 1    
   219  110  231 1    
   220  111  232 1    
   221  111  233 1    
   222  111  234 1    
   223  112  113 2    
   224  112  114 am   BACKBONE|DICT|INTERRES
   225  114  115 1    
   226  114  235 1    
   227  115  116 1    
   228  115  117 1    
   229  115  236 1    
   230  116  237 1    
   231  116  238 1    
   232  116  239 1    
   233  117  118 2    
   234  117  119 am   BACKBONE|DICT|INTERRES
   235  119  120 1    
   236  119  240 1    
   237  120  121 1    
   238  120  124 1    
   239  120  241 1    
   240  121  122 am   BACKBONE|DICT|INTERRES
   241  121  123 2    
   242  122  242 1    
   243  122  243 1    
   244  124  125 1    
   245  124  244 1    
   246  124  245 1    
   247  125  126 1    
   248  126  246 1    
   249  126  247 1    
@<TRIPOS>SUBSTRUCTURE
     1 UNK         1 GROUP             0       ****    0 ROOT    
