@<TRIPOS>MOLECULE
3R540
247   249    1
SMALL
USER_CHARGES


@<TRIPOS>ATOM
      1 CA          0.8233   -9.2727  -48.4922 C.3       0 UNK        -0.1800 
      2 C           0.5860  -10.7331  -48.1390 C.2       0 UNK         0.5000 
      3 O           0.8366  -11.1315  -47.0016 O.2       0 UNK        -0.5000 
      4 N           0.0901  -11.5234  -49.1034 N.am      1 UNK        -0.5000 
      5 CA         -0.1912  -12.9644  -49.0042 C.3       1 UNK         0.1400 
      6 C6         -0.7859  -13.4998  -50.3359 C.3       23 UNK        -0.0398 
      7 S7         -1.2843  -15.2600  -50.3243 S.3       23 UNK        -0.2404 
      8 C8         -3.0936  -15.0819  -50.2371 C.3       23 UNK        -0.0205 
      9 C9         -3.7733  -16.4027  -49.9219 C.ar      23 UNK        -0.0193 
     10 C10        -4.3203  -17.1808  -50.9455 C.ar      23 UNK        -0.1150 
     11 C11        -4.9687  -18.3836  -50.6548 C.ar      23 UNK        -0.0193 
     12 C12        -5.0608  -18.8082  -49.3254 C.ar      23 UNK        -0.1150 
     13 C13        -4.5262  -18.0351  -48.2884 C.ar      23 UNK        -0.0193 
     14 C14        -3.8852  -16.8305  -48.5962 C.ar      23 UNK        -0.1150 
     15 C15        -4.6976  -18.4848  -46.8414 C.3       23 UNK        -0.0205 
     16 S16        -3.1536  -18.4113  -45.8738 S.3       23 UNK        -0.2404 
     17 C17        -3.5280  -19.6165  -44.5629 C.3       23 UNK        -0.0398 
     18 CA         -3.0238  -21.0208  -44.9717 C.3       11 UNK         0.1400 
     19 N          -1.5692  -21.1628  -44.8177 N.am      11 UNK        -0.5000 
     20 C          -0.8185  -22.1573  -45.3150 C.2       10 UNK         0.5000 
     21 O          -1.2750  -23.0846  -45.9854 O.2       10 UNK        -0.5000 
     22 CA          0.6748  -22.1511  -44.9521 C.3       10 UNK         0.1400 
     23 CB          1.4938  -21.4201  -46.0242 C.3       10 UNK        -0.1800 
     24 N           0.9146  -21.5219  -43.6569 N.am      10 UNK        -0.5000 
     25 C           0.6310  -22.0640  -42.4656 C.2       9 UNK         0.5000 
     26 O           0.1470  -23.1890  -42.3345 O.2       9 UNK        -0.5000 
     27 CA          0.8979  -21.1845  -41.2246 C.3       9 UNK         0.1400 
     28 CB          1.2757  -22.0083  -39.9766 C.3       9 UNK        -0.1800 
     29 N           1.8689  -20.1108  -41.4703 N.am      9 UNK        -0.5000 
     30 C           3.1701  -20.2324  -41.7802 C.2       8 UNK         0.5000 
     31 O           3.7649  -21.3093  -41.8313 O.2       8 UNK        -0.5000 
     32 CA          3.9366  -18.9406  -42.1354 C.3       8 UNK         0.1400 
     33 CB          4.2597  -18.9186  -43.6380 C.3       8 UNK        -0.1800 
     34 N           3.2128  -17.7138  -41.7947 N.am      8 UNK        -0.5000 
     35 C           3.0401  -17.2467  -40.5508 C.2       7 UNK         0.5000 
     36 O           3.5363  -17.7650  -39.5501 O.2       7 UNK        -0.5000 
     37 CA          2.1226  -16.0197  -40.3968 C.3       7 UNK         0.1400 
     38 CB          2.9170  -14.7217  -40.6062 C.3       7 UNK        -0.1800 
     39 N           0.9738  -16.0422  -41.3071 N.am      7 UNK        -0.5000 
     40 C          -0.0059  -16.9584  -41.2890 C.2       6 UNK         0.5000 
     41 O          -0.0521  -17.8934  -40.4903 O.2       6 UNK        -0.5000 
     42 CA         -1.0843  -16.8477  -42.3800 C.3       6 UNK         0.1400 
     43 CB         -2.0815  -15.7218  -42.0737 C.3       6 UNK        -0.1800 
     44 N          -0.4885  -16.6423  -43.6976 N.am      6 UNK        -0.5000 
     45 C           0.1529  -17.5946  -44.3885 C.2       5 UNK         0.5000 
     46 O           0.2172  -18.7703  -44.0267 O.2       5 UNK        -0.5000 
     47 CA          0.8811  -17.1595  -45.6733 C.3       5 UNK         0.1400 
     48 CB          0.0458  -17.4554  -46.9275 C.3       5 UNK        -0.1800 
     49 N           1.2570  -15.7448  -45.6524 N.am      5 UNK        -0.5000 
     50 C           2.2606  -15.2583  -44.9103 C.2       4 UNK         0.5000 
     51 O           2.9420  -15.9496  -44.1528 O.2       4 UNK        -0.5000 
     52 CA          2.5348  -13.7486  -45.0046 C.3       4 UNK         0.1400 
     53 CB          3.2243  -13.4027  -46.3331 C.3       4 UNK        -0.1800 
     54 N           1.3435  -12.9153  -44.8439 N.am      4 UNK        -0.5000 
     55 C           0.5841  -12.8596  -43.7410 C.2       3 UNK         0.5000 
     56 O           0.7309  -13.6025  -42.7720 O.2       3 UNK        -0.5000 
     57 CA         -0.5288  -11.8009  -43.7185 C.3       3 UNK         0.1400 
     58 CB          0.0590  -10.3874  -43.5808 C.3       3 UNK        -0.1800 
     59 N          -1.3304  -11.8795  -44.9347 N.am      3 UNK        -0.5000 
     60 C          -2.4616  -12.5880  -45.0478 C.2       2 UNK         0.5000 
     61 O          -3.0167  -13.1465  -44.1020 O.2       2 UNK        -0.5000 
     62 CA         -3.0798  -12.7099  -46.4555 C.3       2 UNK         0.1400 
     63 CB         -4.2298  -11.7068  -46.6294 C.3       2 UNK        -0.1800 
     64 N          -2.1243  -12.5297  -47.5510 N.am      2 UNK        -0.5000 
     65 C          -1.0664  -13.3201  -47.7821 C.2       1 UNK         0.5000 
     66 O          -0.7433  -14.2616  -47.0587 O.2       1 UNK        -0.5000 
     67 C          -3.8552  -22.1449  -44.3138 C.2       11 UNK         0.5000 
     68 O          -5.0575  -22.2152  -44.5676 O.2       11 UNK        -0.5000 
     69 N          -3.2138  -23.0502  -43.5606 N.am      12 UNK        -0.5000 
     70 CA         -3.7919  -24.3226  -43.1226 C.3       12 UNK         0.1400 
     71 CB         -2.8170  -25.0044  -42.1513 C.3       12 UNK        -0.1800 
     72 C          -4.1355  -25.2689  -44.2959 C.2       12 UNK         0.5000 
     73 O          -5.0425  -26.0902  -44.1563 O.2       12 UNK        -0.5000 
     74 N          -3.4250  -25.1291  -45.4258 N.am      13 UNK        -0.5000 
     75 CA         -3.6411  -25.8929  -46.6577 C.3       13 UNK         0.1400 
     76 CB         -2.5909  -27.0163  -46.7345 C.3       13 UNK        -0.1800 
     77 C          -3.5986  -24.9976  -47.9126 C.2       13 UNK         0.5000 
     78 O          -3.4971  -25.5226  -49.0219 O.2       13 UNK        -0.5000 
     79 N          -3.6179  -23.6672  -47.7316 N.am      14 UNK        -0.5000 
     80 CA         -3.4378  -22.6318  -48.7621 C.3       14 UNK         0.1400 
     81 CB         -4.6763  -22.5697  -49.6767 C.3       14 UNK        -0.1800 
     82 C          -2.1100  -22.7819  -49.5410 C.2       14 UNK         0.5000 
     83 O          -2.0726  -22.5706  -50.7547 O.2       14 UNK        -0.5000 
     84 N          -1.0524  -23.1921  -48.8235 N.am      15 UNK        -0.5000 
     85 CA          0.2742  -23.5790  -49.3221 C.3       15 UNK         0.1400 
     86 CB          1.0198  -22.3646  -49.9120 C.3       15 UNK        -0.1800 
     87 C           0.2184  -24.7757  -50.2982 C.2       15 UNK         0.5000 
     88 O           0.9597  -24.8031  -51.2803 O.2       15 UNK        -0.5000 
     89 N          -0.6797  -25.7300  -50.0088 N.am      16 UNK        -0.5000 
     90 CA         -1.0866  -26.8592  -50.8533 C.3       16 UNK         0.1400 
     91 CB          0.0909  -27.8144  -51.1426 C.3       16 UNK        -0.1800 
     92 C          -1.8218  -26.3725  -52.1197 C.2       16 UNK         0.5000 
     93 O          -1.5187  -26.8188  -53.2276 O.2       16 UNK        -0.5000 
     94 N          -2.7739  -25.4505  -51.9066 N.am      17 UNK        -0.5000 
     95 CA         -3.5915  -24.7487  -52.9011 C.3       17 UNK         0.1400 
     96 CB         -4.6318  -25.7070  -53.5150 C.3       17 UNK        -0.1800 
     97 C          -2.7429  -24.0133  -53.9590 C.2       17 UNK         0.5000 
     98 O          -2.9092  -24.2436  -55.1583 O.2       17 UNK        -0.5000 
     99 N          -1.8290  -23.1553  -53.4899 N.am      18 UNK        -0.5000 
    100 CA        -0.8545  -22.4654  -54.3340 C.3       18 UNK         0.1400 
    101 CB         0.3754  -23.3676  -54.5402 C.3       18 UNK        -0.1800 
    102 C         -0.4352  -21.0764  -53.8222 C.2       18 UNK         0.5000 
    103 O          0.2764  -20.3938  -54.5601 O.2       18 UNK        -0.5000 
    104 N         -0.8683  -20.6597  -52.6186 N.am      19 UNK        -0.5000 
    105 CA        -0.4193  -19.4399  -51.9219 C.3       19 UNK         0.1400 
    106 CB        -1.1836  -19.2788  -50.5977 C.3       19 UNK        -0.1800 
    107 C         -0.4779  -18.1419  -52.7540 C.2       19 UNK         0.5000 
    108 O          0.4630  -17.3485  -52.7031 O.2       19 UNK        -0.5000 
    109 N         -1.5369  -17.9930  -53.5571 N.am      20 UNK        -0.5000 
    110 CA        -1.6442  -16.9868  -54.6133 C.3       20 UNK         0.1400 
    111 CB        -2.4407  -15.7689  -54.1111 C.3       20 UNK        -0.1800 
    112 C         -2.2517  -17.6314  -55.8705 C.2       20 UNK         0.5000 
    113 O         -3.1414  -17.0464  -56.4901 O.2       20 UNK        -0.5000 
    114 N         -1.7815  -18.8476  -56.1998 N.am      21 UNK        -0.5000 
    115 CA        -2.2876  -19.7289  -57.2635 C.3       21 UNK         0.1400 
    116 CB        -1.9697  -19.1466  -58.6565 C.3       21 UNK        -0.1800 
    117 C         -3.7836  -20.0611  -57.0649 C.2       21 UNK         0.5000 
    118 O         -4.5927  -19.8897  -57.9787 O.2       21 UNK        -0.5000 
    119 N         -4.1093  -20.4664  -55.8312 N.am      22 UNK        -0.5000 
    120 CA        -5.4601  -20.6814  -55.2936 C.3       22 UNK         0.1400 
    121 C         -6.3295  -21.6723  -56.1188 C.2       22 UNK         0.5000 
    122 N         -7.6129  -21.3857  -56.2911 N.am      22 UNK        -0.7600 
    123 O         -5.8645  -22.7205  -56.5591 O.2       22 UNK        -0.5000 
    124 C124       -5.4000  -21.1380  -53.8132 C.3       23 UNK        -0.0398 
    125 S125       -4.3464  -20.0787  -52.7591 S.3       23 UNK        -0.2404 
    126 C126       -5.5984  -19.2030  -51.7725 C.3       23 UNK        -0.0205 
    127 H127        0.5480   -9.0536  -49.5240 H         1 UNK         0.0600 
    128 H128        0.2347   -8.6296  -47.8380 H         1 UNK         0.0600 
    129 H129        1.8760   -9.0230  -48.3598 H         1 UNK         0.0600 
    130 H130       -0.0904  -11.1118  -50.0081 H         1 UNK         0.3000 
    131 H131        0.7694  -13.4600  -48.8525 H         1 UNK         0.0600 
    132 H132       -0.0499  -13.3786  -51.1318 H         1 UNK         0.0800 
    133 H133       -1.6416  -12.8928  -50.6364 H         1 UNK         0.0800 
    134 H134       -3.4625  -14.6805  -51.1822 H         1 UNK         0.0800 
    135 H135       -3.3590  -14.3532  -49.4704 H         1 UNK         0.0800 
    136 H136       -4.2498  -16.8502  -51.9701 H         1 UNK         0.1150 
    137 H137       -5.5718  -19.7324  -49.0963 H         1 UNK         0.1150 
    138 H138       -3.4739  -16.2218  -47.8029 H         1 UNK         0.1150 
    139 H139       -5.4486  -17.8566  -46.3608 H         1 UNK         0.0800 
    140 H140       -5.0846  -19.5048  -46.8156 H         1 UNK         0.0800 
    141 H141       -3.0633  -19.2937  -43.6309 H         1 UNK         0.0800 
    142 H142       -4.6047  -19.5977  -44.3822 H         1 UNK         0.0800 
    143 H143       -3.2255  -21.1404  -46.0361 H         1 UNK         0.0600 
    144 H144       -1.0935  -20.4191  -44.3188 H         1 UNK         0.3000 
    145 H145        1.0145  -23.1878  -44.9042 H         1 UNK         0.0600 
    146 H146        2.5544  -21.4104  -45.7719 H         1 UNK         0.0600 
    147 H147        1.3960  -21.9157  -46.9887 H         1 UNK         0.0600 
    148 H148        1.1700  -20.3866  -46.1484 H         1 UNK         0.0600 
    149 H149        1.1976  -20.5492  -43.6761 H         1 UNK         0.3000 
    150 H150       -0.0473  -20.6843  -41.0099 H         1 UNK         0.0600 
    151 H151        0.4709  -22.6906  -39.7009 H         1 UNK         0.0600 
    152 H152        1.4588  -21.3613  -39.1187 H         1 UNK         0.0600 
    153 H153        2.1694  -22.6105  -40.1412 H         1 UNK         0.0600 
    154 H154        1.4810  -19.1763  -41.4368 H         1 UNK         0.3000 
    155 H155        4.8775  -18.9533  -41.5817 H         1 UNK         0.0600 
    156 H156        4.8406  -19.7947  -43.9291 H         1 UNK         0.0600 
    157 H157        4.8463  -18.0388  -43.9032 H         1 UNK         0.0600 
    158 H158        3.3521  -18.9115  -44.2423 H         1 UNK         0.0600 
    159 H159        2.8399  -17.1763  -42.5717 H         1 UNK         0.3000 
    160 H160        1.7369  -16.0219  -39.3753 H         1 UNK         0.0600 
    161 H161        3.2915  -14.6403  -41.6274 H         1 UNK         0.0600 
    162 H162        2.2994  -13.8459  -40.4065 H         1 UNK         0.0600 
    163 H163        3.7754  -14.6743  -39.9350 H         1 UNK         0.0600 
    164 H164        0.9186  -15.2760  -41.9745 H         1 UNK         0.3000 
    165 H165       -1.6389  -17.7878  -42.3948 H         1 UNK         0.0600 
    166 H166       -2.8803  -15.6950  -42.8152 H         1 UNK         0.0600 
    167 H167       -2.5476  -15.8684  -41.0988 H         1 UNK         0.0600 
    168 H168       -1.6028  -14.7426  -42.0645 H         1 UNK         0.0600 
    169 H169       -0.4764  -15.6987  -44.0560 H         1 UNK         0.3000 
    170 H170        1.7938  -17.7543  -45.7423 H         1 UNK         0.0600 
    171 H171       -0.2289  -18.5096  -46.9787 H         1 UNK         0.0600 
    172 H172       -0.8774  -16.8767  -46.9433 H         1 UNK         0.0600 
    173 H173        0.5991  -17.2189  -47.8364 H         1 UNK         0.0600 
    174 H174        0.6810  -15.1129  -46.2051 H         1 UNK         0.3000 
    175 H175        3.2210  -13.4923  -44.1948 H         1 UNK         0.0600 
    176 H176        2.5731  -13.5947  -47.1861 H         1 UNK         0.0600 
    177 H177        3.5132  -12.3520  -46.3647 H         1 UNK         0.0600 
    178 H178        4.1306  -13.9940  -46.4701 H         1 UNK         0.0600 
    179 H179        1.1432  -12.2729  -45.6074 H         1 UNK         0.3000 
    180 H180       -1.1526  -11.9874  -42.8416 H         1 UNK         0.0600 
    181 H181        0.6683  -10.3054  -42.6798 H         1 UNK         0.0600 
    182 H182        0.6904  -10.1221  -44.4295 H         1 UNK         0.0600 
    183 H183       -0.7314   -9.6403  -43.5077 H         1 UNK         0.0600 
    184 H184       -0.9144  -11.4941  -45.7732 H         1 UNK         0.3000 
    185 H185       -3.4900  -13.7186  -46.5402 H         1 UNK         0.0600 
    186 H186       -4.9786  -11.8308  -45.8458 H         1 UNK         0.0600 
    187 H187       -3.8744  -10.6766  -46.5839 H         1 UNK         0.0600 
    188 H188       -4.7358  -11.8475  -47.5847 H         1 UNK         0.0600 
    189 H189       -2.2911  -11.7522  -48.1730 H         1 UNK         0.3000 
    190 H190       -2.2247  -22.9276  -43.3939 H         1 UNK         0.3000 
    191 H191       -4.7187  -24.1077  -42.5867 H         1 UNK         0.0600 
    192 H192       -3.2316  -25.9396  -41.7728 H         1 UNK         0.0600 
    193 H193       -2.6078  -24.3694  -41.2901 H         1 UNK         0.0600 
    194 H194       -1.8666  -25.2373  -42.6336 H         1 UNK         0.0600 
    195 H195       -2.6657  -24.4557  -45.4489 H         1 UNK         0.3000 
    196 H196       -4.6337  -26.3472  -46.6492 H         1 UNK         0.0600 
    197 H197       -2.7417  -27.6427  -47.6146 H         1 UNK         0.0600 
    198 H198       -2.6498  -27.6688  -45.8632 H         1 UNK         0.0600 
    199 H199       -1.5779  -26.6148  -46.7832 H         1 UNK         0.0600 
    200 H200       -3.7114  -23.3347  -46.7846 H         1 UNK         0.3000 
    201 H201       -3.3671  -21.6727  -48.2496 H         1 UNK         0.0600 
    202 H202       -5.5760  -22.3538  -49.1008 H         1 UNK         0.0600 
    203 H203       -4.8406  -23.5069  -50.2063 H         1 UNK         0.0600 
    204 H204       -4.5752  -21.7823  -50.4217 H         1 UNK         0.0600 
    205 H205       -1.1874  -23.3025  -47.8210 H         1 UNK         0.3000 
    206 H206        0.8357  -23.9207  -48.4516 H         1 UNK         0.0600 
    207 H207        0.9628  -21.4966  -49.2565 H         1 UNK         0.0600 
    208 H208        2.0757  -22.5930  -50.0599 H         1 UNK         0.0600 
    209 H209        0.6148  -22.0800  -50.8809 H         1 UNK         0.0600 
    210 H210       -1.2737  -25.5767  -49.2058 H         1 UNK         0.3000 
    211 H211       -1.8211  -27.4211  -50.2744 H         1 UNK         0.0600 
    212 H212        0.8393  -27.3601  -51.7920 H         1 UNK         0.0600 
    213 H213       -0.2597  -28.7198  -51.6389 H         1 UNK         0.0600 
    214 H214        0.5859  -28.1202  -50.2210 H         1 UNK         0.0600 
    215 H215       -2.9540  -25.1963  -50.9407 H         1 UNK         0.3000 
    216 H216       -4.1376  -23.9751  -52.3621 H         1 UNK         0.0600 
    217 H217       -5.2515  -26.1617  -52.7421 H         1 UNK         0.0600 
    218 H218       -4.1586  -26.5098  -54.0812 H         1 UNK         0.0600 
    219 H219       -5.2986  -25.1748  -54.1948 H         1 UNK         0.0600 
    220 H220       -1.7644  -23.0181  -52.4830 H         1 UNK         0.3000 
    221 H221       -1.3050  -22.2852  -55.3118 H         1 UNK         0.0600 
    222 H222        0.8969  -23.5487  -53.6007 H         1 UNK         0.0600 
    223 H223        0.0956  -24.3345  -54.9589 H         1 UNK         0.0600 
    224 H224        1.0888  -22.9123  -55.2282 H         1 UNK         0.0600 
    225 H225       -1.4651  -21.2715  -52.0718 H         1 UNK         0.3000 
    226 H226        0.6320  -19.5970  -51.6731 H         1 UNK         0.0600 
    227 H227       -0.9473  -20.0820  -49.9023 H         1 UNK         0.0600 
    228 H228       -0.9254  -18.3426  -50.1011 H         1 UNK         0.0600 
    229 H229       -2.2611  -19.2791  -50.7525 H         1 UNK         0.0600 
    230 H230       -2.2716  -18.6864  -53.5183 H         1 UNK         0.3000 
    231 H231       -0.6480  -16.6452  -54.9018 H         1 UNK         0.0600 
    232 H232       -2.0028  -15.3579  -53.2030 H         1 UNK         0.0600 
    233 H233       -2.4433  -14.9725  -54.8559 H         1 UNK         0.0600 
    234 H234       -3.4793  -16.0247  -53.9050 H         1 UNK         0.0600 
    235 H235       -1.0238  -19.2266  -55.6400 H         1 UNK         0.3000 
    236 H236       -1.7463  -20.6716  -57.1731 H         1 UNK         0.0600 
    237 H237       -0.9037  -18.9476  -58.7656 H         1 UNK         0.0600 
    238 H238       -2.2513  -19.8465  -59.4440 H         1 UNK         0.0600 
    239 H239       -2.5050  -18.2149  -58.8417 H         1 UNK         0.0600 
    240 H240       -3.3703  -20.5668  -55.1548 H         1 UNK         0.3000 
    241 H241       -5.9507  -19.7066  -55.3208 H         1 UNK         0.0600 
    242 H242       -8.1910  -22.0284  -56.8104 H         1 UNK         0.3800 
    243 H243       -8.0211  -20.5355  -55.9336 H         1 UNK         0.3800 
    244 H244       -6.4055  -21.1835  -53.3917 H         1 UNK         0.0800 
    245 H245       -5.0092  -22.1532  -53.7507 H         1 UNK         0.0800 
    246 H246       -6.1778  -18.5479  -52.4247 H         1 UNK         0.0800 
    247 H247       -6.3013  -19.9255  -51.3551 H         1 UNK         0.0800 
@<TRIPOS>BOND
     1    1    2 1    
     2    1  127 1    
     3    1  128 1    
     4    1  129 1    
     5    2    3 2    
     6    2    4 am   BACKBONE|DICT|INTERRES
     7    4    5 1    
     8    4  130 1    
     9    5    6 1    
    10    5   65 1    
    11    5  131 1    
    12    6    7 1    
    13    6  132 1    
    14    6  133 1    
    15    7    8 1    
    16    8    9 1    
    17    8  134 1    
    18    8  135 1    
    19    9   10 ar   
    20    9   14 ar   
    21   10   11 ar   
    22   10  136 1    
    23   11   12 ar   
    24   11  126 1    
    25   12   13 ar   
    26   12  137 1    
    27   13   14 ar   
    28   13   15 1    
    29   14  138 1    
    30   15   16 1    
    31   15  139 1    
    32   15  140 1    
    33   16   17 1    
    34   17   18 1    
    35   17  141 1    
    36   17  142 1    
    37   18   19 1    
    38   18   67 1    
    39   18  143 1    
    40   19   20 am   BACKBONE|DICT|INTERRES
    41   19  144 1    
    42   20   21 2    
    43   20   22 1    
    44   22   23 1    
    45   22   24 1    
    46   22  145 1    
    47   23  146 1    
    48   23  147 1    
    49   23  148 1    
    50   24   25 am   BACKBONE|DICT|INTERRES
    51   24  149 1    
    52   25   26 2    
    53   25   27 1    
    54   27   28 1    
    55   27   29 1    
    56   27  150 1    
    57   28  151 1    
    58   28  152 1    
    59   28  153 1    
    60   29   30 am   BACKBONE|DICT|INTERRES
    61   29  154 1    
    62   30   31 2    
    63   30   32 1    
    64   32   33 1    
    65   32   34 1    
    66   32  155 1    
    67   33  156 1    
    68   33  157 1    
    69   33  158 1    
    70   34   35 am   BACKBONE|DICT|INTERRES
    71   34  159 1    
    72   35   36 2    
    73   35   37 1    
    74   37   38 1    
    75   37   39 1    
    76   37  160 1    
    77   38  161 1    
    78   38  162 1    
    79   38  163 1    
    80   39   40 am   BACKBONE|DICT|INTERRES
    81   39  164 1    
    82   40   41 2    
    83   40   42 1    
    84   42   43 1    
    85   42   44 1    
    86   42  165 1    
    87   43  166 1    
    88   43  167 1    
    89   43  168 1    
    90   44   45 am   BACKBONE|DICT|INTERRES
    91   44  169 1    
    92   45   46 2    
    93   45   47 1    
    94   47   48 1    
    95   47   49 1    
    96   47  170 1    
    97   48  171 1    
    98   48  172 1    
    99   48  173 1    
   100   49   50 am   BACKBONE|DICT|INTERRES
   101   49  174 1    
   102   50   51 2    
   103   50   52 1    
   104   52   53 1    
   105   52   54 1    
   106   52  175 1    
   107   53  176 1    
   108   53  177 1    
   109   53  178 1    
   110   54   55 am   BACKBONE|DICT|INTERRES
   111   54  179 1    
   112   55   56 2    
   113   55   57 1    
   114   57   58 1    
   115   57   59 1    
   116   57  180 1    
   117   58  181 1    
   118   58  182 1    
   119   58  183 1    
   120   59   60 am   BACKBONE|DICT|INTERRES
   121   59  184 1    
   122   60   61 2    
   123   60   62 1    
   124   62   63 1    
   125   62   64 1    
   126   62  185 1    
   127   63  186 1    
   128   63  187 1    
   129   63  188 1    
   130   64   65 am   BACKBONE|DICT|INTERRES
   131   64  189 1    
   132   65   66 2    
   133   67   68 2    
   134   67   69 am   BACKBONE|DICT|INTERRES
   135   69   70 1    
   136   69  190 1    
   137   70   71 1    
   138   70   72 1    
   139   70  191 1    
   140   71  192 1    
   141   71  193 1    
   142   71  194 1    
   143   72   73 2    
   144   72   74 am   BACKBONE|DICT|INTERRES
   145   74   75 1    
   146   74  195 1    
   147   75   76 1    
   148   75   77 1    
   149   75  196 1    
   150   76  197 1    
   151   76  198 1    
   152   76  199 1    
   153   77   78 2    
   154   77   79 am   BACKBONE|DICT|INTERRES
   155   79   80 1    
   156   79  200 1    
   157   80   81 1    
   158   80   82 1    
   159   80  201 1    
   160   81  202 1    
   161   81  203 1    
   162   81  204 1    
   163   82   83 2    
   164   82   84 am   BACKBONE|DICT|INTERRES
   165   84   85 1    
   166   84  205 1    
   167   85   86 1    
   168   85   87 1    
   169   85  206 1    
   170   86  207 1    
   171   86  208 1    
   172   86  209 1    
   173   87   88 2    
   174   87   89 am   BACKBONE|DICT|INTERRES
   175   89   90 1    
   176   89  210 1    
   177   90   91 1    
   178   90   92 1    
   179   90  211 1    
   180   91  212 1    
   181   91  213 1    
   182   91  214 1    
   183   92   93 2    
   184   92   94 am   BACKBONE|DICT|INTERRES
   185   94   95 1    
   186   94  215 1    
   187   95   96 1    
   188   95   97 1    
   189   95  216 1    
   190   96  217 1    
   191   96  218 1    
   192   96  219 1    
   193   97   98 2    
   194   97   99 am   BACKBONE|DICT|INTERRES
   195   99  100 1    
   196   99  220 1    
   197  100  101 1    
   198  100  102 1    
   199  100  221 1    
   200  101  222 1    
   201  101  223 1    
   202  101  224 1    
   203  102  103 2    
   204  102  104 am   BACKBONE|DICT|INTERRES
   205  104  105 1    
   206  104  225 1    
   207  105  106 1    
   208  105  107 1    
   209  105  226 1    
   210  106  227 1    
   211  106  228 1    
   212  106  229 1    
   213  107  108 2    
   214  107  109 am   BACKBONE|DICT|INTERRES
   215  109  110 1    
   216  109  230 1    
   217  110  111 1    
   218  110  112 1    
   219  110  231 1    
   220  111  232 1    
   221  111  233 1    
   222  111  234 1    
   223  112  113 2    
   224  112  114 am   BACKBONE|DICT|INTERRES
   225  114  115 1    
   226  114  235 1    
   227  115  116 1    
   228  115  117 1    
   229  115  236 1    
   230  116  237 1    
   231  116  238 1    
   232  116  239 1    
   233  117  118 2    
   234  117  119 am   BACKBONE|DICT|INTERRES
   235  119  120 1    
   236  119  240 1    
   237  120  121 1    
   238  120  124 1    
   239  120  241 1    
   240  121  122 am   BACKBONE|DICT|INTERRES
   241  121  123 2    
   242  122  242 1    
   243  122  243 1    
   244  124  125 1    
   245  124  244 1    
   246  124  245 1    
   247  125  126 1    
   248  126  246 1    
   249  126  247 1    
@<TRIPOS>SUBSTRUCTURE
     1 UNK         1 GROUP             0       ****    0 ROOT    
