@<TRIPOS>MOLECULE
3R540
247   249    1
SMALL
USER_CHARGES


@<TRIPOS>ATOM
      1 CA         -2.4903   -9.5195  -45.7470 C.3       0 UNK        -0.1800 
      2 C          -2.6841  -10.4815  -46.9109 C.2       0 UNK         0.5000 
      3 O          -2.8939  -10.0408  -48.0417 O.2       0 UNK        -0.5000 
      4 N          -2.6250  -11.7900  -46.6365 N.am      1 UNK        -0.5000 
      5 CA         -2.7361  -12.8620  -47.6312 C.3       1 UNK         0.1400 
      6 C6         -2.9952  -14.2389  -46.9739 C.3       23 UNK        -0.0398 
      7 S7         -4.5304  -14.2964  -45.9901 S.3       23 UNK        -0.2404 
      8 C8         -4.2384  -15.7813  -44.9752 C.3       23 UNK        -0.0205 
      9 C9         -4.3664  -17.0638  -45.7854 C.ar      23 UNK        -0.0193 
     10 C10        -3.2862  -17.5326  -46.5374 C.ar      23 UNK        -0.1150 
     11 C11        -3.4025  -18.6966  -47.2983 C.ar      23 UNK        -0.0193 
     12 C12        -4.6035  -19.4080  -47.2843 C.ar      23 UNK        -0.1150 
     13 C13        -5.6819  -18.9778  -46.5055 C.ar      23 UNK        -0.0193 
     14 C14        -5.5596  -17.7934  -45.7713 C.ar      23 UNK        -0.1150 
     15 C15        -6.9875  -19.7686  -46.4548 C.3       23 UNK        -0.0205 
     16 S16        -6.7738  -21.5854  -46.4422 S.3       23 UNK        -0.2404 
     17 C17        -5.8057  -21.8666  -44.9192 C.3       23 UNK        -0.0398 
     18 CA         -4.3832  -22.4270  -45.1881 C.3       11 UNK         0.1400 
     19 N          -3.4859  -22.1254  -44.0644 N.am      11 UNK        -0.5000 
     20 C          -2.1886  -22.4440  -43.9683 C.2       10 UNK         0.5000 
     21 O          -1.5948  -23.1603  -44.7749 O.2       10 UNK        -0.5000 
     22 CA         -1.4210  -21.8214  -42.7866 C.3       10 UNK         0.1400 
     23 CB         -0.4090  -22.8047  -42.1770 C.3       10 UNK        -0.1800 
     24 N          -0.7098  -20.6266  -43.2301 N.am      10 UNK        -0.5000 
     25 C          -1.2918  -19.4893  -43.6327 C.2       9 UNK         0.5000 
     26 O          -2.4963  -19.2680  -43.5039 O.2       9 UNK        -0.5000 
     27 CA         -0.3978  -18.4169  -44.2873 C.3       9 UNK         0.1400 
     28 CB         -0.4467  -17.1011  -43.4955 C.3       9 UNK        -0.1800 
     29 N           1.0008  -18.8133  -44.4658 N.am      9 UNK        -0.5000 
     30 C           1.4596  -19.6944  -45.3663 C.2       8 UNK         0.5000 
     31 O           0.7392  -20.2971  -46.1593 O.2       8 UNK        -0.5000 
     32 CA          2.9775  -19.9531  -45.3757 C.3       8 UNK         0.1400 
     33 CB          3.6846  -19.0812  -46.4253 C.3       8 UNK        -0.1800 
     34 N           3.5922  -19.7187  -44.0691 N.am      8 UNK        -0.5000 
     35 C           3.5262  -20.5710  -43.0376 C.2       7 UNK         0.5000 
     36 O           2.9630  -21.6643  -43.0873 O.2       7 UNK        -0.5000 
     37 CA          4.1848  -20.1096  -41.7247 C.3       7 UNK         0.1400 
     38 CB          5.6896  -20.4186  -41.7356 C.3       7 UNK        -0.1800 
     39 N           3.9861  -18.6815  -41.4698 N.am      7 UNK        -0.5000 
     40 C           2.8105  -18.1326  -41.1341 C.2       6 UNK         0.5000 
     41 O           1.7739  -18.7777  -40.9778 O.2       6 UNK        -0.5000 
     42 CA          2.7822  -16.6019  -40.9630 C.3       6 UNK         0.1400 
     43 CB          3.1078  -16.2190  -39.5113 C.3       6 UNK        -0.1800 
     44 N           3.6827  -15.8770  -41.8658 N.am      6 UNK        -0.5000 
     45 C           3.5869  -15.8712  -43.2012 C.2       5 UNK         0.5000 
     46 O           2.7914  -16.5653  -43.8381 O.2       5 UNK        -0.5000 
     47 CA          4.5543  -14.9559  -43.9577 C.3       5 UNK         0.1400 
     48 CB          5.7980  -15.7390  -44.4139 C.3       5 UNK        -0.1800 
     49 N           3.8501  -14.4079  -45.1114 N.am      5 UNK        -0.5000 
     50 C           4.1839  -13.3010  -45.7855 C.2       4 UNK         0.5000 
     51 O           5.1484  -12.5969  -45.4806 O.2       4 UNK        -0.5000 
     52 CA          3.2891  -12.8878  -46.9806 C.3       4 UNK         0.1400 
     53 CB          4.1103  -12.2988  -48.1462 C.3       4 UNK        -0.1800 
     54 N           2.3818  -13.9318  -47.4766 N.am      4 UNK        -0.5000 
     55 C           2.7151  -15.1315  -47.9795 C.2       3 UNK         0.5000 
     56 O           3.8687  -15.5495  -48.0776 O.2       3 UNK        -0.5000 
     57 CA          1.5466  -16.0274  -48.4299 C.3       3 UNK         0.1400 
     58 CB          0.9139  -16.6953  -47.2001 C.3       3 UNK        -0.1800 
     59 N           0.4941  -15.3188  -49.1560 N.am      3 UNK        -0.5000 
     60 C           0.6461  -14.5520  -50.2443 C.2       2 UNK         0.5000 
     61 O           1.7081  -14.4214  -50.8534 O.2       2 UNK        -0.5000 
     62 CA         -0.6002  -13.7756  -50.7220 C.3       2 UNK         0.1400 
     63 CB         -1.2457  -14.4980  -51.9134 C.3       2 UNK        -0.1800 
     64 N          -1.6342  -13.5587  -49.7006 N.am      2 UNK        -0.5000 
     65 C          -1.4758  -12.9403  -48.5209 C.2       1 UNK         0.5000 
     66 O          -0.3940  -12.5103  -48.1094 O.2       1 UNK        -0.5000 
     67 C          -4.4215  -23.9225  -45.5831 C.2       11 UNK         0.5000 
     68 O          -4.5088  -24.2374  -46.7699 O.2       11 UNK        -0.5000 
     69 N          -4.3191  -24.8124  -44.5859 N.am      12 UNK        -0.5000 
     70 CA         -4.2886  -26.2641  -44.7702 C.3       12 UNK         0.1400 
     71 CB         -4.6371  -26.9380  -43.4339 C.3       12 UNK        -0.1800 
     72 C          -2.9419  -26.7966  -45.3024 C.2       12 UNK         0.5000 
     73 O          -2.9225  -27.8702  -45.9059 O.2       12 UNK        -0.5000 
     74 N          -1.8459  -26.0652  -45.0574 N.am      13 UNK        -0.5000 
     75 CA         -0.4928  -26.4320  -45.4827 C.3       13 UNK         0.1400 
     76 CB          0.5086  -25.9851  -44.4065 C.3       13 UNK        -0.1800 
     77 C          -0.1253  -25.8118  -46.8422 C.2       13 UNK         0.5000 
     78 O           0.6914  -26.3840  -47.5657 O.2       13 UNK        -0.5000 
     79 N          -0.7198  -24.6533  -47.1561 N.am      14 UNK        -0.5000 
     80 CA         -0.5460  -23.9066  -48.4003 C.3       14 UNK         0.1400 
     81 CB         -1.3413  -22.6018  -48.2910 C.3       14 UNK        -0.1800 
     82 C          -0.9900  -24.6917  -49.6491 C.2       14 UNK         0.5000 
     83 O          -1.8946  -25.5271  -49.5707 O.2       14 UNK        -0.5000 
     84 N          -0.3655  -24.3836  -50.7911 N.am      15 UNK        -0.5000 
     85 CA         -0.6372  -25.0169  -52.0787 C.3       15 UNK         0.1400 
     86 CB          0.5886  -24.8459  -52.9917 C.3       15 UNK        -0.1800 
     87 C          -1.9179  -24.4398  -52.7070 C.2       15 UNK         0.5000 
     88 O          -1.8527  -23.4335  -53.4110 O.2       15 UNK        -0.5000 
     89 N          -3.0568  -25.0823  -52.4119 N.am      16 UNK        -0.5000 
     90 CA         -4.4074  -24.7729  -52.9020 C.3       16 UNK         0.1400 
     91 CB         -4.5092  -25.0042  -54.4246 C.3       16 UNK        -0.1800 
     92 C          -4.9534  -23.4001  -52.4460 C.2       16 UNK         0.5000 
     93 O          -5.8136  -22.8259  -53.1167 O.2       16 UNK        -0.5000 
     94 N          -4.4789  -22.9381  -51.2791 N.am      17 UNK        -0.5000 
     95 CA         -4.8921  -21.7320  -50.5539 C.3       17 UNK         0.1400 
     96 CB         -6.3602  -21.8670  -50.0936 C.3       17 UNK        -0.1800 
     97 C          -4.6373  -20.4101  -51.3121 C.2       17 UNK         0.5000 
     98 O          -3.9884  -20.3933  -52.3606 O.2       17 UNK        -0.5000 
     99 N          -5.1411  -19.3010  -50.7518 N.am      18 UNK        -0.5000 
    100 CA        -4.9817  -17.9370  -51.2680 C.3       18 UNK         0.1400 
    101 CB        -5.5623  -16.9432  -50.2511 C.3       18 UNK        -0.1800 
    102 C         -5.5871  -17.7158  -52.6680 C.2       18 UNK         0.5000 
    103 O         -5.1280  -16.8301  -53.3890 O.2       18 UNK        -0.5000 
    104 N         -6.5507  -18.5628  -53.0576 N.am      19 UNK        -0.5000 
    105 CA        -7.1219  -18.6376  -54.4050 C.3       19 UNK         0.1400 
    106 CB        -8.2850  -19.6410  -54.3941 C.3       19 UNK        -0.1800 
    107 C         -6.0931  -19.0195  -55.4913 C.2       19 UNK         0.5000 
    108 O         -6.2624  -18.6270  -56.6460 O.2       19 UNK        -0.5000 
    109 N         -5.0390  -19.7462  -55.0980 N.am      20 UNK        -0.5000 
    110 CA        -3.8937  -20.1159  -55.9294 C.3       20 UNK         0.1400 
    111 CB        -3.7197  -21.6396  -55.8581 C.3       20 UNK        -0.1800 
    112 C         -2.6187  -19.3721  -55.4785 C.2       20 UNK         0.5000 
    113 O         -1.5097  -19.8366  -55.7486 O.2       20 UNK        -0.5000 
    114 N         -2.7944  -18.2363  -54.7841 N.am      21 UNK        -0.5000 
    115 CA        -1.7586  -17.3636  -54.2207 C.3       21 UNK         0.1400 
    116 CB        -0.9379  -16.6923  -55.3416 C.3       21 UNK        -0.1800 
    117 C         -0.8743  -18.0505  -53.1562 C.2       21 UNK         0.5000 
    118 O          0.2761  -17.6536  -52.9689 O.2       21 UNK        -0.5000 
    119 N         -1.4317  -19.0617  -52.4768 N.am      22 UNK        -0.5000 
    120 CA        -0.8087  -19.8739  -51.4178 C.3       22 UNK         0.1400 
    121 C          0.2977  -20.8589  -51.9014 C.2       22 UNK         0.5000 
    122 N          0.5858  -20.9598  -53.1930 N.am      22 UNK        -0.7600 
    123 O          0.8692  -21.5880  -51.0939 O.2       22 UNK        -0.5000 
    124 C124       -0.3689  -19.0419  -50.1790 C.3       23 UNK        -0.0398 
    125 S125       -1.7455  -18.0876  -49.4466 S.3       23 UNK        -0.2404 
    126 C126       -2.2223  -19.2110  -48.1018 C.3       23 UNK        -0.0205 
    127 H127       -2.3287  -10.0477  -44.8069 H         1 UNK         0.0600 
    128 H128       -3.3693   -8.8851  -45.6336 H         1 UNK         0.0600 
    129 H129       -1.6272   -8.8793  -45.9297 H         1 UNK         0.0600 
    130 H130       -2.4438  -12.0899  -45.6899 H         1 UNK         0.3000 
    131 H131       -3.5848  -12.6288  -48.2782 H         1 UNK         0.0600 
    132 H132       -2.1544  -14.5169  -46.3354 H         1 UNK         0.0800 
    133 H133       -3.0767  -15.0120  -47.7399 H         1 UNK         0.0800 
    134 H134       -3.2531  -15.7245  -44.5125 H         1 UNK         0.0800 
    135 H135       -4.9557  -15.7886  -44.1532 H         1 UNK         0.0800 
    136 H136       -2.3536  -16.9886  -46.5403 H         1 UNK         0.1150 
    137 H137       -4.6906  -20.3167  -47.8584 H         1 UNK         0.1150 
    138 H138       -6.3930  -17.4398  -45.1806 H         1 UNK         0.1150 
    139 H139       -7.5681  -19.4864  -45.5751 H         1 UNK         0.0800 
    140 H140       -7.5901  -19.4948  -47.3214 H         1 UNK         0.0800 
    141 H141       -6.3699  -22.5277  -44.2590 H         1 UNK         0.0800 
    142 H142       -5.7365  -20.9163  -44.3879 H         1 UNK         0.0800 
    143 H143       -3.9609  -21.8930  -46.0411 H         1 UNK         0.0600 
    144 H144       -3.8554  -21.4862  -43.3747 H         1 UNK         0.3000 
    145 H145       -2.1333  -21.5414  -42.0079 H         1 UNK         0.0600 
    146 H146       -0.8897  -23.7431  -41.8980 H         1 UNK         0.0600 
    147 H147        0.3958  -23.0387  -42.8743 H         1 UNK         0.0600 
    148 H148        0.0462  -22.3900  -41.2773 H         1 UNK         0.0600 
    149 H149        0.2836  -20.7258  -43.3809 H         1 UNK         0.3000 
    150 H150       -0.8150  -18.2294  -45.2762 H         1 UNK         0.0600 
    151 H151       -1.4726  -16.7613  -43.3552 H         1 UNK         0.0600 
    152 H152        0.0884  -16.3060  -44.0144 H         1 UNK         0.0600 
    153 H153       -0.0058  -17.2167  -42.5060 H         1 UNK         0.0600 
    154 H154        1.6787  -18.3069  -43.9082 H         1 UNK         0.3000 
    155 H155        3.1252  -20.9990  -45.6537 H         1 UNK         0.0600 
    156 H156        3.6940  -18.0291  -46.1404 H         1 UNK         0.0600 
    157 H157        3.1955  -19.1574  -47.3975 H         1 UNK         0.0600 
    158 H158        4.7201  -19.3944  -46.5583 H         1 UNK         0.0600 
    159 H159        4.0361  -18.8228  -43.9308 H         1 UNK         0.3000 
    160 H160        3.7279  -20.6719  -40.9073 H         1 UNK         0.0600 
    161 H161        6.2103  -19.8673  -42.5197 H         1 UNK         0.0600 
    162 H162        5.8681  -21.4810  -41.9073 H         1 UNK         0.0600 
    163 H163        6.1514  -20.1629  -40.7818 H         1 UNK         0.0600 
    164 H164        4.7896  -18.0787  -41.5691 H         1 UNK         0.3000 
    165 H165        1.7653  -16.2686  -41.1782 H         1 UNK         0.0600 
    166 H166        2.9923  -15.1470  -39.3502 H         1 UNK         0.0600 
    167 H167        2.4380  -16.7243  -38.8141 H         1 UNK         0.0600 
    168 H168        4.1288  -16.4919  -39.2419 H         1 UNK         0.0600 
    169 H169        4.3777  -15.2918  -41.4247 H         1 UNK         0.3000 
    170 H170        4.8557  -14.1388  -43.2989 H         1 UNK         0.0600 
    171 H171        6.3156  -16.1848  -43.5638 H         1 UNK         0.0600 
    172 H172        5.5346  -16.5446  -45.1006 H         1 UNK         0.0600 
    173 H173        6.5107  -15.0894  -44.9220 H         1 UNK         0.0600 
    174 H174        3.0327  -14.9341  -45.3902 H         1 UNK         0.3000 
    175 H175        2.6435  -12.0934  -46.6036 H         1 UNK         0.0600 
    176 H176        4.8296  -13.0188  -48.5375 H         1 UNK         0.0600 
    177 H177        3.4627  -11.9921  -48.9679 H         1 UNK         0.0600 
    178 H178        4.6690  -11.4173  -47.8297 H         1 UNK         0.0600 
    179 H179        1.4008  -13.6765  -47.4824 H         1 UNK         0.3000 
    180 H180        1.9539  -16.8009  -49.0837 H         1 UNK         0.0600 
    181 H181        0.2475  -16.0184  -46.6646 H         1 UNK         0.0600 
    182 H182        1.6741  -17.0123  -46.4895 H         1 UNK         0.0600 
    183 H183        0.3452  -17.5802  -47.4786 H         1 UNK         0.0600 
    184 H184       -0.4335  -15.3863  -48.7683 H         1 UNK         0.3000 
    185 H185       -0.2586  -12.7940  -51.0560 H         1 UNK         0.0600 
    186 H186       -0.5164  -14.6807  -52.7037 H         1 UNK         0.0600 
    187 H187       -1.6559  -15.4631  -51.6135 H         1 UNK         0.0600 
    188 H188       -2.0529  -13.9080  -52.3477 H         1 UNK         0.0600 
    189 H189       -2.5567  -13.8856  -49.9487 H         1 UNK         0.3000 
    190 H190       -4.2381  -24.4712  -43.6392 H         1 UNK         0.3000 
    191 H191       -5.0578  -26.5359  -45.4965 H         1 UNK         0.0600 
    192 H192       -5.6216  -26.6301  -43.0812 H         1 UNK         0.0600 
    193 H193       -4.6556  -28.0239  -43.5366 H         1 UNK         0.0600 
    194 H194       -3.9098  -26.6944  -42.6584 H         1 UNK         0.0600 
    195 H195       -1.9465  -25.1552  -44.6234 H         1 UNK         0.3000 
    196 H196       -0.4171  -27.5172  -45.5789 H         1 UNK         0.0600 
    197 H197        1.5193  -26.3091  -44.6574 H         1 UNK         0.0600 
    198 H198        0.2618  -26.4101  -43.4335 H         1 UNK         0.0600 
    199 H199        0.5302  -24.9003  -44.3052 H         1 UNK         0.0600 
    200 H200       -1.3241  -24.2294  -46.4618 H         1 UNK         0.3000 
    201 H201        0.5144  -23.6651  -48.4985 H         1 UNK         0.0600 
    202 H202       -1.0061  -22.0066  -47.4412 H         1 UNK         0.0600 
    203 H203       -1.2082  -21.9979  -49.1874 H         1 UNK         0.0600 
    204 H204       -2.4088  -22.7900  -48.1692 H         1 UNK         0.0600 
    205 H205        0.2955  -23.6138  -50.8041 H         1 UNK         0.3000 
    206 H206       -0.7805  -26.0891  -51.9262 H         1 UNK         0.0600 
    207 H207        1.4669  -25.3308  -52.5654 H         1 UNK         0.0600 
    208 H208        0.8325  -23.7962  -53.1517 H         1 UNK         0.0600 
    209 H209        0.4112  -25.2945  -53.9699 H         1 UNK         0.0600 
    210 H210       -2.9997  -25.8558  -51.7617 H         1 UNK         0.3000 
    211 H211       -5.0639  -25.5046  -52.4293 H         1 UNK         0.0600 
    212 H212       -3.8577  -24.3347  -54.9838 H         1 UNK         0.0600 
    213 H213       -5.5270  -24.8471  -54.7833 H         1 UNK         0.0600 
    214 H214       -4.2325  -26.0262  -54.6831 H         1 UNK         0.0600 
    215 H215       -3.7602  -23.4900  -50.8340 H         1 UNK         0.3000 
    216 H216       -4.2622  -21.6992  -49.6651 H         1 UNK         0.0600 
    217 H217       -6.6496  -21.0634  -49.4172 H         1 UNK         0.0600 
    218 H218       -6.5158  -22.8018  -49.5545 H         1 UNK         0.0600 
    219 H219       -7.0541  -21.8481  -50.9345 H         1 UNK         0.0600 
    220 H220       -5.6626  -19.3832  -49.8920 H         1 UNK         0.3000 
    221 H221       -3.9125  -17.7407  -51.3587 H         1 UNK         0.0600 
    222 H222       -6.6256  -17.1156  -50.0811 H         1 UNK         0.0600 
    223 H223       -5.0514  -17.0185  -49.2906 H         1 UNK         0.0600 
    224 H224       -5.4458  -15.9154  -50.5973 H         1 UNK         0.0600 
    225 H225       -6.8565  -19.2658  -52.4014 H         1 UNK         0.3000 
    226 H226       -7.5175  -17.6515  -54.6568 H         1 UNK         0.0600 
    227 H227       -9.0582  -19.3427  -53.6858 H         1 UNK         0.0600 
    228 H228       -8.7538  -19.7070  -55.3768 H         1 UNK         0.0600 
    229 H229       -7.9477  -20.6427  -54.1230 H         1 UNK         0.0600 
    230 H230       -4.9674  -20.0235  -54.1237 H         1 UNK         0.3000 
    231 H231       -4.0688  -19.8418  -56.9712 H         1 UNK         0.0600 
    232 H232       -4.6247  -22.1560  -56.1783 H         1 UNK         0.0600 
    233 H233       -3.4970  -21.9562  -54.8394 H         1 UNK         0.0600 
    234 H234       -2.9050  -21.9809  -56.4975 H         1 UNK         0.0600 
    235 H235       -3.7455  -17.9386  -54.6015 H         1 UNK         0.3000 
    236 H236       -2.2973  -16.5744  -53.6962 H         1 UNK         0.0600 
    237 H237       -0.2728  -15.9284  -54.9376 H         1 UNK         0.0600 
    238 H238       -0.3187  -17.4122  -55.8774 H         1 UNK         0.0600 
    239 H239       -1.5878  -16.2024  -56.0666 H         1 UNK         0.0600 
    240 H240       -2.3726  -19.3544  -52.7205 H         1 UNK         0.3000 
    241 H241       -1.6051  -20.5365  -51.0816 H         1 UNK         0.0600 
    242 H242        1.2900  -21.6113  -53.4964 H         1 UNK         0.3800 
    243 H243        0.0736  -20.4186  -53.8742 H         1 UNK         0.3800 
    244 H244        0.0590  -19.6872  -49.4097 H         1 UNK         0.0800 
    245 H245        0.4245  -18.3444  -50.4484 H         1 UNK         0.0800 
    246 H246       -2.4716  -20.1735  -48.5423 H         1 UNK         0.0800 
    247 H247       -1.3770  -19.3753  -47.4341 H         1 UNK         0.0800 
@<TRIPOS>BOND
     1    1    2 1    
     2    1  127 1    
     3    1  128 1    
     4    1  129 1    
     5    2    3 2    
     6    2    4 am   BACKBONE|DICT|INTERRES
     7    4    5 1    
     8    4  130 1    
     9    5    6 1    
    10    5   65 1    
    11    5  131 1    
    12    6    7 1    
    13    6  132 1    
    14    6  133 1    
    15    7    8 1    
    16    8    9 1    
    17    8  134 1    
    18    8  135 1    
    19    9   10 ar   
    20    9   14 ar   
    21   10   11 ar   
    22   10  136 1    
    23   11   12 ar   
    24   11  126 1    
    25   12   13 ar   
    26   12  137 1    
    27   13   14 ar   
    28   13   15 1    
    29   14  138 1    
    30   15   16 1    
    31   15  139 1    
    32   15  140 1    
    33   16   17 1    
    34   17   18 1    
    35   17  141 1    
    36   17  142 1    
    37   18   19 1    
    38   18   67 1    
    39   18  143 1    
    40   19   20 am   BACKBONE|DICT|INTERRES
    41   19  144 1    
    42   20   21 2    
    43   20   22 1    
    44   22   23 1    
    45   22   24 1    
    46   22  145 1    
    47   23  146 1    
    48   23  147 1    
    49   23  148 1    
    50   24   25 am   BACKBONE|DICT|INTERRES
    51   24  149 1    
    52   25   26 2    
    53   25   27 1    
    54   27   28 1    
    55   27   29 1    
    56   27  150 1    
    57   28  151 1    
    58   28  152 1    
    59   28  153 1    
    60   29   30 am   BACKBONE|DICT|INTERRES
    61   29  154 1    
    62   30   31 2    
    63   30   32 1    
    64   32   33 1    
    65   32   34 1    
    66   32  155 1    
    67   33  156 1    
    68   33  157 1    
    69   33  158 1    
    70   34   35 am   BACKBONE|DICT|INTERRES
    71   34  159 1    
    72   35   36 2    
    73   35   37 1    
    74   37   38 1    
    75   37   39 1    
    76   37  160 1    
    77   38  161 1    
    78   38  162 1    
    79   38  163 1    
    80   39   40 am   BACKBONE|DICT|INTERRES
    81   39  164 1    
    82   40   41 2    
    83   40   42 1    
    84   42   43 1    
    85   42   44 1    
    86   42  165 1    
    87   43  166 1    
    88   43  167 1    
    89   43  168 1    
    90   44   45 am   BACKBONE|DICT|INTERRES
    91   44  169 1    
    92   45   46 2    
    93   45   47 1    
    94   47   48 1    
    95   47   49 1    
    96   47  170 1    
    97   48  171 1    
    98   48  172 1    
    99   48  173 1    
   100   49   50 am   BACKBONE|DICT|INTERRES
   101   49  174 1    
   102   50   51 2    
   103   50   52 1    
   104   52   53 1    
   105   52   54 1    
   106   52  175 1    
   107   53  176 1    
   108   53  177 1    
   109   53  178 1    
   110   54   55 am   BACKBONE|DICT|INTERRES
   111   54  179 1    
   112   55   56 2    
   113   55   57 1    
   114   57   58 1    
   115   57   59 1    
   116   57  180 1    
   117   58  181 1    
   118   58  182 1    
   119   58  183 1    
   120   59   60 am   BACKBONE|DICT|INTERRES
   121   59  184 1    
   122   60   61 2    
   123   60   62 1    
   124   62   63 1    
   125   62   64 1    
   126   62  185 1    
   127   63  186 1    
   128   63  187 1    
   129   63  188 1    
   130   64   65 am   BACKBONE|DICT|INTERRES
   131   64  189 1    
   132   65   66 2    
   133   67   68 2    
   134   67   69 am   BACKBONE|DICT|INTERRES
   135   69   70 1    
   136   69  190 1    
   137   70   71 1    
   138   70   72 1    
   139   70  191 1    
   140   71  192 1    
   141   71  193 1    
   142   71  194 1    
   143   72   73 2    
   144   72   74 am   BACKBONE|DICT|INTERRES
   145   74   75 1    
   146   74  195 1    
   147   75   76 1    
   148   75   77 1    
   149   75  196 1    
   150   76  197 1    
   151   76  198 1    
   152   76  199 1    
   153   77   78 2    
   154   77   79 am   BACKBONE|DICT|INTERRES
   155   79   80 1    
   156   79  200 1    
   157   80   81 1    
   158   80   82 1    
   159   80  201 1    
   160   81  202 1    
   161   81  203 1    
   162   81  204 1    
   163   82   83 2    
   164   82   84 am   BACKBONE|DICT|INTERRES
   165   84   85 1    
   166   84  205 1    
   167   85   86 1    
   168   85   87 1    
   169   85  206 1    
   170   86  207 1    
   171   86  208 1    
   172   86  209 1    
   173   87   88 2    
   174   87   89 am   BACKBONE|DICT|INTERRES
   175   89   90 1    
   176   89  210 1    
   177   90   91 1    
   178   90   92 1    
   179   90  211 1    
   180   91  212 1    
   181   91  213 1    
   182   91  214 1    
   183   92   93 2    
   184   92   94 am   BACKBONE|DICT|INTERRES
   185   94   95 1    
   186   94  215 1    
   187   95   96 1    
   188   95   97 1    
   189   95  216 1    
   190   96  217 1    
   191   96  218 1    
   192   96  219 1    
   193   97   98 2    
   194   97   99 am   BACKBONE|DICT|INTERRES
   195   99  100 1    
   196   99  220 1    
   197  100  101 1    
   198  100  102 1    
   199  100  221 1    
   200  101  222 1    
   201  101  223 1    
   202  101  224 1    
   203  102  103 2    
   204  102  104 am   BACKBONE|DICT|INTERRES
   205  104  105 1    
   206  104  225 1    
   207  105  106 1    
   208  105  107 1    
   209  105  226 1    
   210  106  227 1    
   211  106  228 1    
   212  106  229 1    
   213  107  108 2    
   214  107  109 am   BACKBONE|DICT|INTERRES
   215  109  110 1    
   216  109  230 1    
   217  110  111 1    
   218  110  112 1    
   219  110  231 1    
   220  111  232 1    
   221  111  233 1    
   222  111  234 1    
   223  112  113 2    
   224  112  114 am   BACKBONE|DICT|INTERRES
   225  114  115 1    
   226  114  235 1    
   227  115  116 1    
   228  115  117 1    
   229  115  236 1    
   230  116  237 1    
   231  116  238 1    
   232  116  239 1    
   233  117  118 2    
   234  117  119 am   BACKBONE|DICT|INTERRES
   235  119  120 1    
   236  119  240 1    
   237  120  121 1    
   238  120  124 1    
   239  120  241 1    
   240  121  122 am   BACKBONE|DICT|INTERRES
   241  121  123 2    
   242  122  242 1    
   243  122  243 1    
   244  124  125 1    
   245  124  244 1    
   246  124  245 1    
   247  125  126 1    
   248  126  246 1    
   249  126  247 1    
@<TRIPOS>SUBSTRUCTURE
     1 UNK         1 GROUP             0       ****    0 ROOT    
