@<TRIPOS>MOLECULE
3R540
247   249    1
SMALL
USER_CHARGES


@<TRIPOS>ATOM
      1 CA          5.1313   -8.6136  -49.1130 C.3       0 UNK        -0.1800 
      2 C           4.3983   -9.8946  -48.7407 C.2       0 UNK         0.5000 
      3 O           3.2958   -9.8308  -48.1992 O.2       0 UNK        -0.5000 
      4 N           5.0080  -11.0526  -49.0313 N.am      1 UNK        -0.5000 
      5 CA          4.4924  -12.4009  -48.7479 C.3       1 UNK         0.1400 
      6 C6          3.1505  -12.7049  -49.4761 C.3       23 UNK        -0.0398 
      7 S7          3.0495  -14.4096  -50.1186 S.3       23 UNK        -0.2404 
      8 C8          1.7940  -15.1648  -49.0364 C.3       23 UNK        -0.0205 
      9 C9          1.3553  -16.5085  -49.5949 C.ar      23 UNK        -0.0193 
     10 C10         0.1919  -16.6038  -50.3648 C.ar      23 UNK        -0.1150 
     11 C11        -0.1885  -17.8264  -50.9253 C.ar      23 UNK        -0.0193 
     12 C12         0.5983  -18.9596  -50.7036 C.ar      23 UNK        -0.1150 
     13 C13         1.7682  -18.8743  -49.9449 C.ar      23 UNK        -0.0193 
     14 C14         2.1348  -17.6492  -49.3800 C.ar      23 UNK        -0.1150 
     15 C15         2.6593  -20.0953  -49.7786 C.3       23 UNK        -0.0205 
     16 S16         2.3777  -20.9353  -48.1945 S.3       23 UNK        -0.2404 
     17 C17         0.6670  -21.5298  -48.4037 C.3       23 UNK        -0.0398 
     18 CA          0.3357  -22.6430  -47.3874 C.3       11 UNK         0.1400 
     19 N           0.3099  -22.1508  -46.0081 N.am      11 UNK        -0.5000 
     20 C           0.2513  -22.9339  -44.9236 C.2       10 UNK         0.5000 
     21 O           0.2740  -24.1634  -44.9697 O.2       10 UNK        -0.5000 
     22 CA          0.0764  -22.2279  -43.5671 C.3       10 UNK         0.1400 
     23 CB          1.4234  -21.7234  -43.0290 C.3       10 UNK        -0.1800 
     24 N          -0.8825  -21.1228  -43.6360 N.am      10 UNK        -0.5000 
     25 C          -2.1881  -21.2782  -43.8998 C.2       9 UNK         0.5000 
     26 O          -2.7235  -22.3765  -44.0500 O.2       9 UNK        -0.5000 
     27 CA         -3.0326  -20.0011  -44.0644 C.3       9 UNK         0.1400 
     28 CB         -3.4477  -19.4454  -42.6947 C.3       9 UNK        -0.1800 
     29 N          -2.3536  -18.9615  -44.8408 N.am      9 UNK        -0.5000 
     30 C          -2.0167  -19.0779  -46.1344 C.2       8 UNK         0.5000 
     31 O          -2.2889  -20.0605  -46.8220 O.2       8 UNK        -0.5000 
     32 CA         -1.1893  -17.9350  -46.7532 C.3       8 UNK         0.1400 
     33 CB         -2.0920  -16.7762  -47.1992 C.3       8 UNK        -0.1800 
     34 N          -0.1585  -17.4307  -45.8477 N.am      8 UNK        -0.5000 
     35 C           0.8486  -18.1680  -45.3600 C.2       7 UNK         0.5000 
     36 O           1.0273  -19.3521  -45.6372 O.2       7 UNK        -0.5000 
     37 CA          1.7582  -17.4901  -44.3245 C.3       7 UNK         0.1400 
     38 CB          2.7178  -16.4868  -44.9844 C.3       7 UNK        -0.1800 
     39 N           0.9726  -16.8248  -43.2860 N.am      7 UNK        -0.5000 
     40 C           0.2400  -17.4661  -42.3642 C.2       6 UNK         0.5000 
     41 O           0.1845  -18.6913  -42.2659 O.2       6 UNK        -0.5000 
     42 CA         -0.5978  -16.5929  -41.4118 C.3       6 UNK         0.1400 
     43 CB          0.2134  -16.2220  -40.1617 C.3       6 UNK        -0.1800 
     44 N          -1.1017  -15.3747  -42.0503 N.am      6 UNK        -0.5000 
     45 C          -2.0318  -15.3655  -43.0154 C.2       5 UNK         0.5000 
     46 O          -2.5568  -16.3812  -43.4698 O.2       5 UNK        -0.5000 
     47 CA         -2.3966  -13.9920  -43.6054 C.3       5 UNK         0.1400 
     48 CB         -3.3204  -13.2166  -42.6541 C.3       5 UNK        -0.1800 
     49 N          -1.2297  -13.1676  -43.9347 N.am      5 UNK        -0.5000 
     50 C          -0.2693  -13.5155  -44.8037 C.2       4 UNK         0.5000 
     51 O          -0.2201  -14.6143  -45.3546 O.2       4 UNK        -0.5000 
     52 CA          0.8272  -12.4829  -45.1142 C.3       4 UNK         0.1400 
     53 CB          0.6342  -11.9487  -46.5396 C.3       4 UNK        -0.1800 
     54 N           0.8218  -11.3405  -44.1975 N.am      4 UNK        -0.5000 
     55 C           1.5161  -11.1443  -43.0652 C.2       3 UNK         0.5000 
     56 O           1.2997  -10.1496  -42.3751 O.2       3 UNK        -0.5000 
     57 CA          2.6075  -12.1333  -42.5830 C.3       3 UNK         0.1400 
     58 CB          2.0037  -13.4170  -41.9932 C.3       3 UNK        -0.1800 
     59 N           3.6710  -12.4778  -43.5310 N.am      3 UNK        -0.5000 
     60 C           4.4200  -11.6303  -44.2500 C.2       2 UNK         0.5000 
     61 O           4.2526  -10.4105  -44.2777 O.2       2 UNK        -0.5000 
     62 CA          5.6025  -12.2345  -45.0381 C.3       2 UNK         0.1400 
     63 CB          5.9737  -13.6806  -44.6321 C.3       2 UNK        -0.1800 
     64 N           5.4131  -12.1243  -46.4859 N.am      2 UNK        -0.5000 
     65 C           4.4689  -12.7182  -47.2319 C.2       1 UNK         0.5000 
     66 O           3.6287  -13.4904  -46.7726 O.2       1 UNK        -0.5000 
     67 C          -0.9696  -23.3717  -47.7620 C.2       11 UNK         0.5000 
     68 O          -0.9059  -24.4093  -48.4197 O.2       11 UNK        -0.5000 
     69 N          -2.1230  -22.8608  -47.3091 N.am      12 UNK        -0.5000 
     70 CA         -3.4254  -23.5028  -47.4858 C.3       12 UNK         0.1400 
     71 CB         -4.5555  -22.5384  -47.0984 C.3       12 UNK        -0.1800 
     72 C          -3.5369  -24.8397  -46.7329 C.2       12 UNK         0.5000 
     73 O          -4.0356  -25.8111  -47.3002 O.2       12 UNK        -0.5000 
     74 N          -3.0119  -24.8923  -45.5006 N.am      13 UNK        -0.5000 
     75 CA         -2.8993  -26.1149  -44.6989 C.3       13 UNK         0.1400 
     76 CB         -2.4404  -25.7566  -43.2775 C.3       13 UNK        -0.1800 
     77 C          -1.9648  -27.1668  -45.3327 C.2       13 UNK         0.5000 
     78 O          -2.2350  -28.3633  -45.2271 O.2       13 UNK        -0.5000 
     79 N          -0.9110  -26.7006  -46.0165 N.am      14 UNK        -0.5000 
     80 CA          0.0186  -27.5132  -46.8049 C.3       14 UNK         0.1400 
     81 CB          1.3458  -26.7487  -46.9403 C.3       14 UNK        -0.1800 
     82 C          -0.5262  -27.9093  -48.1964 C.2       14 UNK         0.5000 
     83 O           0.1513  -28.6497  -48.9103 O.2       14 UNK        -0.5000 
     84 N          -1.7177  -27.4118  -48.5631 N.am      15 UNK        -0.5000 
     85 CA         -2.4231  -27.6062  -49.8353 C.3       15 UNK         0.1400 
     86 CB         -2.7751  -29.0919  -50.0593 C.3       15 UNK        -0.1800 
     87 C          -1.7176  -26.9604  -51.0488 C.2       15 UNK         0.5000 
     88 O          -1.9201  -27.3986  -52.1824 O.2       15 UNK        -0.5000 
     89 N          -0.9355  -25.9021  -50.7997 N.am      16 UNK        -0.5000 
     90 CA         -0.3193  -25.0422  -51.8145 C.3       16 UNK         0.1400 
     91 CB          1.0541  -24.5809  -51.2997 C.3       16 UNK        -0.1800 
     92 C          -1.2142  -23.8338  -52.1670 C.2       16 UNK         0.5000 
     93 O          -0.8579  -23.0382  -53.0383 O.2       16 UNK        -0.5000 
     94 N          -2.3587  -23.7113  -51.4890 N.am      17 UNK        -0.5000 
     95 CA         -3.3797  -22.6943  -51.6851 C.3       17 UNK         0.1400 
     96 CB         -3.0058  -21.4393  -50.8753 C.3       17 UNK        -0.1800 
     97 C          -4.7326  -23.2758  -51.2494 C.2       17 UNK         0.5000 
     98 O          -4.7718  -24.3425  -50.6295 O.2       17 UNK        -0.5000 
     99 N          -5.8136  -22.5622  -51.5682 N.am      18 UNK        -0.5000 
    100 CA        -7.1789  -22.8849  -51.1695 C.3       18 UNK         0.1400 
    101 CB        -7.7356  -24.0742  -51.9797 C.3       18 UNK        -0.1800 
    102 C         -8.0206  -21.6112  -51.3082 C.2       18 UNK         0.5000 
    103 O         -8.7135  -21.4334  -52.3124 O.2       18 UNK        -0.5000 
    104 N         -7.8991  -20.7283  -50.3068 N.am      19 UNK        -0.5000 
    105 CA        -8.5649  -19.4283  -50.1798 C.3       19 UNK         0.1400 
    106 CB       -10.0844  -19.6093  -49.9633 C.3       19 UNK        -0.1800 
    107 C         -8.2126  -18.4850  -51.3471 C.2       19 UNK         0.5000 
    108 O         -7.1548  -17.8555  -51.3134 O.2       19 UNK        -0.5000 
    109 N         -9.0941  -18.4083  -52.3525 N.am      20 UNK        -0.5000 
    110 CA        -8.8993  -17.6333  -53.5771 C.3       20 UNK         0.1400 
    111 CB       -10.2472  -17.4975  -54.3019 C.3       20 UNK        -0.1800 
    112 C         -7.8398  -18.2422  -54.5161 C.2       20 UNK         0.5000 
    113 O         -7.2042  -17.4980  -55.2645 O.2       20 UNK        -0.5000 
    114 N         -7.6641  -19.5704  -54.4682 N.am      21 UNK        -0.5000 
    115 CA        -6.6259  -20.2815  -55.2103 C.3       21 UNK         0.1400 
    116 CB        -7.0512  -21.7418  -55.4092 C.3       21 UNK        -0.1800 
    117 C         -5.2894  -20.2050  -54.4557 C.2       21 UNK         0.5000 
    118 O         -5.2732  -20.2992  -53.2260 O.2       21 UNK        -0.5000 
    119 N         -4.1968  -20.0653  -55.2070 N.am      22 UNK        -0.5000 
    120 CA        -2.8311  -19.9064  -54.7043 C.3       22 UNK         0.1400 
    121 C         -1.8529  -20.4671  -55.7683 C.2       22 UNK         0.5000 
    122 N         -1.0267  -21.4474  -55.4295 N.am      22 UNK        -0.7600 
    123 O         -1.8389  -20.0116  -56.9100 O.2       22 UNK        -0.5000 
    124 C124       -2.5569  -18.4214  -54.3449 C.3       23 UNK        -0.0398 
    125 S125       -0.9410  -18.1457  -53.5480 S.3       23 UNK        -0.2404 
    126 C126       -1.4218  -17.9232  -51.8079 C.3       23 UNK        -0.0205 
    127 H127        6.0914   -8.8178  -49.5876 H         1 UNK         0.0600 
    128 H128        5.3135   -8.0136  -48.2214 H         1 UNK         0.0600 
    129 H129        4.5290   -8.0244  -49.8045 H         1 UNK         0.0600 
    130 H130        5.9107  -11.0263  -49.4860 H         1 UNK         0.3000 
    131 H131        5.2522  -13.0660  -49.1611 H         1 UNK         0.0600 
    132 H132        3.0503  -12.0578  -50.3484 H         1 UNK         0.0800 
    133 H133        2.2884  -12.4709  -48.8532 H         1 UNK         0.0800 
    134 H134        2.1966  -15.2944  -48.0312 H         1 UNK         0.0800 
    135 H135        0.9345  -14.4997  -48.9453 H         1 UNK         0.0800 
    136 H136       -0.4032  -15.7203  -50.5481 H         1 UNK         0.1150 
    137 H137        0.3154  -19.9009  -51.1538 H         1 UNK         0.1150 
    138 H138        3.0428  -17.5764  -48.7980 H         1 UNK         0.1150 
    139 H139        2.5056  -20.7997  -50.5978 H         1 UNK         0.0800 
    140 H140        3.7056  -19.7916  -49.8336 H         1 UNK         0.0800 
    141 H141       -0.0186  -20.6883  -48.2941 H         1 UNK         0.0800 
    142 H142        0.5526  -21.8909  -49.4268 H         1 UNK         0.0800 
    143 H143        1.1303  -23.3898  -47.4462 H         1 UNK         0.0600 
    144 H144        0.3606  -21.1426  -45.8839 H         1 UNK         0.3000 
    145 H145       -0.3132  -22.9633  -42.8603 H         1 UNK         0.0600 
    146 H146        1.3127  -21.2928  -42.0337 H         1 UNK         0.0600 
    147 H147        2.1428  -22.5395  -42.9526 H         1 UNK         0.0600 
    148 H148        1.8590  -20.9615  -43.6754 H         1 UNK         0.0600 
    149 H149       -0.5142  -20.1900  -43.4830 H         1 UNK         0.3000 
    150 H150       -3.9413  -20.2743  -44.6043 H         1 UNK         0.0600 
    151 H151       -3.9760  -20.2003  -42.1110 H         1 UNK         0.0600 
    152 H152       -4.1164  -18.5913  -42.8017 H         1 UNK         0.0600 
    153 H153       -2.5843  -19.1250  -42.1119 H         1 UNK         0.0600 
    154 H154       -2.1492  -18.0922  -44.3571 H         1 UNK         0.3000 
    155 H155       -0.6849  -18.3306  -47.6374 H         1 UNK         0.0600 
    156 H156       -2.6007  -16.3138  -46.3525 H         1 UNK         0.0600 
    157 H157       -2.8553  -17.1221  -47.8973 H         1 UNK         0.0600 
    158 H158       -1.5143  -16.0021  -47.7049 H         1 UNK         0.0600 
    159 H159       -0.2287  -16.4518  -45.5788 H         1 UNK         0.3000 
    160 H160        2.3607  -18.2678  -43.8499 H         1 UNK         0.0600 
    161 H161        2.1884  -15.6677  -45.4702 H         1 UNK         0.0600 
    162 H162        3.3261  -16.9751  -45.7467 H         1 UNK         0.0600 
    163 H163        3.3995  -16.0561  -44.2516 H         1 UNK         0.0600 
    164 H164        0.9022  -15.8215  -43.3417 H         1 UNK         0.3000 
    165 H165       -1.4575  -17.1843  -41.0905 H         1 UNK         0.0600 
    166 H166        1.1045  -15.6464  -40.4110 H         1 UNK         0.0600 
    167 H167       -0.3828  -15.6355  -39.4625 H         1 UNK         0.0600 
    168 H168        0.5425  -17.1181  -39.6339 H         1 UNK         0.0600 
    169 H169       -0.7289  -14.4953  -41.7265 H         1 UNK         0.3000 
    170 H170       -2.9422  -14.1723  -44.5341 H         1 UNK         0.0600 
    171 H171       -4.2021  -13.8063  -42.3990 H         1 UNK         0.0600 
    172 H172       -2.8172  -12.9578  -41.7218 H         1 UNK         0.0600 
    173 H173       -3.6720  -12.2924  -43.1131 H         1 UNK         0.0600 
    174 H174       -1.1907  -12.2490  -43.5182 H         1 UNK         0.3000 
    175 H175        1.7730  -13.0147  -45.0799 H         1 UNK         0.0600 
    176 H176        0.6087  -12.7653  -47.2609 H         1 UNK         0.0600 
    177 H177       -0.2976  -11.3917  -46.6432 H         1 UNK         0.0600 
    178 H178        1.4542  -11.2887  -46.8216 H         1 UNK         0.0600 
    179 H179        0.1693  -10.6144  -44.4534 H         1 UNK         0.3000 
    180 H180        3.1134  -11.6267  -41.7585 H         1 UNK         0.0600 
    181 H181        2.7393  -13.9490  -41.3895 H         1 UNK         0.0600 
    182 H182        1.1564  -13.1930  -41.3439 H         1 UNK         0.0600 
    183 H183        1.6627  -14.0995  -42.7683 H         1 UNK         0.0600 
    184 H184        3.9010  -13.4578  -43.5981 H         1 UNK         0.3000 
    185 H185        6.4644  -11.6091  -44.8006 H         1 UNK         0.0600 
    186 H186        6.8717  -14.0098  -45.1549 H         1 UNK         0.0600 
    187 H187        6.1857  -13.7464  -43.5642 H         1 UNK         0.0600 
    188 H188        5.1843  -14.3970  -44.8588 H         1 UNK         0.0600 
    189 H189        6.0316  -11.4773  -46.9539 H         1 UNK         0.3000 
    190 H190       -2.1159  -21.9593  -46.8396 H         1 UNK         0.3000 
    191 H191       -3.5258  -23.7256  -48.5456 H         1 UNK         0.0600 
    192 H192       -4.5118  -22.2660  -46.0444 H         1 UNK         0.0600 
    193 H193       -4.5084  -21.6205  -47.6844 H         1 UNK         0.0600 
    194 H194       -5.5307  -22.9911  -47.2810 H         1 UNK         0.0600 
    195 H195       -2.6689  -24.0334  -45.0790 H         1 UNK         0.3000 
    196 H196       -3.8947  -26.5584  -44.6305 H         1 UNK         0.0600 
    197 H197       -2.3962  -26.6451  -42.6465 H         1 UNK         0.0600 
    198 H198       -3.1293  -25.0556  -42.8059 H         1 UNK         0.0600 
    199 H199       -1.4494  -25.3032  -43.2747 H         1 UNK         0.0600 
    200 H200       -0.7258  -25.7039  -45.9907 H         1 UNK         0.3000 
    201 H201        0.2173  -28.4387  -46.2609 H         1 UNK         0.0600 
    202 H202        1.2247  -25.8323  -47.5173 H         1 UNK         0.0600 
    203 H203        2.0986  -27.3551  -47.4452 H         1 UNK         0.0600 
    204 H204        1.7486  -26.4792  -45.9638 H         1 UNK         0.0600 
    205 H205       -2.1900  -26.8011  -47.9077 H         1 UNK         0.3000 
    206 H206       -3.3655  -27.0669  -49.7296 H         1 UNK         0.0600 
    207 H207       -3.2763  -29.5136  -49.1880 H         1 UNK         0.0600 
    208 H208       -3.4500  -29.2097  -50.9077 H         1 UNK         0.0600 
    209 H209       -1.8896  -29.6941  -50.2629 H         1 UNK         0.0600 
    210 H210       -0.8562  -25.5715  -49.8393 H         1 UNK         0.3000 
    211 H211       -0.1624  -25.6079  -52.7349 H         1 UNK         0.0600 
    212 H212        0.9703  -24.0187  -50.3707 H         1 UNK         0.0600 
    213 H213        1.5541  -23.9413  -52.0280 H         1 UNK         0.0600 
    214 H214        1.7080  -25.4330  -51.1134 H         1 UNK         0.0600 
    215 H215       -2.6157  -24.4320  -50.8272 H         1 UNK         0.3000 
    216 H216       -3.4473  -22.4512  -52.7466 H         1 UNK         0.0600 
    217 H217       -3.7241  -20.6348  -51.0343 H         1 UNK         0.0600 
    218 H218       -2.0256  -21.0649  -51.1683 H         1 UNK         0.0600 
    219 H219       -2.9735  -21.6418  -49.8052 H         1 UNK         0.0600 
    220 H220       -5.6962  -21.6890  -52.0825 H         1 UNK         0.3000 
    221 H221       -7.1820  -23.1671  -50.1143 H         1 UNK         0.0600 
    222 H222       -7.6803  -23.9047  -53.0533 H         1 UNK         0.0600 
    223 H223       -7.1901  -24.9922  -51.7620 H         1 UNK         0.0600 
    224 H224       -8.7816  -24.2565  -51.7308 H         1 UNK         0.0600 
    225 H225       -7.2539  -20.9493  -49.5617 H         1 UNK         0.3000 
    226 H226       -8.1634  -18.9615  -49.2789 H         1 UNK         0.0600 
    227 H227      -10.2805  -20.1678  -49.0480 H         1 UNK         0.0600 
    228 H228      -10.5828  -18.6443  -49.8630 H         1 UNK         0.0600 
    229 H229      -10.5645  -20.1460  -50.7819 H         1 UNK         0.0600 
    230 H230       -9.9163  -18.9931  -52.3111 H         1 UNK         0.3000 
    231 H231       -8.5593  -16.6333  -53.2995 H         1 UNK         0.0600 
    232 H232      -10.1441  -16.9011  -55.2094 H         1 UNK         0.0600 
    233 H233      -10.9864  -17.0030  -53.6715 H         1 UNK         0.0600 
    234 H234      -10.6480  -18.4698  -54.5916 H         1 UNK         0.0600 
    235 H235       -8.1738  -20.1098  -53.7759 H         1 UNK         0.3000 
    236 H236       -6.5109  -19.8236  -56.1953 H         1 UNK         0.0600 
    237 H237       -7.1460  -22.2588  -54.4567 H         1 UNK         0.0600 
    238 H238       -8.0089  -21.8092  -55.9254 H         1 UNK         0.0600 
    239 H239       -6.3180  -22.2855  -56.0061 H         1 UNK         0.0600 
    240 H240       -4.2777  -20.0433  -56.2150 H         1 UNK         0.3000 
    241 H241       -2.7201  -20.5008  -53.7963 H         1 UNK         0.0600 
    242 H242       -1.0221  -21.8679  -54.5023 H         1 UNK         0.3800 
    243 H243       -0.3903  -21.8042  -56.1242 H         1 UNK         0.3800 
    244 H244       -3.3397  -18.0484  -53.6828 H         1 UNK         0.0800 
    245 H245       -2.6067  -17.7990  -55.2399 H         1 UNK         0.0800 
    246 H246       -2.0360  -17.0263  -51.7142 H         1 UNK         0.0800 
    247 H247       -2.0409  -18.7582  -51.4827 H         1 UNK         0.0800 
@<TRIPOS>BOND
     1    1    2 1    
     2    1  127 1    
     3    1  128 1    
     4    1  129 1    
     5    2    3 2    
     6    2    4 am   BACKBONE|DICT|INTERRES
     7    4    5 1    
     8    4  130 1    
     9    5    6 1    
    10    5   65 1    
    11    5  131 1    
    12    6    7 1    
    13    6  132 1    
    14    6  133 1    
    15    7    8 1    
    16    8    9 1    
    17    8  134 1    
    18    8  135 1    
    19    9   10 ar   
    20    9   14 ar   
    21   10   11 ar   
    22   10  136 1    
    23   11   12 ar   
    24   11  126 1    
    25   12   13 ar   
    26   12  137 1    
    27   13   14 ar   
    28   13   15 1    
    29   14  138 1    
    30   15   16 1    
    31   15  139 1    
    32   15  140 1    
    33   16   17 1    
    34   17   18 1    
    35   17  141 1    
    36   17  142 1    
    37   18   19 1    
    38   18   67 1    
    39   18  143 1    
    40   19   20 am   BACKBONE|DICT|INTERRES
    41   19  144 1    
    42   20   21 2    
    43   20   22 1    
    44   22   23 1    
    45   22   24 1    
    46   22  145 1    
    47   23  146 1    
    48   23  147 1    
    49   23  148 1    
    50   24   25 am   BACKBONE|DICT|INTERRES
    51   24  149 1    
    52   25   26 2    
    53   25   27 1    
    54   27   28 1    
    55   27   29 1    
    56   27  150 1    
    57   28  151 1    
    58   28  152 1    
    59   28  153 1    
    60   29   30 am   BACKBONE|DICT|INTERRES
    61   29  154 1    
    62   30   31 2    
    63   30   32 1    
    64   32   33 1    
    65   32   34 1    
    66   32  155 1    
    67   33  156 1    
    68   33  157 1    
    69   33  158 1    
    70   34   35 am   BACKBONE|DICT|INTERRES
    71   34  159 1    
    72   35   36 2    
    73   35   37 1    
    74   37   38 1    
    75   37   39 1    
    76   37  160 1    
    77   38  161 1    
    78   38  162 1    
    79   38  163 1    
    80   39   40 am   BACKBONE|DICT|INTERRES
    81   39  164 1    
    82   40   41 2    
    83   40   42 1    
    84   42   43 1    
    85   42   44 1    
    86   42  165 1    
    87   43  166 1    
    88   43  167 1    
    89   43  168 1    
    90   44   45 am   BACKBONE|DICT|INTERRES
    91   44  169 1    
    92   45   46 2    
    93   45   47 1    
    94   47   48 1    
    95   47   49 1    
    96   47  170 1    
    97   48  171 1    
    98   48  172 1    
    99   48  173 1    
   100   49   50 am   BACKBONE|DICT|INTERRES
   101   49  174 1    
   102   50   51 2    
   103   50   52 1    
   104   52   53 1    
   105   52   54 1    
   106   52  175 1    
   107   53  176 1    
   108   53  177 1    
   109   53  178 1    
   110   54   55 am   BACKBONE|DICT|INTERRES
   111   54  179 1    
   112   55   56 2    
   113   55   57 1    
   114   57   58 1    
   115   57   59 1    
   116   57  180 1    
   117   58  181 1    
   118   58  182 1    
   119   58  183 1    
   120   59   60 am   BACKBONE|DICT|INTERRES
   121   59  184 1    
   122   60   61 2    
   123   60   62 1    
   124   62   63 1    
   125   62   64 1    
   126   62  185 1    
   127   63  186 1    
   128   63  187 1    
   129   63  188 1    
   130   64   65 am   BACKBONE|DICT|INTERRES
   131   64  189 1    
   132   65   66 2    
   133   67   68 2    
   134   67   69 am   BACKBONE|DICT|INTERRES
   135   69   70 1    
   136   69  190 1    
   137   70   71 1    
   138   70   72 1    
   139   70  191 1    
   140   71  192 1    
   141   71  193 1    
   142   71  194 1    
   143   72   73 2    
   144   72   74 am   BACKBONE|DICT|INTERRES
   145   74   75 1    
   146   74  195 1    
   147   75   76 1    
   148   75   77 1    
   149   75  196 1    
   150   76  197 1    
   151   76  198 1    
   152   76  199 1    
   153   77   78 2    
   154   77   79 am   BACKBONE|DICT|INTERRES
   155   79   80 1    
   156   79  200 1    
   157   80   81 1    
   158   80   82 1    
   159   80  201 1    
   160   81  202 1    
   161   81  203 1    
   162   81  204 1    
   163   82   83 2    
   164   82   84 am   BACKBONE|DICT|INTERRES
   165   84   85 1    
   166   84  205 1    
   167   85   86 1    
   168   85   87 1    
   169   85  206 1    
   170   86  207 1    
   171   86  208 1    
   172   86  209 1    
   173   87   88 2    
   174   87   89 am   BACKBONE|DICT|INTERRES
   175   89   90 1    
   176   89  210 1    
   177   90   91 1    
   178   90   92 1    
   179   90  211 1    
   180   91  212 1    
   181   91  213 1    
   182   91  214 1    
   183   92   93 2    
   184   92   94 am   BACKBONE|DICT|INTERRES
   185   94   95 1    
   186   94  215 1    
   187   95   96 1    
   188   95   97 1    
   189   95  216 1    
   190   96  217 1    
   191   96  218 1    
   192   96  219 1    
   193   97   98 2    
   194   97   99 am   BACKBONE|DICT|INTERRES
   195   99  100 1    
   196   99  220 1    
   197  100  101 1    
   198  100  102 1    
   199  100  221 1    
   200  101  222 1    
   201  101  223 1    
   202  101  224 1    
   203  102  103 2    
   204  102  104 am   BACKBONE|DICT|INTERRES
   205  104  105 1    
   206  104  225 1    
   207  105  106 1    
   208  105  107 1    
   209  105  226 1    
   210  106  227 1    
   211  106  228 1    
   212  106  229 1    
   213  107  108 2    
   214  107  109 am   BACKBONE|DICT|INTERRES
   215  109  110 1    
   216  109  230 1    
   217  110  111 1    
   218  110  112 1    
   219  110  231 1    
   220  111  232 1    
   221  111  233 1    
   222  111  234 1    
   223  112  113 2    
   224  112  114 am   BACKBONE|DICT|INTERRES
   225  114  115 1    
   226  114  235 1    
   227  115  116 1    
   228  115  117 1    
   229  115  236 1    
   230  116  237 1    
   231  116  238 1    
   232  116  239 1    
   233  117  118 2    
   234  117  119 am   BACKBONE|DICT|INTERRES
   235  119  120 1    
   236  119  240 1    
   237  120  121 1    
   238  120  124 1    
   239  120  241 1    
   240  121  122 am   BACKBONE|DICT|INTERRES
   241  121  123 2    
   242  122  242 1    
   243  122  243 1    
   244  124  125 1    
   245  124  244 1    
   246  124  245 1    
   247  125  126 1    
   248  126  246 1    
   249  126  247 1    
@<TRIPOS>SUBSTRUCTURE
     1 UNK         1 GROUP             0       ****    0 ROOT    
