@<TRIPOS>MOLECULE
3R540
247   249    1
SMALL
USER_CHARGES


@<TRIPOS>ATOM
      1 CA          9.3576  -15.8696  -47.8024 C.3       0 UNK        -0.1800 
      2 C           8.2280  -16.8387  -47.4837 C.2       0 UNK         0.5000 
      3 O           8.2226  -17.4430  -46.4114 O.2       0 UNK        -0.5000 
      4 N           7.2703  -16.9856  -48.4077 N.am      1 UNK        -0.5000 
      5 CA          6.1025  -17.8686  -48.2802 C.3       1 UNK         0.1400 
      6 C6          5.5582  -18.2933  -49.6667 C.3       23 UNK        -0.0398 
      7 S7          4.9903  -16.9047  -50.7158 S.3       23 UNK        -0.2404 
      8 C8          3.6873  -17.7123  -51.7025 C.3       23 UNK        -0.0205 
      9 C9          2.2806  -17.4399  -51.1809 C.ar      23 UNK        -0.0193 
     10 C10         1.3366  -16.8310  -52.0137 C.ar      23 UNK        -0.1150 
     11 C11         0.0281  -16.6152  -51.5723 C.ar      23 UNK        -0.0193 
     12 C12        -0.3328  -17.0012  -50.2789 C.ar      23 UNK        -0.1150 
     13 C13         0.5939  -17.6251  -49.4395 C.ar      23 UNK        -0.0193 
     14 C14         1.8995  -17.8340  -49.8943 C.ar      23 UNK        -0.1150 
     15 C15         0.1790  -18.0778  -48.0470 C.3       23 UNK        -0.0205 
     16 S16        -0.7713  -19.6316  -48.1110 S.3       23 UNK        -0.2404 
     17 C17         0.5265  -20.8361  -48.5654 C.3       23 UNK        -0.0398 
     18 CA          0.8168  -21.9236  -47.5030 C.3       11 UNK         0.1400 
     19 N           1.0215  -21.3734  -46.1605 N.am      11 UNK        -0.5000 
     20 C           2.0116  -21.7392  -45.3352 C.2       10 UNK         0.5000 
     21 O           2.8475  -22.6023  -45.6062 O.2       10 UNK        -0.5000 
     22 CA          2.0834  -21.0278  -43.9717 C.3       10 UNK         0.1400 
     23 CB          2.8599  -19.7081  -44.0993 C.3       10 UNK        -0.1800 
     24 N           0.7640  -20.7642  -43.3979 N.am      10 UNK        -0.5000 
     25 C          -0.0672  -21.7148  -42.9422 C.2       9 UNK         0.5000 
     26 O           0.2155  -22.9132  -42.9227 O.2       9 UNK        -0.5000 
     27 CA         -1.4561  -21.2666  -42.4376 C.3       9 UNK         0.1400 
     28 CB         -1.4523  -21.1340  -40.9074 C.3       9 UNK        -0.1800 
     29 N          -1.9313  -20.0101  -43.0196 N.am      9 UNK        -0.5000 
     30 C          -2.1111  -19.7824  -44.3275 C.2       8 UNK         0.5000 
     31 O          -1.9362  -20.6383  -45.1930 O.2       8 UNK        -0.5000 
     32 CA         -2.4941  -18.3499  -44.7448 C.3       8 UNK         0.1400 
     33 CB         -4.0169  -18.2330  -44.8989 C.3       8 UNK        -0.1800 
     34 N          -2.0243  -17.2938  -43.8410 N.am      8 UNK        -0.5000 
     35 C          -0.7530  -17.0844  -43.4613 C.2       7 UNK         0.5000 
     36 O           0.1734  -17.8421  -43.7512 O.2       7 UNK        -0.5000 
     37 CA         -0.4742  -15.8437  -42.5917 C.3       7 UNK         0.1400 
     38 CB          0.8643  -15.1815  -42.9531 C.3       7 UNK        -0.1800 
     39 N          -1.5362  -14.8472  -42.7225 N.am      7 UNK        -0.5000 
     40 C          -2.2877  -14.3709  -41.7206 C.2       6 UNK         0.5000 
     41 O          -2.1798  -14.7413  -40.5511 O.2       6 UNK        -0.5000 
     42 CA         -3.3368  -13.2938  -42.0709 C.3       6 UNK         0.1400 
     43 CB         -2.8577  -11.9098  -41.6055 C.3       6 UNK        -0.1800 
     44 N          -3.6501  -13.2225  -43.4991 N.am      6 UNK        -0.5000 
     45 C          -4.3271  -14.1524  -44.1858 C.2       5 UNK         0.5000 
     46 O          -4.8203  -15.1547  -43.6698 O.2       5 UNK        -0.5000 
     47 CA         -4.4214  -13.9528  -45.7115 C.3       5 UNK         0.1400 
     48 CB         -5.7425  -13.2672  -46.0886 C.3       5 UNK        -0.1800 
     49 N          -3.3011  -13.1888  -46.2733 N.am      5 UNK        -0.5000 
     50 C          -2.0267  -13.6013  -46.2763 C.2       4 UNK         0.5000 
     51 O          -1.6532  -14.6693  -45.7869 O.2       4 UNK        -0.5000 
     52 CA         -0.9936  -12.6368  -46.8683 C.3       4 UNK         0.1400 
     53 CB         -0.4090  -11.7291  -45.7728 C.3       4 UNK        -0.1800 
     54 N           0.0741  -13.4163  -47.4797 N.am      4 UNK        -0.5000 
     55 C           0.7991  -13.0541  -48.5405 C.2       3 UNK         0.5000 
     56 O           0.6959  -11.9551  -49.0893 O.2       3 UNK        -0.5000 
     57 CA          1.8074  -14.0965  -49.0688 C.3       3 UNK         0.1400 
     58 CB          2.3988  -13.7084  -50.4359 C.3       3 UNK        -0.1800 
     59 N           2.9073  -14.3590  -48.1404 N.am      3 UNK        -0.5000 
     60 C           2.8227  -15.0302  -46.9841 C.2       2 UNK         0.5000 
     61 O           1.7775  -15.5091  -46.5424 O.2       2 UNK        -0.5000 
     62 CA          4.1550  -15.2053  -46.2298 C.3       2 UNK         0.1400 
     63 CB          3.9907  -15.7713  -44.8050 C.3       2 UNK        -0.1800 
     64 N           5.1037  -16.0034  -47.0115 N.am      2 UNK        -0.5000 
     65 C           4.9881  -17.2912  -47.3764 C.2       1 UNK         0.5000 
     66 O           4.0597  -18.0257  -47.0390 O.2       1 UNK        -0.5000 
     67 C          -0.2352  -23.0465  -47.5219 C.2       11 UNK         0.5000 
     68 O          -0.1611  -23.8991  -48.4070 O.2       11 UNK        -0.5000 
     69 N          -1.1651  -23.0688  -46.5529 N.am      12 UNK        -0.5000 
     70 CA         -2.2486  -24.0527  -46.4177 C.3       12 UNK         0.1400 
     71 CB         -3.0074  -23.8009  -45.1056 C.3       12 UNK        -0.1800 
     72 C          -1.7973  -25.5230  -46.4714 C.2       12 UNK         0.5000 
     73 O          -2.4911  -26.3483  -47.0641 O.2       12 UNK        -0.5000 
     74 N          -0.6272  -25.8105  -45.8877 N.am      13 UNK        -0.5000 
     75 CA         -0.0074  -27.1357  -45.8581 C.3       13 UNK         0.1400 
     76 CB          1.1918  -27.0940  -44.8984 C.3       13 UNK        -0.1800 
     77 C           0.4302  -27.6626  -47.2410 C.2       13 UNK         0.5000 
     78 O           0.5458  -28.8779  -47.4050 O.2       13 UNK        -0.5000 
     79 N           0.6744  -26.7562  -48.1969 N.am      14 UNK        -0.5000 
     80 CA          1.1194  -27.0752  -49.5527 C.3       14 UNK         0.1400 
     81 CB          2.3520  -26.2189  -49.8865 C.3       14 UNK        -0.1800 
     82 C           0.0060  -26.8337  -50.5836 C.2       14 UNK         0.5000 
     83 O          -0.1988  -27.6702  -51.4639 O.2       14 UNK        -0.5000 
     84 N          -0.6816  -25.6901  -50.4708 N.am      15 UNK        -0.5000 
     85 CA         -1.6774  -25.2230  -51.4340 C.3       15 UNK         0.1400 
     86 CB         -1.7908  -23.6937  -51.3212 C.3       15 UNK        -0.1800 
     87 C          -3.0619  -25.8686  -51.2577 C.2       15 UNK         0.5000 
     88 O          -3.8527  -25.8370  -52.2012 O.2       15 UNK        -0.5000 
     89 N          -3.3557  -26.3899  -50.0557 N.am      16 UNK        -0.5000 
     90 CA         -4.6267  -26.9666  -49.5865 C.3       16 UNK         0.1400 
     91 CB         -5.0578  -28.1766  -50.4374 C.3       16 UNK        -0.1800 
     92 C          -5.7643  -25.9331  -49.4515 C.2       16 UNK         0.5000 
     93 O          -6.3994  -25.8605  -48.3995 O.2       16 UNK        -0.5000 
     94 N          -5.9755  -25.1278  -50.4994 N.am      17 UNK        -0.5000 
     95 CA         -6.8955  -23.9890  -50.5360 C.3       17 UNK         0.1400 
     96 CB         -7.1694  -23.6284  -52.0041 C.3       17 UNK        -0.1800 
     97 C          -6.3630  -22.7586  -49.7736 C.2       17 UNK         0.5000 
     98 O          -7.1465  -21.8632  -49.4563 O.2       17 UNK        -0.5000 
     99 N          -5.0500  -22.7397  -49.4968 N.am      18 UNK        -0.5000 
    100 CA        -4.3044  -21.6788  -48.8157 C.3       18 UNK         0.1400 
    101 CB        -4.8001  -21.5227  -47.3609 C.3       18 UNK        -0.1800 
    102 C         -4.3076  -20.3594  -49.6162 C.2       18 UNK         0.5000 
    103 O         -4.3760  -20.3866  -50.8475 O.2       18 UNK        -0.5000 
    104 N         -4.2264  -19.2257  -48.9072 N.am      19 UNK        -0.5000 
    105 CA        -4.1406  -17.8794  -49.4750 C.3       19 UNK         0.1400 
    106 CB        -3.8479  -16.8748  -48.3513 C.3       19 UNK        -0.1800 
    107 C         -5.3804  -17.4426  -50.2751 C.2       19 UNK         0.5000 
    108 O         -5.2711  -16.5264  -51.0876 O.2       19 UNK        -0.5000 
    109 N         -6.5242  -18.1160  -50.0859 N.am      20 UNK        -0.5000 
    110 CA        -7.7601  -17.8932  -50.8440 C.3       20 UNK         0.1400 
    111 CB        -8.8762  -18.7656  -50.2508 C.3       20 UNK        -0.1800 
    112 C         -7.6190  -18.1505  -52.3606 C.2       20 UNK         0.5000 
    113 O         -8.4239  -17.6362  -53.1377 O.2       20 UNK        -0.5000 
    114 N         -6.5935  -18.9174  -52.7562 N.am      21 UNK        -0.5000 
    115 CA        -6.2389  -19.1882  -54.1465 C.3       21 UNK         0.1400 
    116 CB        -5.3776  -20.4606  -54.1866 C.3       21 UNK        -0.1800 
    117 C         -5.5046  -18.0247  -54.8477 C.2       21 UNK         0.5000 
    118 O         -5.3828  -18.0678  -56.0733 O.2       21 UNK        -0.5000 
    119 N         -5.0031  -17.0319  -54.0972 N.am      22 UNK        -0.5000 
    120 CA        -4.1134  -15.9815  -54.6290 C.3       22 UNK         0.1400 
    121 C         -4.1999  -14.5919  -53.9386 C.2       22 UNK         0.5000 
    122 N         -4.8177  -14.4399  -52.7769 N.am      22 UNK        -0.7600 
    123 O         -3.7150  -13.6085  -54.4919 O.2       22 UNK        -0.5000 
    124 C124       -2.6461  -16.4696  -54.7854 C.3       23 UNK        -0.0398 
    125 S125       -1.9674  -17.3198  -53.3148 S.3       23 UNK        -0.2404 
    126 C126       -1.0015  -16.0055  -52.5099 C.3       23 UNK        -0.0205 
    127 H127        9.2320  -15.4084  -48.7824 H         1 UNK         0.0600 
    128 H128        9.3938  -15.0766  -47.0554 H         1 UNK         0.0600 
    129 H129       10.3141  -16.3923  -47.7930 H         1 UNK         0.0600 
    130 H130        7.3245  -16.4646  -49.2724 H         1 UNK         0.3000 
    131 H131        6.4372  -18.7831  -47.7854 H         1 UNK         0.0600 
    132 H132        4.7555  -19.0213  -49.5434 H         1 UNK         0.0800 
    133 H133        6.3401  -18.8218  -50.2137 H         1 UNK         0.0800 
    134 H134        3.8545  -18.7892  -51.7473 H         1 UNK         0.0800 
    135 H135        3.7824  -17.3555  -52.7291 H         1 UNK         0.0800 
    136 H136        1.6129  -16.5420  -53.0180 H         1 UNK         0.1150 
    137 H137       -1.3402  -16.8341  -49.9309 H         1 UNK         0.1150 
    138 H138        2.6164  -18.3106  -49.2442 H         1 UNK         0.1150 
    139 H139        1.0512  -18.2035  -47.4021 H         1 UNK         0.0800 
    140 H140       -0.4293  -17.3020  -47.5796 H         1 UNK         0.0800 
    141 H141        1.4555  -20.3020  -48.7563 H         1 UNK         0.0800 
    142 H142        0.2580  -21.2860  -49.5232 H         1 UNK         0.0800 
    143 H143        1.7419  -22.4059  -47.8262 H         1 UNK         0.0600 
    144 H144        0.3524  -20.6782  -45.8562 H         1 UNK         0.3000 
    145 H145        2.6281  -21.6769  -43.2828 H         1 UNK         0.0600 
    146 H146        2.9403  -19.1988  -43.1389 H         1 UNK         0.0600 
    147 H147        3.8732  -19.8836  -44.4627 H         1 UNK         0.0600 
    148 H148        2.3789  -19.0250  -44.8011 H         1 UNK         0.0600 
    149 H149        0.4554  -19.7962  -43.4062 H         1 UNK         0.3000 
    150 H150       -2.1701  -22.0451  -42.7109 H         1 UNK         0.0600 
    151 H151       -1.1306  -22.0632  -40.4351 H         1 UNK         0.0600 
    152 H152       -2.4486  -20.9067  -40.5277 H         1 UNK         0.0600 
    153 H153       -0.7764  -20.3452  -40.5746 H         1 UNK         0.0600 
    154 H154       -2.0820  -19.2435  -42.3813 H         1 UNK         0.3000 
    155 H155       -2.0347  -18.1654  -45.7169 H         1 UNK         0.0600 
    156 H156       -4.5270  -18.3532  -43.9424 H         1 UNK         0.0600 
    157 H157       -4.4083  -18.9906  -45.5767 H         1 UNK         0.0600 
    158 H158       -4.2968  -17.2627  -45.3050 H         1 UNK         0.0600 
    159 H159       -2.7193  -16.6236  -43.5434 H         1 UNK         0.3000 
    160 H160       -0.4070  -16.2011  -41.5626 H         1 UNK         0.0600 
    161 H161        1.0533  -14.3051  -42.3332 H         1 UNK         0.0600 
    162 H162        0.8832  -14.8660  -43.9972 H         1 UNK         0.0600 
    163 H163        1.6932  -15.8727  -42.7983 H         1 UNK         0.0600 
    164 H164       -1.7089  -14.5266  -43.6688 H         1 UNK         0.3000 
    165 H165       -4.2530  -13.5404  -41.5304 H         1 UNK         0.0600 
    166 H166       -3.6171  -11.1482  -41.7841 H         1 UNK         0.0600 
    167 H167       -2.6444  -11.9084  -40.5358 H         1 UNK         0.0600 
    168 H168       -1.9466  -11.6050  -42.1222 H         1 UNK         0.0600 
    169 H169       -3.2830  -12.4294  -44.0036 H         1 UNK         0.3000 
    170 H170       -4.4103  -14.9434  -46.1678 H         1 UNK         0.0600 
    171 H171       -6.5965  -13.8270  -45.7047 H         1 UNK         0.0600 
    172 H172       -5.8025  -12.2568  -45.6823 H         1 UNK         0.0600 
    173 H173       -5.8586  -13.2031  -47.1707 H         1 UNK         0.0600 
    174 H174       -3.5296  -12.2937  -46.6819 H         1 UNK         0.3000 
    175 H175       -1.4841  -12.0252  -47.6287 H         1 UNK         0.0600 
    176 H176        0.0886  -12.3099  -44.9946 H         1 UNK         0.0600 
    177 H177        0.3197  -11.0316  -46.1860 H         1 UNK         0.0600 
    178 H178       -1.1898  -11.1368  -45.2943 H         1 UNK         0.0600 
    179 H179        0.2456  -14.3253  -47.0545 H         1 UNK         0.3000 
    180 H180        1.2543  -15.0230  -49.2036 H         1 UNK         0.0600 
    181 H181        2.9879  -12.7925  -50.3774 H         1 UNK         0.0600 
    182 H182        1.6090  -13.5487  -51.1711 H         1 UNK         0.0600 
    183 H183        3.0428  -14.4969  -50.8245 H         1 UNK         0.0600 
    184 H184        3.8089  -14.0035  -48.4209 H         1 UNK         0.3000 
    185 H185        4.5962  -14.2122  -46.1321 H         1 UNK         0.0600 
    186 H186        3.4540  -15.0615  -44.1769 H         1 UNK         0.0600 
    187 H187        3.4333  -16.7085  -44.7941 H         1 UNK         0.0600 
    188 H188        4.9579  -15.9508  -44.3358 H         1 UNK         0.0600 
    189 H189        5.9124  -15.5068  -47.3560 H         1 UNK         0.3000 
    190 H190       -1.2043  -22.2817  -45.9119 H         1 UNK         0.3000 
    191 H191       -2.9347  -23.8974  -47.2511 H         1 UNK         0.0600 
    192 H192       -2.3594  -23.9358  -44.2390 H         1 UNK         0.0600 
    193 H193       -3.8448  -24.4920  -44.9997 H         1 UNK         0.0600 
    194 H194       -3.4171  -22.7933  -45.0616 H         1 UNK         0.0600 
    195 H195       -0.1244  -25.0624  -45.4319 H         1 UNK         0.3000 
    196 H196       -0.7412  -27.8392  -45.4592 H         1 UNK         0.0600 
    197 H197        1.6673  -28.0728  -44.8223 H         1 UNK         0.0600 
    198 H198        0.8837  -26.8050  -43.8933 H         1 UNK         0.0600 
    199 H199        1.9501  -26.3853  -45.2342 H         1 UNK         0.0600 
    200 H200        0.5068  -25.7774  -47.9947 H         1 UNK         0.3000 
    201 H201        1.4143  -28.1241  -49.6256 H         1 UNK         0.0600 
    202 H202        3.1740  -26.4328  -49.2032 H         1 UNK         0.0600 
    203 H203        2.1344  -25.1518  -49.8223 H         1 UNK         0.0600 
    204 H204        2.7080  -26.4225  -50.8972 H         1 UNK         0.0600 
    205 H205       -0.4506  -25.0450  -49.7171 H         1 UNK         0.3000 
    206 H206       -1.3315  -25.4622  -52.4420 H         1 UNK         0.0600 
    207 H207       -0.8359  -23.2120  -51.5321 H         1 UNK         0.0600 
    208 H208       -2.5183  -23.2958  -52.0302 H         1 UNK         0.0600 
    209 H209       -2.1024  -23.3879  -50.3231 H         1 UNK         0.0600 
    210 H210       -2.6381  -26.3435  -49.3427 H         1 UNK         0.3000 
    211 H211       -4.4271  -27.3412  -48.5818 H         1 UNK         0.0600 
    212 H212       -5.3200  -27.8932  -51.4568 H         1 UNK         0.0600 
    213 H213       -5.9322  -28.6622  -50.0025 H         1 UNK         0.0600 
    214 H214       -4.2646  -28.9223  -50.4900 H         1 UNK         0.0600 
    215 H215       -5.3943  -25.2781  -51.3208 H         1 UNK         0.3000 
    216 H216       -7.8379  -24.2836  -50.0699 H         1 UNK         0.0600 
    217 H217       -7.8411  -22.7721  -52.0817 H         1 UNK         0.0600 
    218 H218       -7.6385  -24.4585  -52.5325 H         1 UNK         0.0600 
    219 H219       -6.2486  -23.3742  -52.5302 H         1 UNK         0.0600 
    220 H220       -4.5020  -23.5119  -49.8420 H         1 UNK         0.3000 
    221 H221       -3.2654  -22.0066  -48.7777 H         1 UNK         0.0600 
    222 H222       -5.7415  -20.9749  -47.3025 H         1 UNK         0.0600 
    223 H223       -4.9633  -22.4935  -46.8942 H         1 UNK         0.0600 
    224 H224       -4.0650  -20.9959  -46.7546 H         1 UNK         0.0600 
    225 H225       -4.1661  -19.2931  -47.9028 H         1 UNK         0.3000 
    226 H226       -3.3027  -17.8775  -50.1736 H         1 UNK         0.0600 
    227 H227       -4.6694  -16.8343  -47.6362 H         1 UNK         0.0600 
    228 H228       -2.9380  -17.1333  -47.8103 H         1 UNK         0.0600 
    229 H229       -3.7103  -15.8686  -48.7500 H         1 UNK         0.0600 
    230 H230       -6.5297  -18.8795  -49.4249 H         1 UNK         0.3000 
    231 H231       -8.0406  -16.8456  -50.7174 H         1 UNK         0.0600 
    232 H232       -9.0198  -18.5598  -49.1900 H         1 UNK         0.0600 
    233 H233       -8.6563  -19.8278  -50.3615 H         1 UNK         0.0600 
    234 H234       -9.8273  -18.5752  -50.7498 H         1 UNK         0.0600 
    235 H235       -5.9766  -19.3061  -52.0525 H         1 UNK         0.3000 
    236 H236       -7.1553  -19.3818  -54.7079 H         1 UNK         0.0600 
    237 H237       -5.1312  -20.7371  -55.2125 H         1 UNK         0.0600 
    238 H238       -4.4383  -20.3261  -53.6481 H         1 UNK         0.0600 
    239 H239       -5.9018  -21.3052  -53.7406 H         1 UNK         0.0600 
    240 H240       -5.1380  -17.0416  -53.0939 H         1 UNK         0.3000 
    241 H241       -4.4681  -15.7567  -55.6369 H         1 UNK         0.0600 
    242 H242       -4.8709  -13.5180  -52.3755 H         1 UNK         0.3800 
    243 H243       -5.1256  -15.2369  -52.2217 H         1 UNK         0.3800 
    244 H244       -2.6042  -17.1872  -55.6056 H         1 UNK         0.0800 
    245 H245       -1.9845  -15.6573  -55.0904 H         1 UNK         0.0800 
    246 H246       -0.5026  -15.3915  -53.2611 H         1 UNK         0.0800 
    247 H247       -1.6729  -15.3439  -51.9602 H         1 UNK         0.0800 
@<TRIPOS>BOND
     1    1    2 1    
     2    1  127 1    
     3    1  128 1    
     4    1  129 1    
     5    2    3 2    
     6    2    4 am   BACKBONE|DICT|INTERRES
     7    4    5 1    
     8    4  130 1    
     9    5    6 1    
    10    5   65 1    
    11    5  131 1    
    12    6    7 1    
    13    6  132 1    
    14    6  133 1    
    15    7    8 1    
    16    8    9 1    
    17    8  134 1    
    18    8  135 1    
    19    9   10 ar   
    20    9   14 ar   
    21   10   11 ar   
    22   10  136 1    
    23   11   12 ar   
    24   11  126 1    
    25   12   13 ar   
    26   12  137 1    
    27   13   14 ar   
    28   13   15 1    
    29   14  138 1    
    30   15   16 1    
    31   15  139 1    
    32   15  140 1    
    33   16   17 1    
    34   17   18 1    
    35   17  141 1    
    36   17  142 1    
    37   18   19 1    
    38   18   67 1    
    39   18  143 1    
    40   19   20 am   BACKBONE|DICT|INTERRES
    41   19  144 1    
    42   20   21 2    
    43   20   22 1    
    44   22   23 1    
    45   22   24 1    
    46   22  145 1    
    47   23  146 1    
    48   23  147 1    
    49   23  148 1    
    50   24   25 am   BACKBONE|DICT|INTERRES
    51   24  149 1    
    52   25   26 2    
    53   25   27 1    
    54   27   28 1    
    55   27   29 1    
    56   27  150 1    
    57   28  151 1    
    58   28  152 1    
    59   28  153 1    
    60   29   30 am   BACKBONE|DICT|INTERRES
    61   29  154 1    
    62   30   31 2    
    63   30   32 1    
    64   32   33 1    
    65   32   34 1    
    66   32  155 1    
    67   33  156 1    
    68   33  157 1    
    69   33  158 1    
    70   34   35 am   BACKBONE|DICT|INTERRES
    71   34  159 1    
    72   35   36 2    
    73   35   37 1    
    74   37   38 1    
    75   37   39 1    
    76   37  160 1    
    77   38  161 1    
    78   38  162 1    
    79   38  163 1    
    80   39   40 am   BACKBONE|DICT|INTERRES
    81   39  164 1    
    82   40   41 2    
    83   40   42 1    
    84   42   43 1    
    85   42   44 1    
    86   42  165 1    
    87   43  166 1    
    88   43  167 1    
    89   43  168 1    
    90   44   45 am   BACKBONE|DICT|INTERRES
    91   44  169 1    
    92   45   46 2    
    93   45   47 1    
    94   47   48 1    
    95   47   49 1    
    96   47  170 1    
    97   48  171 1    
    98   48  172 1    
    99   48  173 1    
   100   49   50 am   BACKBONE|DICT|INTERRES
   101   49  174 1    
   102   50   51 2    
   103   50   52 1    
   104   52   53 1    
   105   52   54 1    
   106   52  175 1    
   107   53  176 1    
   108   53  177 1    
   109   53  178 1    
   110   54   55 am   BACKBONE|DICT|INTERRES
   111   54  179 1    
   112   55   56 2    
   113   55   57 1    
   114   57   58 1    
   115   57   59 1    
   116   57  180 1    
   117   58  181 1    
   118   58  182 1    
   119   58  183 1    
   120   59   60 am   BACKBONE|DICT|INTERRES
   121   59  184 1    
   122   60   61 2    
   123   60   62 1    
   124   62   63 1    
   125   62   64 1    
   126   62  185 1    
   127   63  186 1    
   128   63  187 1    
   129   63  188 1    
   130   64   65 am   BACKBONE|DICT|INTERRES
   131   64  189 1    
   132   65   66 2    
   133   67   68 2    
   134   67   69 am   BACKBONE|DICT|INTERRES
   135   69   70 1    
   136   69  190 1    
   137   70   71 1    
   138   70   72 1    
   139   70  191 1    
   140   71  192 1    
   141   71  193 1    
   142   71  194 1    
   143   72   73 2    
   144   72   74 am   BACKBONE|DICT|INTERRES
   145   74   75 1    
   146   74  195 1    
   147   75   76 1    
   148   75   77 1    
   149   75  196 1    
   150   76  197 1    
   151   76  198 1    
   152   76  199 1    
   153   77   78 2    
   154   77   79 am   BACKBONE|DICT|INTERRES
   155   79   80 1    
   156   79  200 1    
   157   80   81 1    
   158   80   82 1    
   159   80  201 1    
   160   81  202 1    
   161   81  203 1    
   162   81  204 1    
   163   82   83 2    
   164   82   84 am   BACKBONE|DICT|INTERRES
   165   84   85 1    
   166   84  205 1    
   167   85   86 1    
   168   85   87 1    
   169   85  206 1    
   170   86  207 1    
   171   86  208 1    
   172   86  209 1    
   173   87   88 2    
   174   87   89 am   BACKBONE|DICT|INTERRES
   175   89   90 1    
   176   89  210 1    
   177   90   91 1    
   178   90   92 1    
   179   90  211 1    
   180   91  212 1    
   181   91  213 1    
   182   91  214 1    
   183   92   93 2    
   184   92   94 am   BACKBONE|DICT|INTERRES
   185   94   95 1    
   186   94  215 1    
   187   95   96 1    
   188   95   97 1    
   189   95  216 1    
   190   96  217 1    
   191   96  218 1    
   192   96  219 1    
   193   97   98 2    
   194   97   99 am   BACKBONE|DICT|INTERRES
   195   99  100 1    
   196   99  220 1    
   197  100  101 1    
   198  100  102 1    
   199  100  221 1    
   200  101  222 1    
   201  101  223 1    
   202  101  224 1    
   203  102  103 2    
   204  102  104 am   BACKBONE|DICT|INTERRES
   205  104  105 1    
   206  104  225 1    
   207  105  106 1    
   208  105  107 1    
   209  105  226 1    
   210  106  227 1    
   211  106  228 1    
   212  106  229 1    
   213  107  108 2    
   214  107  109 am   BACKBONE|DICT|INTERRES
   215  109  110 1    
   216  109  230 1    
   217  110  111 1    
   218  110  112 1    
   219  110  231 1    
   220  111  232 1    
   221  111  233 1    
   222  111  234 1    
   223  112  113 2    
   224  112  114 am   BACKBONE|DICT|INTERRES
   225  114  115 1    
   226  114  235 1    
   227  115  116 1    
   228  115  117 1    
   229  115  236 1    
   230  116  237 1    
   231  116  238 1    
   232  116  239 1    
   233  117  118 2    
   234  117  119 am   BACKBONE|DICT|INTERRES
   235  119  120 1    
   236  119  240 1    
   237  120  121 1    
   238  120  124 1    
   239  120  241 1    
   240  121  122 am   BACKBONE|DICT|INTERRES
   241  121  123 2    
   242  122  242 1    
   243  122  243 1    
   244  124  125 1    
   245  124  244 1    
   246  124  245 1    
   247  125  126 1    
   248  126  246 1    
   249  126  247 1    
@<TRIPOS>SUBSTRUCTURE
     1 UNK         1 GROUP             0       ****    0 ROOT    
