@<TRIPOS>MOLECULE
3R540
247   249    1
SMALL
USER_CHARGES


@<TRIPOS>ATOM
      1 CA          1.6540  -17.4249  -50.2732 C.3       0 UNK        -0.1800 
      2 C           1.5426  -17.1596  -48.7785 C.2       0 UNK         0.5000 
      3 O           2.5382  -17.2551  -48.0617 O.2       0 UNK        -0.5000 
      4 N           0.3373  -16.8098  -48.3116 N.am      1 UNK        -0.5000 
      5 CA          0.0327  -16.4553  -46.9191 C.3       1 UNK         0.1400 
      6 C6         -1.4907  -16.4787  -46.6261 C.3       23 UNK        -0.0398 
      7 S7         -2.5131  -15.5513  -47.8275 S.3       23 UNK        -0.2404 
      8 C8         -3.5478  -16.8682  -48.5482 C.3       23 UNK        -0.0205 
      9 C9         -2.7646  -17.7514  -49.5081 C.ar      23 UNK        -0.0193 
     10 C10        -2.6101  -17.3705  -50.8441 C.ar      23 UNK        -0.1150 
     11 C11        -1.8989  -18.1796  -51.7348 C.ar      23 UNK        -0.0193 
     12 C12        -1.3196  -19.3649  -51.2769 C.ar      23 UNK        -0.1150 
     13 C13        -1.4652  -19.7542  -49.9433 C.ar      23 UNK        -0.0193 
     14 C14        -2.2051  -18.9546  -49.0683 C.ar      23 UNK        -0.1150 
     15 C15        -0.8360  -21.0483  -49.4599 C.3       23 UNK        -0.0205 
     16 S16         0.8147  -20.7770  -48.7502 S.3       23 UNK        -0.2404 
     17 C17         0.4536  -20.4774  -46.9859 C.3       23 UNK        -0.0398 
     18 CA          0.5346  -21.7929  -46.1708 C.3       11 UNK         0.1400 
     19 N           1.2266  -21.6476  -44.8897 N.am      11 UNK        -0.5000 
     20 C           1.7380  -22.6888  -44.2168 C.2       10 UNK         0.5000 
     21 O           1.6655  -23.8543  -44.6097 O.2       10 UNK        -0.5000 
     22 CA          2.4035  -22.3880  -42.8639 C.3       10 UNK         0.1400 
     23 CB          3.8000  -21.7805  -43.0636 C.3       10 UNK        -0.1800 
     24 N           1.5912  -21.5074  -42.0254 N.am      10 UNK        -0.5000 
     25 C           0.3754  -21.8235  -41.5561 C.2       9 UNK         0.5000 
     26 O          -0.1760  -22.9068  -41.7567 O.2       9 UNK        -0.5000 
     27 CA         -0.3654  -20.7330  -40.7619 C.3       9 UNK         0.1400 
     28 CB          0.1517  -20.6685  -39.3171 C.3       9 UNK        -0.1800 
     29 N          -0.2678  -19.4095  -41.3805 N.am      9 UNK        -0.5000 
     30 C          -0.7491  -19.1006  -42.5931 C.2       8 UNK         0.5000 
     31 O          -1.3410  -19.8968  -43.3186 O.2       8 UNK        -0.5000 
     32 CA         -0.4744  -17.6834  -43.1185 C.3       8 UNK         0.1400 
     33 CB         -1.3964  -16.6482  -42.4599 C.3       8 UNK        -0.1800 
     34 N           0.9202  -17.2859  -42.9553 N.am      8 UNK        -0.5000 
     35 C           1.9600  -17.9106  -43.5247 C.2       7 UNK         0.5000 
     36 O           1.8515  -18.8765  -44.2805 O.2       7 UNK        -0.5000 
     37 CA          3.3584  -17.4071  -43.1340 C.3       7 UNK         0.1400 
     38 CB          3.7307  -16.1422  -43.9221 C.3       7 UNK        -0.1800 
     39 N           3.4591  -17.1460  -41.6977 N.am      7 UNK        -0.5000 
     40 C           3.3974  -18.0932  -40.7502 C.2       6 UNK         0.5000 
     41 O           3.2844  -19.2958  -40.9869 O.2       6 UNK        -0.5000 
     42 CA          3.4212  -17.6067  -39.2908 C.3       6 UNK         0.1400 
     43 CB          4.8569  -17.2947  -38.8428 C.3       6 UNK        -0.1800 
     44 N           2.5778  -16.4292  -39.0824 N.am      6 UNK        -0.5000 
     45 C           1.2415  -16.4290  -39.1889 C.2       5 UNK         0.5000 
     46 O           0.5749  -17.4289  -39.4518 O.2       5 UNK        -0.5000 
     47 CA          0.5345  -15.0739  -39.0115 C.3       5 UNK         0.1400 
     48 CB          0.2624  -14.7969  -37.5255 C.3       5 UNK        -0.1800 
     49 N           1.2772  -13.9504  -39.5893 N.am      5 UNK        -0.5000 
     50 C           1.5537  -13.8144  -40.8923 C.2       4 UNK         0.5000 
     51 O           1.2656  -14.6542  -41.7476 O.2       4 UNK        -0.5000 
     52 CA          2.3020  -12.5439  -41.3065 C.3       4 UNK         0.1400 
     53 CB          3.8114  -12.8113  -41.4244 C.3       4 UNK        -0.1800 
     54 N           1.7808  -12.0985  -42.5946 N.am      4 UNK        -0.5000 
     55 C           1.5536  -10.8232  -42.9321 C.2       3 UNK         0.5000 
     56 O           1.8207   -9.8688  -42.1995 O.2       3 UNK        -0.5000 
     57 CA          0.9457  -10.5797  -44.3252 C.3       3 UNK         0.1400 
     58 CB          1.0846   -9.1221  -44.8068 C.3       3 UNK        -0.1800 
     59 N           1.5543  -11.4826  -45.2988 N.am      3 UNK        -0.5000 
     60 C           0.9315  -12.0213  -46.3520 C.2       2 UNK         0.5000 
     61 O          -0.2415  -11.7826  -46.6471 O.2       2 UNK        -0.5000 
     62 CA          1.7482  -12.9874  -47.2384 C.3       2 UNK         0.1400 
     63 CB          3.1994  -13.2237  -46.7579 C.3       2 UNK        -0.1800 
     64 N           1.0657  -14.2703  -47.4232 N.am      2 UNK        -0.5000 
     65 C           0.6775  -15.1259  -46.4641 C.2       1 UNK         0.5000 
     66 O           0.8223  -14.9158  -45.2599 O.2       1 UNK        -0.5000 
     67 C          -0.8381  -22.4793  -46.0184 C.2       11 UNK         0.5000 
     68 O          -1.2092  -23.2614  -46.8889 O.2       11 UNK        -0.5000 
     69 N          -1.5522  -22.2411  -44.9084 N.am      12 UNK        -0.5000 
     70 CA         -2.8046  -22.9302  -44.5802 C.3       12 UNK         0.1400 
     71 CB         -3.4429  -22.3028  -43.3322 C.3       12 UNK        -0.1800 
     72 C          -2.6239  -24.4489  -44.3936 C.2       12 UNK         0.5000 
     73 O          -3.4924  -25.2146  -44.8126 O.2       12 UNK        -0.5000 
     74 N          -1.4883  -24.8577  -43.8092 N.am      13 UNK        -0.5000 
     75 CA         -1.0886  -26.2595  -43.6806 C.3       13 UNK         0.1400 
     76 CB          0.0586  -26.3754  -42.6654 C.3       13 UNK        -0.1800 
     77 C          -0.6980  -26.8908  -45.0324 C.2       13 UNK         0.5000 
     78 O          -1.0277  -28.0526  -45.2742 O.2       13 UNK        -0.5000 
     79 N          -0.0185  -26.1174  -45.8917 N.am      14 UNK        -0.5000 
     80 CA          0.3783  -26.5240  -47.2443 C.3       14 UNK         0.1400 
     81 CB          1.4645  -25.5651  -47.7560 C.3       14 UNK        -0.1800 
     82 C          -0.7980  -26.5809  -48.2432 C.2       14 UNK         0.5000 
     83 O          -0.7365  -27.3592  -49.1958 O.2       14 UNK        -0.5000 
     84 N          -1.8266  -25.7595  -47.9912 N.am      15 UNK        -0.5000 
     85 CA         -3.0110  -25.4498  -48.7968 C.3       15 UNK         0.1400 
     86 CB         -3.7298  -26.7140  -49.3086 C.3       15 UNK        -0.1800 
     87 C          -2.7036  -24.4563  -49.9351 C.2       15 UNK         0.5000 
     88 O          -1.5747  -24.3842  -50.4269 O.2       15 UNK        -0.5000 
     89 N          -3.7317  -23.6897  -50.3233 N.am      16 UNK        -0.5000 
     90 CA         -3.6836  -22.6910  -51.3936 C.3       16 UNK         0.1400 
     91 CB         -4.9391  -21.8082  -51.3076 C.3       16 UNK        -0.1800 
     92 C          -3.5510  -23.3186  -52.7940 C.2       16 UNK         0.5000 
     93 O          -3.8766  -24.4939  -52.9848 O.2       16 UNK        -0.5000 
     94 N          -3.0912  -22.5055  -53.7534 N.am      17 UNK        -0.5000 
     95 CA         -2.9583  -22.8704  -55.1636 C.3       17 UNK         0.1400 
     96 CB         -2.1811  -21.7609  -55.8892 C.3       17 UNK        -0.1800 
     97 C          -4.3248  -23.0895  -55.8396 C.2       17 UNK         0.5000 
     98 O          -5.3223  -22.4928  -55.4261 O.2       17 UNK        -0.5000 
     99 N          -4.3304  -23.8986  -56.9079 N.am      18 UNK        -0.5000 
    100 CA        -5.5156  -24.2791  -57.6882 C.3       18 UNK         0.1400 
    101 CB        -5.1040  -25.3245  -58.7365 C.3       18 UNK        -0.1800 
    102 C         -6.2536  -23.1030  -58.3622 C.2       18 UNK         0.5000 
    103 O         -7.4348  -23.2355  -58.6847 O.2       18 UNK        -0.5000 
    104 N         -5.5579  -21.9715  -58.5421 N.am      19 UNK        -0.5000 
    105 CA        -6.1172  -20.7050  -59.0159 C.3       19 UNK         0.1400 
    106 CB        -4.9608  -19.7474  -59.3445 C.3       19 UNK        -0.1800 
    107 C         -7.0818  -20.0423  -58.0104 C.2       19 UNK         0.5000 
    108 O         -7.9053  -19.2265  -58.4273 O.2       19 UNK        -0.5000 
    109 N         -6.9528  -20.3840  -56.7172 N.am      20 UNK        -0.5000 
    110 CA        -7.6916  -19.8957  -55.5451 C.3       20 UNK         0.1400 
    111 CB        -9.1956  -20.2122  -55.6499 C.3       20 UNK        -0.1800 
    112 C         -7.4459  -18.4089  -55.2248 C.2       20 UNK         0.5000 
    113 O         -7.0332  -18.0845  -54.1116 O.2       20 UNK        -0.5000 
    114 N         -7.6594  -17.5330  -56.2116 N.am      21 UNK        -0.5000 
    115 CA        -7.4157  -16.0921  -56.1617 C.3       21 UNK         0.1400 
    116 CB        -8.4350  -15.3913  -57.0778 C.3       21 UNK        -0.1800 
    117 C         -5.9539  -15.7614  -56.5315 C.2       21 UNK         0.5000 
    118 O         -5.7037  -14.8866  -57.3627 O.2       21 UNK        -0.5000 
    119 N         -5.0103  -16.4866  -55.9208 N.am      22 UNK        -0.5000 
    120 CA        -3.5594  -16.3401  -56.1142 C.3       22 UNK         0.1400 
    121 C         -2.9183  -15.1152  -55.3964 C.2       22 UNK         0.5000 
    122 N         -3.6253  -14.4034  -54.5269 N.am      22 UNK        -0.7600 
    123 O         -1.7576  -14.7988  -55.6420 O.2       22 UNK        -0.5000 
    124 C124       -2.8076  -17.6618  -55.8016 C.3       23 UNK        -0.0398 
    125 S125       -3.1830  -18.3686  -54.1581 S.3       23 UNK        -0.2404 
    126 C126       -1.7613  -17.7762  -53.1917 C.3       23 UNK        -0.0205 
    127 H127        1.8862  -18.4740  -50.4543 H         1 UNK         0.0600 
    128 H128        2.4508  -16.8190  -50.7042 H         1 UNK         0.0600 
    129 H129        0.7278  -17.1858  -50.7956 H         1 UNK         0.0600 
    130 H130       -0.4494  -16.7671  -48.9455 H         1 UNK         0.3000 
    131 H131        0.4888  -17.2268  -46.2953 H         1 UNK         0.0600 
    132 H132       -1.8294  -17.5132  -46.5875 H         1 UNK         0.0800 
    133 H133       -1.7012  -16.0794  -45.6323 H         1 UNK         0.0800 
    134 H134       -3.9958  -17.4651  -47.7522 H         1 UNK         0.0800 
    135 H135       -4.3803  -16.4053  -49.0803 H         1 UNK         0.0800 
    136 H136       -3.0535  -16.4488  -51.1948 H         1 UNK         0.1150 
    137 H137       -0.7589  -19.9870  -51.9603 H         1 UNK         0.1150 
    138 H138       -2.3405  -19.2665  -48.0435 H         1 UNK         0.1150 
    139 H139       -1.4965  -21.5408  -48.7483 H         1 UNK         0.0800 
    140 H140       -0.7238  -21.7419  -50.2937 H         1 UNK         0.0800 
    141 H141        1.2142  -19.7743  -46.6459 H         1 UNK         0.0800 
    142 H142       -0.4977  -19.9612  -46.8562 H         1 UNK         0.0800 
    143 H143        1.1511  -22.4901  -46.7420 H         1 UNK         0.0600 
    144 H144        1.3414  -20.7049  -44.5253 H         1 UNK         0.3000 
    145 H145        2.5202  -23.3364  -42.3352 H         1 UNK         0.0600 
    146 H146        4.3153  -21.6588  -42.1107 H         1 UNK         0.0600 
    147 H147        4.4206  -22.4236  -43.6887 H         1 UNK         0.0600 
    148 H148        3.7504  -20.8028  -43.5435 H         1 UNK         0.0600 
    149 H149        1.9955  -20.6072  -41.7863 H         1 UNK         0.3000 
    150 H150       -1.4219  -21.0068  -40.7314 H         1 UNK         0.0600 
    151 H151        0.0883  -21.6444  -38.8341 H         1 UNK         0.0600 
    152 H152       -0.4364  -19.9715  -38.7199 H         1 UNK         0.0600 
    153 H153        1.1930  -20.3468  -39.2764 H         1 UNK         0.0600 
    154 H154        0.1823  -18.6838  -40.8285 H         1 UNK         0.3000 
    155 H155       -0.6864  -17.6926  -44.1871 H         1 UNK         0.0600 
    156 H156       -1.2408  -15.6571  -42.8873 H         1 UNK         0.0600 
    157 H157       -1.2238  -16.5796  -41.3861 H         1 UNK         0.0600 
    158 H158       -2.4450  -16.9081  -42.6094 H         1 UNK         0.0600 
    159 H159        1.0948  -16.4553  -42.3961 H         1 UNK         0.3000 
    160 H160        4.0771  -18.1890  -43.3883 H         1 UNK         0.0600 
    161 H161        3.0637  -15.3116  -43.6909 H         1 UNK         0.0600 
    162 H162        3.6660  -16.3202  -44.9966 H         1 UNK         0.0600 
    163 H163        4.7505  -15.8253  -43.7042 H         1 UNK         0.0600 
    164 H164        3.4981  -16.1792  -41.4135 H         1 UNK         0.3000 
    165 H165        3.0365  -18.4147  -38.6646 H         1 UNK         0.0600 
    166 H166        5.2892  -16.4711  -39.4123 H         1 UNK         0.0600 
    167 H167        4.8903  -17.0267  -37.7866 H         1 UNK         0.0600 
    168 H168        5.5041  -18.1625  -38.9773 H         1 UNK         0.0600 
    169 H169        3.0445  -15.5615  -38.8640 H         1 UNK         0.3000 
    170 H170       -0.4267  -15.1356  -39.5258 H         1 UNK         0.0600 
    171 H171       -0.3063  -15.6114  -37.0746 H         1 UNK         0.0600 
    172 H172        1.1879  -14.6896  -36.9584 H         1 UNK         0.0600 
    173 H173       -0.3202  -13.8849  -37.3943 H         1 UNK         0.0600 
    174 H174        1.5576  -13.2214  -38.9489 H         1 UNK         0.3000 
    175 H175        2.1313  -11.7805  -40.5443 H         1 UNK         0.0600 
    176 H176        4.3503  -11.9025  -41.6929 H         1 UNK         0.0600 
    177 H177        4.2228  -13.1652  -40.4783 H         1 UNK         0.0600 
    178 H178        4.0304  -13.5640  -42.1822 H         1 UNK         0.0600 
    179 H179        1.4788  -12.8438  -43.2115 H         1 UNK         0.3000 
    180 H180       -0.1177  -10.8102  -44.2327 H         1 UNK         0.0600 
    181 H181        0.6133   -8.9808  -45.7795 H         1 UNK         0.0600 
    182 H182        0.6041   -8.4307  -44.1135 H         1 UNK         0.0600 
    183 H183        2.1311   -8.8285  -44.8957 H         1 UNK         0.0600 
    184 H184        2.5130  -11.7444  -45.1148 H         1 UNK         0.3000 
    185 H185        1.7997  -12.5221  -48.2237 H         1 UNK         0.0600 
    186 H186        3.7256  -13.8986  -47.4334 H         1 UNK         0.0600 
    187 H187        3.7666  -12.2925  -46.7350 H         1 UNK         0.0600 
    188 H188        3.2372  -13.6658  -45.7617 H         1 UNK         0.0600 
    189 H189        0.8630  -14.5251  -48.3787 H         1 UNK         0.3000 
    190 H190       -1.2364  -21.5358  -44.2472 H         1 UNK         0.3000 
    191 H191       -3.4906  -22.7836  -45.4172 H         1 UNK         0.0600 
    192 H192       -4.3715  -22.8111  -43.0698 H         1 UNK         0.0600 
    193 H193       -3.6856  -21.2535  -43.4995 H         1 UNK         0.0600 
    194 H194       -2.7808  -22.3614  -42.4684 H         1 UNK         0.0600 
    195 H195       -0.8459  -24.1617  -43.4486 H         1 UNK         0.3000 
    196 H196       -1.9401  -26.8192  -43.2878 H         1 UNK         0.0600 
    197 H197        0.3451  -27.4175  -42.5186 H         1 UNK         0.0600 
    198 H198       -0.2343  -25.9777  -41.6935 H         1 UNK         0.0600 
    199 H199        0.9465  -25.8345  -42.9923 H         1 UNK         0.0600 
    200 H200        0.2615  -25.1910  -45.5919 H         1 UNK         0.3000 
    201 H201        0.8118  -27.5245  -47.1842 H         1 UNK         0.0600 
    202 H202        2.3051  -25.5094  -47.0640 H         1 UNK         0.0600 
    203 H203        1.0747  -24.5568  -47.8960 H         1 UNK         0.0600 
    204 H204        1.8544  -25.8985  -48.7184 H         1 UNK         0.0600 
    205 H205       -1.6701  -25.0896  -47.2440 H         1 UNK         0.3000 
    206 H206       -3.6880  -24.9452  -48.1054 H         1 UNK         0.0600 
    207 H207       -3.8954  -27.4296  -48.5031 H         1 UNK         0.0600 
    208 H208       -4.7052  -26.4620  -49.7257 H         1 UNK         0.0600 
    209 H209       -3.1660  -27.2139  -50.0965 H         1 UNK         0.0600 
    210 H210       -4.6343  -23.8346  -49.8957 H         1 UNK         0.3000 
    211 H211       -2.8125  -22.0578  -51.2300 H         1 UNK         0.0600 
    212 H212       -5.8503  -22.3887  -51.4578 H         1 UNK         0.0600 
    213 H213       -4.9218  -21.0238  -52.0659 H         1 UNK         0.0600 
    214 H214       -5.0079  -21.3143  -50.3380 H         1 UNK         0.0600 
    215 H215       -2.8992  -21.5409  -53.5259 H         1 UNK         0.3000 
    216 H216       -2.3853  -23.7983  -55.2210 H         1 UNK         0.0600 
    217 H217       -1.9878  -22.0309  -56.9281 H         1 UNK         0.0600 
    218 H218       -1.2150  -21.5789  -55.4178 H         1 UNK         0.0600 
    219 H219       -2.7345  -20.8218  -55.8937 H         1 UNK         0.0600 
    220 H220       -3.4614  -24.3272  -57.1931 H         1 UNK         0.3000 
    221 H221       -6.2232  -24.7462  -57.0001 H         1 UNK         0.0600 
    222 H222       -4.3709  -24.9234  -59.4374 H         1 UNK         0.0600 
    223 H223       -4.6722  -26.2079  -58.2658 H         1 UNK         0.0600 
    224 H224       -5.9653  -25.6575  -59.3174 H         1 UNK         0.0600 
    225 H225       -4.5884  -21.9631  -58.2628 H         1 UNK         0.3000 
    226 H226       -6.6774  -20.8991  -59.9330 H         1 UNK         0.0600 
    227 H227       -4.3058  -20.1663  -60.1087 H         1 UNK         0.0600 
    228 H228       -5.3360  -18.7966  -59.7257 H         1 UNK         0.0600 
    229 H229       -4.3553  -19.5308  -58.4636 H         1 UNK         0.0600 
    230 H230       -6.2466  -21.0767  -56.4873 H         1 UNK         0.3000 
    231 H231       -7.3003  -20.4645  -54.6998 H         1 UNK         0.0600 
    232 H232       -9.7147  -19.9343  -54.7318 H         1 UNK         0.0600 
    233 H233       -9.3616  -21.2780  -55.8075 H         1 UNK         0.0600 
    234 H234       -9.6741  -19.6744  -56.4686 H         1 UNK         0.0600 
    235 H235       -7.9247  -17.9183  -57.1151 H         1 UNK         0.3000 
    236 H236       -7.5803  -15.7324  -55.1440 H         1 UNK         0.0600 
    237 H237       -8.3148  -15.6951  -58.1186 H         1 UNK         0.0600 
    238 H238       -9.4573  -15.6226  -56.7779 H         1 UNK         0.0600 
    239 H239       -8.3234  -14.3072  -57.0341 H         1 UNK         0.0600 
    240 H240       -5.2966  -17.1674  -55.2282 H         1 UNK         0.3000 
    241 H241       -3.4022  -16.1470  -57.1772 H         1 UNK         0.0600 
    242 H242       -4.5766  -14.6541  -54.3126 H         1 UNK         0.3800 
    243 H243       -3.2018  -13.6080  -54.0756 H         1 UNK         0.3800 
    244 H244       -3.0920  -18.4092  -56.5427 H         1 UNK         0.0800 
    245 H245       -1.7292  -17.5406  -55.9186 H         1 UNK         0.0800 
    246 H246       -0.8392  -18.1807  -53.6119 H         1 UNK         0.0800 
    247 H247       -1.6863  -16.6908  -53.2655 H         1 UNK         0.0800 
@<TRIPOS>BOND
     1    1    2 1    
     2    1  127 1    
     3    1  128 1    
     4    1  129 1    
     5    2    3 2    
     6    2    4 am   BACKBONE|DICT|INTERRES
     7    4    5 1    
     8    4  130 1    
     9    5    6 1    
    10    5   65 1    
    11    5  131 1    
    12    6    7 1    
    13    6  132 1    
    14    6  133 1    
    15    7    8 1    
    16    8    9 1    
    17    8  134 1    
    18    8  135 1    
    19    9   10 ar   
    20    9   14 ar   
    21   10   11 ar   
    22   10  136 1    
    23   11   12 ar   
    24   11  126 1    
    25   12   13 ar   
    26   12  137 1    
    27   13   14 ar   
    28   13   15 1    
    29   14  138 1    
    30   15   16 1    
    31   15  139 1    
    32   15  140 1    
    33   16   17 1    
    34   17   18 1    
    35   17  141 1    
    36   17  142 1    
    37   18   19 1    
    38   18   67 1    
    39   18  143 1    
    40   19   20 am   BACKBONE|DICT|INTERRES
    41   19  144 1    
    42   20   21 2    
    43   20   22 1    
    44   22   23 1    
    45   22   24 1    
    46   22  145 1    
    47   23  146 1    
    48   23  147 1    
    49   23  148 1    
    50   24   25 am   BACKBONE|DICT|INTERRES
    51   24  149 1    
    52   25   26 2    
    53   25   27 1    
    54   27   28 1    
    55   27   29 1    
    56   27  150 1    
    57   28  151 1    
    58   28  152 1    
    59   28  153 1    
    60   29   30 am   BACKBONE|DICT|INTERRES
    61   29  154 1    
    62   30   31 2    
    63   30   32 1    
    64   32   33 1    
    65   32   34 1    
    66   32  155 1    
    67   33  156 1    
    68   33  157 1    
    69   33  158 1    
    70   34   35 am   BACKBONE|DICT|INTERRES
    71   34  159 1    
    72   35   36 2    
    73   35   37 1    
    74   37   38 1    
    75   37   39 1    
    76   37  160 1    
    77   38  161 1    
    78   38  162 1    
    79   38  163 1    
    80   39   40 am   BACKBONE|DICT|INTERRES
    81   39  164 1    
    82   40   41 2    
    83   40   42 1    
    84   42   43 1    
    85   42   44 1    
    86   42  165 1    
    87   43  166 1    
    88   43  167 1    
    89   43  168 1    
    90   44   45 am   BACKBONE|DICT|INTERRES
    91   44  169 1    
    92   45   46 2    
    93   45   47 1    
    94   47   48 1    
    95   47   49 1    
    96   47  170 1    
    97   48  171 1    
    98   48  172 1    
    99   48  173 1    
   100   49   50 am   BACKBONE|DICT|INTERRES
   101   49  174 1    
   102   50   51 2    
   103   50   52 1    
   104   52   53 1    
   105   52   54 1    
   106   52  175 1    
   107   53  176 1    
   108   53  177 1    
   109   53  178 1    
   110   54   55 am   BACKBONE|DICT|INTERRES
   111   54  179 1    
   112   55   56 2    
   113   55   57 1    
   114   57   58 1    
   115   57   59 1    
   116   57  180 1    
   117   58  181 1    
   118   58  182 1    
   119   58  183 1    
   120   59   60 am   BACKBONE|DICT|INTERRES
   121   59  184 1    
   122   60   61 2    
   123   60   62 1    
   124   62   63 1    
   125   62   64 1    
   126   62  185 1    
   127   63  186 1    
   128   63  187 1    
   129   63  188 1    
   130   64   65 am   BACKBONE|DICT|INTERRES
   131   64  189 1    
   132   65   66 2    
   133   67   68 2    
   134   67   69 am   BACKBONE|DICT|INTERRES
   135   69   70 1    
   136   69  190 1    
   137   70   71 1    
   138   70   72 1    
   139   70  191 1    
   140   71  192 1    
   141   71  193 1    
   142   71  194 1    
   143   72   73 2    
   144   72   74 am   BACKBONE|DICT|INTERRES
   145   74   75 1    
   146   74  195 1    
   147   75   76 1    
   148   75   77 1    
   149   75  196 1    
   150   76  197 1    
   151   76  198 1    
   152   76  199 1    
   153   77   78 2    
   154   77   79 am   BACKBONE|DICT|INTERRES
   155   79   80 1    
   156   79  200 1    
   157   80   81 1    
   158   80   82 1    
   159   80  201 1    
   160   81  202 1    
   161   81  203 1    
   162   81  204 1    
   163   82   83 2    
   164   82   84 am   BACKBONE|DICT|INTERRES
   165   84   85 1    
   166   84  205 1    
   167   85   86 1    
   168   85   87 1    
   169   85  206 1    
   170   86  207 1    
   171   86  208 1    
   172   86  209 1    
   173   87   88 2    
   174   87   89 am   BACKBONE|DICT|INTERRES
   175   89   90 1    
   176   89  210 1    
   177   90   91 1    
   178   90   92 1    
   179   90  211 1    
   180   91  212 1    
   181   91  213 1    
   182   91  214 1    
   183   92   93 2    
   184   92   94 am   BACKBONE|DICT|INTERRES
   185   94   95 1    
   186   94  215 1    
   187   95   96 1    
   188   95   97 1    
   189   95  216 1    
   190   96  217 1    
   191   96  218 1    
   192   96  219 1    
   193   97   98 2    
   194   97   99 am   BACKBONE|DICT|INTERRES
   195   99  100 1    
   196   99  220 1    
   197  100  101 1    
   198  100  102 1    
   199  100  221 1    
   200  101  222 1    
   201  101  223 1    
   202  101  224 1    
   203  102  103 2    
   204  102  104 am   BACKBONE|DICT|INTERRES
   205  104  105 1    
   206  104  225 1    
   207  105  106 1    
   208  105  107 1    
   209  105  226 1    
   210  106  227 1    
   211  106  228 1    
   212  106  229 1    
   213  107  108 2    
   214  107  109 am   BACKBONE|DICT|INTERRES
   215  109  110 1    
   216  109  230 1    
   217  110  111 1    
   218  110  112 1    
   219  110  231 1    
   220  111  232 1    
   221  111  233 1    
   222  111  234 1    
   223  112  113 2    
   224  112  114 am   BACKBONE|DICT|INTERRES
   225  114  115 1    
   226  114  235 1    
   227  115  116 1    
   228  115  117 1    
   229  115  236 1    
   230  116  237 1    
   231  116  238 1    
   232  116  239 1    
   233  117  118 2    
   234  117  119 am   BACKBONE|DICT|INTERRES
   235  119  120 1    
   236  119  240 1    
   237  120  121 1    
   238  120  124 1    
   239  120  241 1    
   240  121  122 am   BACKBONE|DICT|INTERRES
   241  121  123 2    
   242  122  242 1    
   243  122  243 1    
   244  124  125 1    
   245  124  244 1    
   246  124  245 1    
   247  125  126 1    
   248  126  246 1    
   249  126  247 1    
@<TRIPOS>SUBSTRUCTURE
     1 UNK         1 GROUP             0       ****    0 ROOT    
