@<TRIPOS>MOLECULE
3R540
247   249    1
SMALL
USER_CHARGES


@<TRIPOS>ATOM
      1 CA         -3.6431  -11.5227  -47.3864 C.3       0 UNK        -0.1800 
      2 C          -2.8430  -12.8032  -47.1984 C.2       0 UNK         0.5000 
      3 O          -1.8245  -12.7848  -46.5122 O.2       0 UNK        -0.5000 
      4 N          -3.3024  -13.9021  -47.8086 N.am      1 UNK        -0.5000 
      5 CA         -2.7024  -15.2420  -47.7270 C.3       1 UNK         0.1400 
      6 C6         -2.5507  -15.8324  -49.1513 C.3       23 UNK        -0.0398 
      7 S7         -1.3783  -17.2220  -49.2819 S.3       23 UNK        -0.2404 
      8 C8          0.2119  -16.3736  -49.5742 C.3       23 UNK        -0.0205 
      9 C9          1.1878  -17.3139  -50.2668 C.ar      23 UNK        -0.0193 
     10 C10         1.6152  -17.0715  -51.5737 C.ar      23 UNK        -0.1150 
     11 C11         2.4405  -17.9890  -52.2291 C.ar      23 UNK        -0.0193 
     12 C12         2.7992  -19.1762  -51.5823 C.ar      23 UNK        -0.1150 
     13 C13         2.3833  -19.4368  -50.2717 C.ar      23 UNK        -0.0193 
     14 C14         1.6235  -18.4638  -49.6082 C.ar      23 UNK        -0.1150 
     15 C15         2.7257  -20.8034  -49.6618 C.3       23 UNK        -0.0205 
     16 S16         2.5304  -20.9941  -47.8511 S.3       23 UNK        -0.2404 
     17 C17         0.7276  -20.8369  -47.6063 C.3       23 UNK        -0.0398 
     18 CA         -0.0149  -22.0852  -47.0891 C.3       11 UNK         0.1400 
     19 N           0.6562  -22.7275  -45.9566 N.am      11 UNK        -0.5000 
     20 C           0.3459  -23.9461  -45.4935 C.2       10 UNK         0.5000 
     21 O          -0.5314  -24.6563  -45.9818 O.2       10 UNK        -0.5000 
     22 CA          1.1062  -24.4277  -44.2443 C.3       10 UNK         0.1400 
     23 CB          2.4293  -25.0965  -44.6442 C.3       10 UNK        -0.1800 
     24 N           1.3810  -23.3577  -43.2833 N.am      10 UNK        -0.5000 
     25 C           0.4672  -22.5806  -42.6892 C.2       9 UNK         0.5000 
     26 O          -0.7414  -22.6837  -42.8988 O.2       9 UNK        -0.5000 
     27 CA          0.9733  -21.4697  -41.7482 C.3       9 UNK         0.1400 
     28 CB          1.0043  -21.9517  -40.2863 C.3       9 UNK        -0.1800 
     29 N           2.2508  -20.8579  -42.1453 N.am      9 UNK        -0.5000 
     30 C           3.4836  -21.3928  -42.1584 C.2       8 UNK         0.5000 
     31 O           3.7215  -22.5581  -41.8406 O.2       8 UNK        -0.5000 
     32 CA          4.6459  -20.5086  -42.6586 C.3       8 UNK         0.1400 
     33 CB          5.1355  -21.0048  -44.0292 C.3       8 UNK        -0.1800 
     34 N           4.2974  -19.0930  -42.7778 N.am      8 UNK        -0.5000 
     35 C           4.1065  -18.2489  -41.7547 C.2       7 UNK         0.5000 
     36 O           4.2990  -18.5483  -40.5761 O.2       7 UNK        -0.5000 
     37 CA          3.5793  -16.8436  -42.1089 C.3       7 UNK         0.1400 
     38 CB          4.7218  -15.8173  -42.0978 C.3       7 UNK        -0.1800 
     39 N           2.8964  -16.7755  -43.4048 N.am      7 UNK        -0.5000 
     40 C           1.7591  -17.4049  -43.7278 C.2       6 UNK         0.5000 
     41 O           1.1669  -18.1648  -42.9593 O.2       6 UNK        -0.5000 
     42 CA          1.2089  -17.1402  -45.1453 C.3       6 UNK         0.1400 
     43 CB         -0.1268  -17.8566  -45.3987 C.3       6 UNK        -0.1800 
     44 N           1.0387  -15.7081  -45.3907 N.am      6 UNK        -0.5000 
     45 C           2.0196  -14.8522  -45.7103 C.2       5 UNK         0.5000 
     46 O           3.1793  -15.2045  -45.9288 O.2       5 UNK        -0.5000 
     47 CA          1.6684  -13.3524  -45.7268 C.3       5 UNK         0.1400 
     48 CB          1.2943  -12.9107  -47.1497 C.3       5 UNK        -0.1800 
     49 N           0.5882  -13.0156  -44.7935 N.am      5 UNK        -0.5000 
     50 C           0.7013  -13.0775  -43.4562 C.2       4 UNK         0.5000 
     51 O           1.7578  -13.3345  -42.8771 O.2       4 UNK        -0.5000 
     52 CA         -0.5686  -12.8437  -42.6084 C.3       4 UNK         0.1400 
     53 CB         -1.5413  -11.8129  -43.2171 C.3       4 UNK        -0.1800 
     54 N          -1.2755  -14.0875  -42.2713 N.am      4 UNK        -0.5000 
     55 C          -1.7333  -15.0107  -43.1295 C.2       3 UNK         0.5000 
     56 O          -1.5587  -14.9517  -44.3470 O.2       3 UNK        -0.5000 
     57 CA         -2.5048  -16.2225  -42.5628 C.3       3 UNK         0.1400 
     58 CB         -3.0226  -16.0443  -41.1182 C.3       3 UNK        -0.1800 
     59 N          -3.5725  -16.6040  -43.4957 N.am      3 UNK        -0.5000 
     60 C          -4.6638  -15.8875  -43.8018 C.2       2 UNK         0.5000 
     61 O          -5.0627  -14.9128  -43.1620 O.2       2 UNK        -0.5000 
     62 CA         -5.3593  -16.2751  -45.1197 C.3       2 UNK         0.1400 
     63 CB         -6.8259  -15.8141  -45.1796 C.3       2 UNK        -0.1800 
     64 N          -4.6220  -15.6564  -46.2200 N.am      2 UNK        -0.5000 
     65 C          -3.5055  -16.1581  -46.7677 C.2       1 UNK         0.5000 
     66 O          -3.1015  -17.2921  -46.5095 O.2       1 UNK        -0.5000 
     67 C          -1.4670  -21.6797  -46.7517 C.2       11 UNK         0.5000 
     68 O          -2.3219  -21.6946  -47.6376 O.2       11 UNK        -0.5000 
     69 N          -1.7164  -21.3111  -45.4860 N.am      12 UNK        -0.5000 
     70 CA         -3.0412  -20.9569  -44.9782 C.3       12 UNK         0.1400 
     71 CB         -2.9105  -20.1463  -43.6796 C.3       12 UNK        -0.1800 
     72 C          -3.8948  -22.2172  -44.7689 C.2       12 UNK         0.5000 
     73 O          -5.0654  -22.2247  -45.1488 O.2       12 UNK        -0.5000 
     74 N          -3.2696  -23.2817  -44.2420 N.am      13 UNK        -0.5000 
     75 CA         -3.8460  -24.6225  -44.0997 C.3       13 UNK         0.1400 
     76 CB         -2.8696  -25.5134  -43.3179 C.3       13 UNK        -0.1800 
     77 C          -4.2184  -25.2711  -45.4495 C.2       13 UNK         0.5000 
     78 O          -5.1771  -26.0403  -45.5097 O.2       13 UNK        -0.5000 
     79 N          -3.5008  -24.8952  -46.5175 N.am      14 UNK        -0.5000 
     80 CA         -3.7910  -25.2218  -47.9166 C.3       14 UNK         0.1400 
     81 CB         -2.4876  -25.1241  -48.7289 C.3       14 UNK        -0.1800 
     82 C          -4.9156  -24.3564  -48.5370 C.2       14 UNK         0.5000 
     83 O          -5.0508  -24.3357  -49.7609 O.2       14 UNK        -0.5000 
     84 N          -5.7023  -23.6702  -47.6943 N.am      15 UNK        -0.5000 
     85 CA         -6.8420  -22.8085  -48.0151 C.3       15 UNK         0.1400 
     86 CB         -7.9599  -23.5949  -48.7333 C.3       15 UNK        -0.1800 
     87 C          -6.4183  -21.5224  -48.7483 C.2       15 UNK         0.5000 
     88 O          -7.0377  -21.1517  -49.7465 O.2       15 UNK        -0.5000 
     89 N          -5.3779  -20.8661  -48.2096 N.am      16 UNK        -0.5000 
     90 CA         -4.7699  -19.6154  -48.6772 C.3       16 UNK         0.1400 
     91 CB         -5.7698  -18.4447  -48.5638 C.3       16 UNK        -0.1800 
     92 C          -4.1865  -19.7769  -50.0925 C.2       16 UNK         0.5000 
     93 O          -4.7696  -19.2890  -51.0619 O.2       16 UNK        -0.5000 
     94 N          -3.0586  -20.4993  -50.1662 N.am      17 UNK        -0.5000 
     95 CA         -2.3948  -21.0222  -51.3680 C.3       17 UNK         0.1400 
     96 CB         -0.9979  -21.5375  -50.9954 C.3       17 UNK        -0.1800 
     97 C          -2.2812  -20.0810  -52.5817 C.2       17 UNK         0.5000 
     98 O          -2.3207  -20.5722  -53.7084 O.2       17 UNK        -0.5000 
     99 N          -2.1818  -18.7616  -52.3661 N.am      18 UNK        -0.5000 
    100 CA        -2.2029  -17.7415  -53.4218 C.3       18 UNK         0.1400 
    101 CB        -2.0571  -16.3494  -52.7939 C.3       18 UNK        -0.1800 
    102 C         -3.4634  -17.7878  -54.3128 C.2       18 UNK         0.5000 
    103 O         -3.3711  -17.4909  -55.5042 O.2       18 UNK        -0.5000 
    104 N         -4.6024  -18.2124  -53.7438 N.am      19 UNK        -0.5000 
    105 CA        -5.8605  -18.4434  -54.4605 C.3       19 UNK         0.1400 
    106 CB        -7.0010  -18.5822  -53.4406 C.3       19 UNK        -0.1800 
    107 C         -5.8151  -19.6750  -55.3898 C.2       19 UNK         0.5000 
    108 O         -6.6202  -19.7623  -56.3170 O.2       19 UNK        -0.5000 
    109 N         -4.8646  -20.5853  -55.1437 N.am      20 UNK        -0.5000 
    110 CA        -4.5589  -21.7634  -55.9538 C.3       20 UNK         0.1400 
    111 CB        -4.4826  -22.9891  -55.0255 C.3       20 UNK        -0.1800 
    112 C         -3.2501  -21.5553  -56.7461 C.2       20 UNK         0.5000 
    113 O         -2.5606  -22.5281  -57.0585 O.2       20 UNK        -0.5000 
    114 N         -2.9124  -20.2868  -57.0315 N.am      21 UNK        -0.5000 
    115 CA        -1.7351  -19.8187  -57.7724 C.3       21 UNK         0.1400 
    116 CB        -1.8406  -20.2198  -59.2587 C.3       21 UNK        -0.1800 
    117 C         -0.3929  -20.2346  -57.1316 C.2       21 UNK         0.5000 
    118 O          0.5836  -20.4669  -57.8465 O.2       21 UNK        -0.5000 
    119 N         -0.3784  -20.3259  -55.7952 N.am      22 UNK        -0.5000 
    120 CA         0.7452  -20.7649  -54.9499 C.3       22 UNK         0.1400 
    121 C          1.0208  -22.2984  -55.0088 C.2       22 UNK         0.5000 
    122 N          0.1486  -23.1141  -55.5921 N.am      22 UNK        -0.7600 
    123 O          2.0292  -22.7675  -54.4883 O.2       22 UNK        -0.5000 
    124 C124        2.0355  -19.9143  -55.1257 C.3       23 UNK        -0.0398 
    125 S125        1.7446  -18.1211  -54.9175 S.3       23 UNK        -0.2404 
    126 C126        2.9510  -17.6823  -53.6288 C.3       23 UNK        -0.0205 
    127 H127       -3.0215  -10.7590  -47.8537 H         1 UNK         0.0600 
    128 H128       -3.9775  -11.1464  -46.4196 H         1 UNK         0.0600 
    129 H129       -4.5209  -11.6786  -48.0138 H         1 UNK         0.0600 
    130 H130       -4.1338  -13.8316  -48.3787 H         1 UNK         0.3000 
    131 H131       -1.7023  -15.1612  -47.2953 H         1 UNK         0.0600 
    132 H132       -2.2142  -15.0547  -49.8383 H         1 UNK         0.0800 
    133 H133       -3.5160  -16.1579  -49.5399 H         1 UNK         0.0800 
    134 H134        0.6280  -16.0440  -48.6210 H         1 UNK         0.0800 
    135 H135        0.0571  -15.4774  -50.1761 H         1 UNK         0.0800 
    136 H136        1.3038  -16.1726  -52.0867 H         1 UNK         0.1150 
    137 H137        3.4054  -19.9042  -52.1026 H         1 UNK         0.1150 
    138 H138        1.3084  -18.5930  -48.5882 H         1 UNK         0.1150 
    139 H139        2.1198  -21.5640  -50.1561 H         1 UNK         0.0800 
    140 H140        3.7634  -21.0401  -49.9011 H         1 UNK         0.0800 
    141 H141        0.5991  -20.0081  -46.9155 H         1 UNK         0.0800 
    142 H142        0.2588  -20.5246  -48.5379 H         1 UNK         0.0800 
    143 H143       -0.0548  -22.8123  -47.9030 H         1 UNK         0.0600 
    144 H144        1.4075  -22.2151  -45.5192 H         1 UNK         0.3000 
    145 H145        0.4832  -25.1701  -43.7423 H         1 UNK         0.0600 
    146 H146        2.9367  -25.5166  -43.7755 H         1 UNK         0.0600 
    147 H147        2.2581  -25.9133  -45.3467 H         1 UNK         0.0600 
    148 H148        3.1101  -24.3895  -45.1202 H         1 UNK         0.0600 
    149 H149        2.3471  -23.2286  -42.9989 H         1 UNK         0.3000 
    150 H150        0.2392  -20.6643  -41.8076 H         1 UNK         0.0600 
    151 H151        0.0162  -22.2864  -39.9683 H         1 UNK         0.0600 
    152 H152        1.3078  -21.1493  -39.6138 H         1 UNK         0.0600 
    153 H153        1.6901  -22.7872  -40.1443 H         1 UNK         0.0600 
    154 H154        2.1597  -19.8944  -42.4494 H         1 UNK         0.3000 
    155 H155        5.4642  -20.6059  -41.9422 H         1 UNK         0.0600 
    156 H156        5.9955  -20.4298  -44.3730 H         1 UNK         0.0600 
    157 H157        4.3555  -20.9293  -44.7883 H         1 UNK         0.0600 
    158 H158        5.4456  -22.0497  -43.9812 H         1 UNK         0.0600 
    159 H159        4.1321  -18.7465  -43.7110 H         1 UNK         0.3000 
    160 H160        2.8579  -16.5627  -41.3388 H         1 UNK         0.0600 
    161 H161        5.4629  -16.0323  -42.8687 H         1 UNK         0.0600 
    162 H162        5.2373  -15.8146  -41.1365 H         1 UNK         0.0600 
    163 H163        4.3449  -14.8080  -42.2662 H         1 UNK         0.0600 
    164 H164        3.3079  -16.1671  -44.1043 H         1 UNK         0.3000 
    165 H165        1.9374  -17.5425  -45.8524 H         1 UNK         0.0600 
    166 H166       -0.9347  -17.4249  -44.8137 H         1 UNK         0.0600 
    167 H167       -0.4107  -17.7982  -46.4489 H         1 UNK         0.0600 
    168 H168       -0.0737  -18.9099  -45.1269 H         1 UNK         0.0600 
    169 H169        0.1236  -15.3243  -45.1646 H         1 UNK         0.3000 
    170 H170        2.5584  -12.7975  -45.4230 H         1 UNK         0.0600 
    171 H171        2.1399  -13.0325  -47.8277 H         1 UNK         0.0600 
    172 H172        0.4703  -13.5008  -47.5518 H         1 UNK         0.0600 
    173 H173        1.0023  -11.8608  -47.1766 H         1 UNK         0.0600 
    174 H174       -0.3330  -12.8777  -45.2042 H         1 UNK         0.3000 
    175 H175       -0.2189  -12.4265  -41.6627 H         1 UNK         0.0600 
    176 H176       -2.1065  -12.2218  -44.0523 H         1 UNK         0.0600 
    177 H177       -2.2641  -11.4795  -42.4726 H         1 UNK         0.0600 
    178 H178       -1.0124  -10.9277  -43.5725 H         1 UNK         0.0600 
    179 H179       -1.4386  -14.2371  -41.2859 H         1 UNK         0.3000 
    180 H180       -1.7984  -17.0537  -42.5538 H         1 UNK         0.0600 
    181 H181       -2.1953  -15.9803  -40.4108 H         1 UNK         0.0600 
    182 H182       -3.6258  -15.1436  -41.0016 H         1 UNK         0.0600 
    183 H183       -3.6340  -16.8946  -40.8158 H         1 UNK         0.0600 
    184 H184       -3.3024  -17.3030  -44.1756 H         1 UNK         0.3000 
    185 H185       -5.3437  -17.3629  -45.2181 H         1 UNK         0.0600 
    186 H186       -7.4003  -16.2374  -44.3547 H         1 UNK         0.0600 
    187 H187       -6.9153  -14.7287  -45.1207 H         1 UNK         0.0600 
    188 H188       -7.3002  -16.1380  -46.1063 H         1 UNK         0.0600 
    189 H189       -4.8586  -14.6982  -46.4289 H         1 UNK         0.3000 
    190 H190       -0.9787  -21.3866  -44.8005 H         1 UNK         0.3000 
    191 H191       -3.5385  -20.3235  -45.7157 H         1 UNK         0.0600 
    192 H192       -3.8857  -19.7888  -43.3472 H         1 UNK         0.0600 
    193 H193       -2.2748  -19.2739  -43.8227 H         1 UNK         0.0600 
    194 H194       -2.4871  -20.7360  -42.8669 H         1 UNK         0.0600 
    195 H195       -2.3162  -23.1626  -43.9108 H         1 UNK         0.3000 
    196 H196       -4.7636  -24.5262  -43.5161 H         1 UNK         0.0600 
    197 H197       -3.3019  -26.4977  -43.1342 H         1 UNK         0.0600 
    198 H198       -2.6259  -25.0778  -42.3486 H         1 UNK         0.0600 
    199 H199       -1.9374  -25.6619  -43.8622 H         1 UNK         0.0600 
    200 H200       -2.6856  -24.3171  -46.3574 H         1 UNK         0.3000 
    201 H201       -4.1324  -26.2578  -47.9615 H         1 UNK         0.0600 
    202 H202       -1.7051  -25.7481  -48.2970 H         1 UNK         0.0600 
    203 H203       -2.1160  -24.1011  -48.7705 H         1 UNK         0.0600 
    204 H204       -2.6357  -25.4600  -49.7559 H         1 UNK         0.0600 
    205 H205       -5.4732  -23.7103  -46.7094 H         1 UNK         0.3000 
    206 H206       -7.2472  -22.4836  -47.0556 H         1 UNK         0.0600 
    207 H207       -8.2353  -24.4888  -48.1737 H         1 UNK         0.0600 
    208 H208       -8.8590  -22.9861  -48.8341 H         1 UNK         0.0600 
    209 H209       -7.6640  -23.9037  -49.7362 H         1 UNK         0.0600 
    210 H210       -4.9202  -21.3018  -47.4205 H         1 UNK         0.3000 
    211 H211       -3.9347  -19.3978  -48.0102 H         1 UNK         0.0600 
    212 H212       -6.6467  -18.5866  -49.1955 H         1 UNK         0.0600 
    213 H213       -5.3068  -17.5069  -48.8667 H         1 UNK         0.0600 
    214 H214       -6.1128  -18.3200  -47.5370 H         1 UNK         0.0600 
    215 H215       -2.7099  -20.8742  -49.2876 H         1 UNK         0.3000 
    216 H216       -2.9922  -21.8774  -51.6895 H         1 UNK         0.0600 
    217 H217       -0.5348  -22.0533  -51.8379 H         1 UNK         0.0600 
    218 H218       -1.0381  -22.2445  -50.1675 H         1 UNK         0.0600 
    219 H219       -0.3378  -20.7161  -50.7176 H         1 UNK         0.0600 
    220 H220       -2.1552  -18.4314  -51.4113 H         1 UNK         0.3000 
    221 H221       -1.3386  -17.9185  -54.0649 H         1 UNK         0.0600 
    222 H222       -2.8823  -16.1276  -52.1168 H         1 UNK         0.0600 
    223 H223       -1.1273  -16.2650  -52.2351 H         1 UNK         0.0600 
    224 H224       -2.0430  -15.5738  -53.5607 H         1 UNK         0.0600 
    225 H225       -4.5917  -18.4818  -52.7616 H         1 UNK         0.3000 
    226 H226       -6.0632  -17.5689  -55.0821 H         1 UNK         0.0600 
    227 H227       -7.0627  -17.7064  -52.7944 H         1 UNK         0.0600 
    228 H228       -7.9639  -18.6858  -53.9423 H         1 UNK         0.0600 
    229 H229       -6.8670  -19.4582  -52.8044 H         1 UNK         0.0600 
    230 H230       -4.2058  -20.4052  -54.3939 H         1 UNK         0.3000 
    231 H231       -5.3507  -21.9389  -56.6843 H         1 UNK         0.0600 
    232 H232       -5.4042  -23.1097  -54.4559 H         1 UNK         0.0600 
    233 H233       -4.3335  -23.9064  -55.5961 H         1 UNK         0.0600 
    234 H234       -3.6590  -22.9058  -54.3154 H         1 UNK         0.0600 
    235 H235       -3.5171  -19.5540  -56.6847 H         1 UNK         0.3000 
    236 H236       -1.7625  -18.7292  -57.7234 H         1 UNK         0.0600 
    237 H237       -2.7891  -19.8970  -59.6877 H         1 UNK         0.0600 
    238 H238       -1.0470  -19.7579  -59.8472 H         1 UNK         0.0600 
    239 H239       -1.7614  -21.2990  -59.3926 H         1 UNK         0.0600 
    240 H240       -1.2494  -20.1960  -55.2909 H         1 UNK         0.3000 
    241 H241        0.4088  -20.5972  -53.9269 H         1 UNK         0.0600 
    242 H242       -0.6916  -22.7569  -56.0308 H         1 UNK         0.3800 
    243 H243        0.3368  -24.1036  -55.6123 H         1 UNK         0.3800 
    244 H244        2.4762  -20.0784  -56.1094 H         1 UNK         0.0800 
    245 H245        2.7929  -20.2357  -54.4104 H         1 UNK         0.0800 
    246 H246        3.1640  -16.6150  -53.7055 H         1 UNK         0.0800 
    247 H247        3.8996  -18.1882  -53.8151 H         1 UNK         0.0800 
@<TRIPOS>BOND
     1    1    2 1    
     2    1  127 1    
     3    1  128 1    
     4    1  129 1    
     5    2    3 2    
     6    2    4 am   BACKBONE|DICT|INTERRES
     7    4    5 1    
     8    4  130 1    
     9    5    6 1    
    10    5   65 1    
    11    5  131 1    
    12    6    7 1    
    13    6  132 1    
    14    6  133 1    
    15    7    8 1    
    16    8    9 1    
    17    8  134 1    
    18    8  135 1    
    19    9   10 ar   
    20    9   14 ar   
    21   10   11 ar   
    22   10  136 1    
    23   11   12 ar   
    24   11  126 1    
    25   12   13 ar   
    26   12  137 1    
    27   13   14 ar   
    28   13   15 1    
    29   14  138 1    
    30   15   16 1    
    31   15  139 1    
    32   15  140 1    
    33   16   17 1    
    34   17   18 1    
    35   17  141 1    
    36   17  142 1    
    37   18   19 1    
    38   18   67 1    
    39   18  143 1    
    40   19   20 am   BACKBONE|DICT|INTERRES
    41   19  144 1    
    42   20   21 2    
    43   20   22 1    
    44   22   23 1    
    45   22   24 1    
    46   22  145 1    
    47   23  146 1    
    48   23  147 1    
    49   23  148 1    
    50   24   25 am   BACKBONE|DICT|INTERRES
    51   24  149 1    
    52   25   26 2    
    53   25   27 1    
    54   27   28 1    
    55   27   29 1    
    56   27  150 1    
    57   28  151 1    
    58   28  152 1    
    59   28  153 1    
    60   29   30 am   BACKBONE|DICT|INTERRES
    61   29  154 1    
    62   30   31 2    
    63   30   32 1    
    64   32   33 1    
    65   32   34 1    
    66   32  155 1    
    67   33  156 1    
    68   33  157 1    
    69   33  158 1    
    70   34   35 am   BACKBONE|DICT|INTERRES
    71   34  159 1    
    72   35   36 2    
    73   35   37 1    
    74   37   38 1    
    75   37   39 1    
    76   37  160 1    
    77   38  161 1    
    78   38  162 1    
    79   38  163 1    
    80   39   40 am   BACKBONE|DICT|INTERRES
    81   39  164 1    
    82   40   41 2    
    83   40   42 1    
    84   42   43 1    
    85   42   44 1    
    86   42  165 1    
    87   43  166 1    
    88   43  167 1    
    89   43  168 1    
    90   44   45 am   BACKBONE|DICT|INTERRES
    91   44  169 1    
    92   45   46 2    
    93   45   47 1    
    94   47   48 1    
    95   47   49 1    
    96   47  170 1    
    97   48  171 1    
    98   48  172 1    
    99   48  173 1    
   100   49   50 am   BACKBONE|DICT|INTERRES
   101   49  174 1    
   102   50   51 2    
   103   50   52 1    
   104   52   53 1    
   105   52   54 1    
   106   52  175 1    
   107   53  176 1    
   108   53  177 1    
   109   53  178 1    
   110   54   55 am   BACKBONE|DICT|INTERRES
   111   54  179 1    
   112   55   56 2    
   113   55   57 1    
   114   57   58 1    
   115   57   59 1    
   116   57  180 1    
   117   58  181 1    
   118   58  182 1    
   119   58  183 1    
   120   59   60 am   BACKBONE|DICT|INTERRES
   121   59  184 1    
   122   60   61 2    
   123   60   62 1    
   124   62   63 1    
   125   62   64 1    
   126   62  185 1    
   127   63  186 1    
   128   63  187 1    
   129   63  188 1    
   130   64   65 am   BACKBONE|DICT|INTERRES
   131   64  189 1    
   132   65   66 2    
   133   67   68 2    
   134   67   69 am   BACKBONE|DICT|INTERRES
   135   69   70 1    
   136   69  190 1    
   137   70   71 1    
   138   70   72 1    
   139   70  191 1    
   140   71  192 1    
   141   71  193 1    
   142   71  194 1    
   143   72   73 2    
   144   72   74 am   BACKBONE|DICT|INTERRES
   145   74   75 1    
   146   74  195 1    
   147   75   76 1    
   148   75   77 1    
   149   75  196 1    
   150   76  197 1    
   151   76  198 1    
   152   76  199 1    
   153   77   78 2    
   154   77   79 am   BACKBONE|DICT|INTERRES
   155   79   80 1    
   156   79  200 1    
   157   80   81 1    
   158   80   82 1    
   159   80  201 1    
   160   81  202 1    
   161   81  203 1    
   162   81  204 1    
   163   82   83 2    
   164   82   84 am   BACKBONE|DICT|INTERRES
   165   84   85 1    
   166   84  205 1    
   167   85   86 1    
   168   85   87 1    
   169   85  206 1    
   170   86  207 1    
   171   86  208 1    
   172   86  209 1    
   173   87   88 2    
   174   87   89 am   BACKBONE|DICT|INTERRES
   175   89   90 1    
   176   89  210 1    
   177   90   91 1    
   178   90   92 1    
   179   90  211 1    
   180   91  212 1    
   181   91  213 1    
   182   91  214 1    
   183   92   93 2    
   184   92   94 am   BACKBONE|DICT|INTERRES
   185   94   95 1    
   186   94  215 1    
   187   95   96 1    
   188   95   97 1    
   189   95  216 1    
   190   96  217 1    
   191   96  218 1    
   192   96  219 1    
   193   97   98 2    
   194   97   99 am   BACKBONE|DICT|INTERRES
   195   99  100 1    
   196   99  220 1    
   197  100  101 1    
   198  100  102 1    
   199  100  221 1    
   200  101  222 1    
   201  101  223 1    
   202  101  224 1    
   203  102  103 2    
   204  102  104 am   BACKBONE|DICT|INTERRES
   205  104  105 1    
   206  104  225 1    
   207  105  106 1    
   208  105  107 1    
   209  105  226 1    
   210  106  227 1    
   211  106  228 1    
   212  106  229 1    
   213  107  108 2    
   214  107  109 am   BACKBONE|DICT|INTERRES
   215  109  110 1    
   216  109  230 1    
   217  110  111 1    
   218  110  112 1    
   219  110  231 1    
   220  111  232 1    
   221  111  233 1    
   222  111  234 1    
   223  112  113 2    
   224  112  114 am   BACKBONE|DICT|INTERRES
   225  114  115 1    
   226  114  235 1    
   227  115  116 1    
   228  115  117 1    
   229  115  236 1    
   230  116  237 1    
   231  116  238 1    
   232  116  239 1    
   233  117  118 2    
   234  117  119 am   BACKBONE|DICT|INTERRES
   235  119  120 1    
   236  119  240 1    
   237  120  121 1    
   238  120  124 1    
   239  120  241 1    
   240  121  122 am   BACKBONE|DICT|INTERRES
   241  121  123 2    
   242  122  242 1    
   243  122  243 1    
   244  124  125 1    
   245  124  244 1    
   246  124  245 1    
   247  125  126 1    
   248  126  246 1    
   249  126  247 1    
@<TRIPOS>SUBSTRUCTURE
     1 UNK         1 GROUP             0       ****    0 ROOT    
