@<TRIPOS>MOLECULE
3R540
247   249    1
SMALL
USER_CHARGES


@<TRIPOS>ATOM
      1 CA          0.6790  -14.3163  -50.4480 C.3       0 UNK        -0.1800 
      2 C           0.2093  -14.2645  -49.0044 C.2       0 UNK         0.5000 
      3 O           0.9414  -13.7838  -48.1416 O.2       0 UNK        -0.5000 
      4 N          -1.0178  -14.7313  -48.7433 N.am      1 UNK        -0.5000 
      5 CA         -1.6721  -14.7903  -47.4263 C.3       1 UNK         0.1400 
      6 C6         -3.0785  -15.4398  -47.5213 C.3       23 UNK        -0.0398 
      7 S7         -4.1603  -14.6403  -48.7707 S.3       23 UNK        -0.2404 
      8 C8         -5.3102  -15.9711  -49.2499 C.3       23 UNK        -0.0205 
      9 C9         -4.5975  -17.2177  -49.7532 C.ar      23 UNK        -0.0193 
     10 C10        -3.7802  -17.1666  -50.8858 C.ar      23 UNK        -0.1150 
     11 C11        -3.0928  -18.3046  -51.3183 C.ar      23 UNK        -0.0193 
     12 C12        -3.2256  -19.4997  -50.6051 C.ar      23 UNK        -0.1150 
     13 C13        -4.0563  -19.5675  -49.4832 C.ar      23 UNK        -0.0193 
     14 C14        -4.7451  -18.4255  -49.0685 C.ar      23 UNK        -0.1150 
     15 C15        -4.2179  -20.8652  -48.7089 C.3       23 UNK        -0.0205 
     16 S16        -3.3614  -20.7477  -47.1148 S.3       23 UNK        -0.2404 
     17 C17        -3.9297  -22.2459  -46.2438 C.3       23 UNK        -0.0398 
     18 CA         -2.8854  -23.3874  -46.2458 C.3       11 UNK         0.1400 
     19 N          -1.5451  -22.9304  -45.8622 N.am      11 UNK        -0.5000 
     20 C          -0.4326  -23.6727  -45.9198 C.2       10 UNK         0.5000 
     21 O          -0.4128  -24.8250  -46.3520 O.2       10 UNK        -0.5000 
     22 CA          0.8600  -23.0661  -45.3415 C.3       10 UNK         0.1400 
     23 CB          1.7454  -22.5218  -46.4710 C.3       10 UNK        -0.1800 
     24 N           0.6425  -22.0222  -44.3334 N.am      10 UNK        -0.5000 
     25 C          -0.0424  -22.1705  -43.1884 C.2       9 UNK         0.5000 
     26 O          -0.5812  -23.2248  -42.8480 O.2       9 UNK        -0.5000 
     27 CA         -0.2008  -20.9230  -42.3017 C.3       9 UNK         0.1400 
     28 CB          1.0168  -20.7532  -41.3822 C.3       9 UNK        -0.1800 
     29 N          -0.4098  -19.7013  -43.0810 N.am      9 UNK        -0.5000 
     30 C          -1.4963  -19.4513  -43.8261 C.2       8 UNK         0.5000 
     31 O          -2.4653  -20.2074  -43.8811 O.2       8 UNK        -0.5000 
     32 CA         -1.4885  -18.1599  -44.6688 C.3       8 UNK         0.1400 
     33 CB         -1.9668  -16.9568  -43.8424 C.3       8 UNK        -0.1800 
     34 N          -0.1675  -17.8751  -45.2311 N.am      8 UNK        -0.5000 
     35 C           0.3940  -18.5851  -46.2207 C.2       7 UNK         0.5000 
     36 O          -0.1764  -19.4947  -46.8183 O.2       7 UNK        -0.5000 
     37 CA          1.8548  -18.2571  -46.5745 C.3       7 UNK         0.1400 
     38 CB          1.9285  -17.1392  -47.6219 C.3       7 UNK        -0.1800 
     39 N           2.6372  -17.8781  -45.3982 N.am      7 UNK        -0.5000 
     40 C           3.0146  -18.7376  -44.4411 C.2       6 UNK         0.5000 
     41 O           2.7656  -19.9421  -44.4704 O.2       6 UNK        -0.5000 
     42 CA          3.7530  -18.1449  -43.2263 C.3       6 UNK         0.1400 
     43 CB          5.2597  -18.0459  -43.5068 C.3       6 UNK        -0.1800 
     44 N           3.2459  -16.8273  -42.8397 N.am      6 UNK        -0.5000 
     45 C           2.0017  -16.5845  -42.4022 C.2       5 UNK         0.5000 
     46 O           1.1581  -17.4628  -42.2343 O.2       5 UNK        -0.5000 
     47 CA          1.6203  -15.1125  -42.1579 C.3       5 UNK         0.1400 
     48 CB          1.8375  -14.7373  -40.6848 C.3       5 UNK        -0.1800 
     49 N           2.3660  -14.1834  -43.0106 N.am      5 UNK        -0.5000 
     50 C           2.2389  -14.1107  -44.3418 C.2       4 UNK         0.5000 
     51 O           1.4569  -14.8045  -44.9949 O.2       4 UNK        -0.5000 
     52 CA          3.2049  -13.1633  -45.0597 C.3       4 UNK         0.1400 
     53 CB          4.3473  -13.9561  -45.7174 C.3       4 UNK        -0.1800 
     54 N           2.4926  -12.4026  -46.0789 N.am      4 UNK        -0.5000 
     55 C           2.7429  -11.1229  -46.3828 C.2       3 UNK         0.5000 
     56 O           3.5997  -10.4409  -45.8182 O.2       3 UNK        -0.5000 
     57 CA          1.9018  -10.4867  -47.5005 C.3       3 UNK         0.1400 
     58 CB          2.5203  -10.7818  -48.8765 C.3       3 UNK        -0.1800 
     59 N           0.5184  -10.9579  -47.4801 N.am      3 UNK        -0.5000 
     60 C          -0.4759  -10.3682  -46.8026 C.2       2 UNK         0.5000 
     61 O          -0.3203   -9.3679  -46.1007 O.2       2 UNK        -0.5000 
     62 CA         -1.8884  -10.9680  -46.9461 C.3       2 UNK         0.1400 
     63 CB         -2.7393  -10.1083  -47.8941 C.3       2 UNK        -0.1800 
     64 N          -1.8729  -12.3394  -47.4524 N.am      2 UNK        -0.5000 
     65 C          -1.7392  -13.4319  -46.6893 C.2       1 UNK         0.5000 
     66 O          -1.6629  -13.3998  -45.4609 O.2       1 UNK        -0.5000 
     67 C          -3.3786  -24.5682  -45.3796 C.2       11 UNK         0.5000 
     68 O          -4.1718  -25.3778  -45.8589 O.2       11 UNK        -0.5000 
     69 N          -2.8844  -24.6576  -44.1366 N.am      12 UNK        -0.5000 
     70 CA         -3.1318  -25.7619  -43.2151 C.3       12 UNK         0.1400 
     71 CB         -3.5375  -25.1940  -41.8457 C.3       12 UNK        -0.1800 
     72 C          -1.8857  -26.6524  -43.0838 C.2       12 UNK         0.5000 
     73 O          -2.0061  -27.8742  -43.1679 O.2       12 UNK        -0.5000 
     74 N          -0.7136  -26.0329  -42.8798 N.am      13 UNK        -0.5000 
     75 CA          0.5422  -26.7139  -42.5541 C.3       13 UNK         0.1400 
     76 CB          1.5577  -25.6843  -42.0347 C.3       13 UNK        -0.1800 
     77 C           1.1403  -27.5269  -43.7161 C.2       13 UNK         0.5000 
     78 O           1.7127  -28.5896  -43.4715 O.2       13 UNK        -0.5000 
     79 N           0.9939  -27.0243  -44.9483 N.am      14 UNK        -0.5000 
     80 CA          1.4420  -27.6824  -46.1796 C.3       14 UNK         0.1400 
     81 CB          2.3568  -26.7165  -46.9530 C.3       14 UNK        -0.1800 
     82 C           0.2520  -28.1301  -47.0507 C.2       14 UNK         0.5000 
     83 O           0.4715  -28.7166  -48.1111 O.2       14 UNK        -0.5000 
     84 N          -0.9771  -27.8391  -46.5954 N.am      15 UNK        -0.5000 
     85 CA         -2.2610  -28.0746  -47.2605 C.3       15 UNK         0.1400 
     86 CB         -2.5568  -29.5864  -47.3511 C.3       15 UNK        -0.1800 
     87 C          -2.3819  -27.3484  -48.6190 C.2       15 UNK         0.5000 
     88 O          -2.9640  -27.8974  -49.5573 O.2       15 UNK        -0.5000 
     89 N          -1.8138  -26.1355  -48.7113 N.am      16 UNK        -0.5000 
     90 CA         -1.8414  -25.2989  -49.9134 C.3       16 UNK         0.1400 
     91 CB         -0.9231  -24.0819  -49.7141 C.3       16 UNK        -0.1800 
     92 C          -3.2709  -24.8539  -50.2825 C.2       16 UNK         0.5000 
     93 O          -4.0581  -24.5131  -49.3966 O.2       16 UNK        -0.5000 
     94 N          -3.5774  -24.8612  -51.5850 N.am      17 UNK        -0.5000 
     95 CA         -4.8669  -24.4396  -52.1313 C.3       17 UNK         0.1400 
     96 CB         -4.9630  -24.8975  -53.5947 C.3       17 UNK        -0.1800 
     97 C          -5.0501  -22.9155  -52.0375 C.2       17 UNK         0.5000 
     98 O          -4.0802  -22.1725  -52.2054 O.2       17 UNK        -0.5000 
     99 N          -6.2953  -22.4760  -51.8173 N.am      18 UNK        -0.5000 
    100 CA        -6.7010  -21.0713  -51.7316 C.3       18 UNK         0.1400 
    101 CB        -8.0355  -20.9836  -50.9709 C.3       18 UNK        -0.1800 
    102 C         -6.7561  -20.4006  -53.1195 C.2       18 UNK         0.5000 
    103 O         -7.8301  -20.0231  -53.5907 O.2       18 UNK        -0.5000 
    104 N         -5.5871  -20.2930  -53.7619 N.am      19 UNK        -0.5000 
    105 CA        -5.4053  -19.7488  -55.1083 C.3       19 UNK         0.1400 
    106 CB        -4.0134  -20.1528  -55.6192 C.3       19 UNK        -0.1800 
    107 C         -5.5890  -18.2215  -55.1974 C.2       19 UNK         0.5000 
    108 O         -5.7979  -17.7106  -56.2979 O.2       19 UNK        -0.5000 
    109 N         -5.4800  -17.5223  -54.0563 N.am      20 UNK        -0.5000 
    110 CA        -5.6297  -16.0752  -53.8285 C.3       20 UNK         0.1400 
    111 CB        -7.0421  -15.5976  -54.2145 C.3       20 UNK        -0.1800 
    112 C         -4.5514  -15.1837  -54.4829 C.2       20 UNK         0.5000 
    113 O         -4.1324  -14.1998  -53.8750 O.2       20 UNK        -0.5000 
    114 N         -4.1226  -15.5349  -55.6988 N.am      21 UNK        -0.5000 
    115 CA        -3.2151  -14.7678  -56.5533 C.3       21 UNK         0.1400 
    116 CB        -3.5292  -15.1255  -58.0163 C.3       21 UNK        -0.1800 
    117 C         -1.7160  -14.9746  -56.2492 C.2       21 UNK         0.5000 
    118 O         -0.8837  -14.4041  -56.9573 O.2       21 UNK        -0.5000 
    119 N         -1.3831  -15.7943  -55.2431 N.am      22 UNK        -0.5000 
    120 CA        -0.0026  -16.0615  -54.8058 C.3       22 UNK         0.1400 
    121 C          0.7309  -14.8266  -54.1972 C.2       22 UNK         0.5000 
    122 N          2.0510  -14.8836  -54.0761 N.am      22 UNK        -0.7600 
    123 O          0.1249  -13.8248  -53.8233 O.2       22 UNK        -0.5000 
    124 C124        0.0844  -17.3205  -53.9014 C.3       23 UNK        -0.0398 
    125 S125       -0.7672  -17.1738  -52.2914 S.3       23 UNK        -0.2404 
    126 C126       -2.2121  -18.2417  -52.5560 C.3       23 UNK        -0.0205 
    127 H127       -0.1578  -14.4560  -51.1320 H         1 UNK         0.0600 
    128 H128        1.3799  -15.1393  -50.5874 H         1 UNK         0.0600 
    129 H129        1.1808  -13.3875  -50.7188 H         1 UNK         0.0600 
    130 H130       -1.5724  -15.0951  -49.5057 H         1 UNK         0.3000 
    131 H131       -1.0498  -15.4388  -46.8060 H         1 UNK         0.0600 
    132 H132       -2.9534  -16.4933  -47.7714 H         1 UNK         0.0800 
    133 H133       -3.5842  -15.4295  -46.5540 H         1 UNK         0.0800 
    134 H134       -5.9481  -16.2052  -48.3962 H         1 UNK         0.0800 
    135 H135       -5.9717  -15.6003  -50.0339 H         1 UNK         0.0800 
    136 H136       -3.6555  -16.2325  -51.4150 H         1 UNK         0.1150 
    137 H137       -2.6866  -20.3804  -50.9247 H         1 UNK         0.1150 
    138 H138       -5.3769  -18.4764  -48.1928 H         1 UNK         0.1150 
    139 H139       -5.2789  -21.0625  -48.5500 H         1 UNK         0.0800 
    140 H140       -3.8201  -21.7099  -49.2735 H         1 UNK         0.0800 
    141 H141       -4.8670  -22.5888  -46.6854 H         1 UNK         0.0800 
    142 H142       -4.1670  -21.9507  -45.2200 H         1 UNK         0.0800 
    143 H143       -2.8107  -23.7609  -47.2653 H         1 UNK         0.0600 
    144 H144       -1.4834  -21.9832  -45.5129 H         1 UNK         0.3000 
    145 H145        1.4030  -23.8775  -44.8556 H         1 UNK         0.0600 
    146 H146        2.7046  -22.1725  -46.0889 H         1 UNK         0.0600 
    147 H147        1.9548  -23.2947  -47.2115 H         1 UNK         0.0600 
    148 H148        1.2683  -21.6928  -46.9926 H         1 UNK         0.0600 
    149 H149        1.1024  -21.1340  -44.5038 H         1 UNK         0.3000 
    150 H150       -1.0808  -21.0738  -41.6730 H         1 UNK         0.0600 
    151 H151        1.1593  -21.6362  -40.7580 H         1 UNK         0.0600 
    152 H152        0.8922  -19.8996  -40.7156 H         1 UNK         0.0600 
    153 H153        1.9343  -20.6030  -41.9507 H         1 UNK         0.0600 
    154 H154        0.3062  -18.9844  -43.0073 H         1 UNK         0.3000 
    155 H155       -2.1879  -18.2977  -45.4963 H         1 UNK         0.0600 
    156 H156       -2.9770  -17.1223  -43.4664 H         1 UNK         0.0600 
    157 H157       -1.9880  -16.0471  -44.4419 H         1 UNK         0.0600 
    158 H158       -1.3240  -16.7737  -42.9815 H         1 UNK         0.0600 
    159 H159        0.3717  -17.1406  -44.7938 H         1 UNK         0.3000 
    160 H160        2.2998  -19.1552  -47.0085 H         1 UNK         0.0600 
    161 H161        1.5353  -16.2042  -47.2271 H         1 UNK         0.0600 
    162 H162        1.3472  -17.3923  -48.5097 H         1 UNK         0.0600 
    163 H163        2.9552  -16.9618  -47.9421 H         1 UNK         0.0600 
    164 H164        2.8339  -16.8947  -45.2812 H         1 UNK         0.3000 
    165 H165        3.6055  -18.8226  -42.3832 H         1 UNK         0.0600 
    166 H166        5.8030  -17.7017  -42.6266 H         1 UNK         0.0600 
    167 H167        5.6700  -19.0190  -43.7803 H         1 UNK         0.0600 
    168 H168        5.4740  -17.3574  -44.3252 H         1 UNK         0.0600 
    169 H169        3.8793  -16.0483  -42.9386 H         1 UNK         0.3000 
    170 H170        0.5578  -15.0049  -42.3867 H         1 UNK         0.0600 
    171 H171        1.2742  -15.4003  -40.0266 H         1 UNK         0.0600 
    172 H172        2.8883  -14.8079  -40.4007 H         1 UNK         0.0600 
    173 H173        1.5017  -13.7199  -40.4831 H         1 UNK         0.0600 
    174 H174        3.0344  -13.5855  -42.5458 H         1 UNK         0.3000 
    175 H175        3.6302  -12.4842  -44.3176 H         1 UNK         0.0600 
    176 H176        3.9725  -14.6393  -46.4812 H         1 UNK         0.0600 
    177 H177        5.0668  -13.2886  -46.1919 H         1 UNK         0.0600 
    178 H178        4.8910  -14.5490  -44.9810 H         1 UNK         0.0600 
    179 H179        1.7854  -12.9179  -46.5985 H         1 UNK         0.3000 
    180 H180        1.9190   -9.4041  -47.3570 H         1 UNK         0.0600 
    181 H181        2.5726  -11.8519  -49.0783 H         1 UNK         0.0600 
    182 H182        3.5360  -10.3890  -48.9375 H         1 UNK         0.0600 
    183 H183        1.9435  -10.3172  -49.6763 H         1 UNK         0.0600 
    184 H184        0.3388  -11.8357  -47.9520 H         1 UNK         0.3000 
    185 H185       -2.3575  -10.9497  -45.9600 H         1 UNK         0.0600 
    186 H186       -2.8064   -9.0801  -47.5362 H         1 UNK         0.0600 
    187 H187       -2.3177  -10.0793  -48.8997 H         1 UNK         0.0600 
    188 H188       -3.7570  -10.4925  -47.9675 H         1 UNK         0.0600 
    189 H189       -1.9511  -12.4603  -48.4518 H         1 UNK         0.3000 
    190 H190       -2.2150  -23.9604  -43.8294 H         1 UNK         0.3000 
    191 H191       -3.9518  -26.3875  -43.5740 H         1 UNK         0.0600 
    192 H192       -4.4568  -24.6130  -41.9201 H         1 UNK         0.0600 
    193 H193       -3.7165  -25.9952  -41.1275 H         1 UNK         0.0600 
    194 H194       -2.7661  -24.5445  -41.4297 H         1 UNK         0.0600 
    195 H195       -0.6972  -25.0166  -42.8208 H         1 UNK         0.3000 
    196 H196        0.3353  -27.4144  -41.7420 H         1 UNK         0.0600 
    197 H197        2.4873  -26.1696  -41.7345 H         1 UNK         0.0600 
    198 H198        1.1718  -25.1550  -41.1632 H         1 UNK         0.0600 
    199 H199        1.8061  -24.9416  -42.7923 H         1 UNK         0.0600 
    200 H200        0.4977  -26.1506  -45.0771 H         1 UNK         0.3000 
    201 H201        2.0194  -28.5798  -45.9495 H         1 UNK         0.0600 
    202 H202        3.1888  -26.3803  -46.3344 H         1 UNK         0.0600 
    203 H203        1.8180  -25.8348  -47.2991 H         1 UNK         0.0600 
    204 H204        2.7823  -27.2023  -47.8319 H         1 UNK         0.0600 
    205 H205       -1.0317  -27.3606  -45.7089 H         1 UNK         0.3000 
    206 H206       -3.0215  -27.6363  -46.6146 H         1 UNK         0.0600 
    207 H207       -2.4757  -30.0622  -46.3737 H         1 UNK         0.0600 
    208 H208       -3.5693  -29.7656  -47.7143 H         1 UNK         0.0600 
    209 H209       -1.8713  -30.0943  -48.0300 H         1 UNK         0.0600 
    210 H210       -1.3467  -25.7512  -47.8968 H         1 UNK         0.3000 
    211 H211       -1.4381  -25.8965  -50.7336 H         1 UNK         0.0600 
    212 H212       -0.8484  -23.4992  -50.6331 H         1 UNK         0.0600 
    213 H213        0.0866  -24.3876  -49.4390 H         1 UNK         0.0600 
    214 H214       -1.2921  -23.4116  -48.9385 H         1 UNK         0.0600 
    215 H215       -2.8688  -25.1158  -52.2572 H         1 UNK         0.3000 
    216 H216       -5.6592  -24.9281  -51.5598 H         1 UNK         0.0600 
    217 H217       -5.9257  -24.6231  -54.0283 H         1 UNK         0.0600 
    218 H218       -4.8679  -25.9805  -53.6770 H         1 UNK         0.0600 
    219 H219       -4.1855  -24.4435  -54.2107 H         1 UNK         0.0600 
    220 H220       -7.0393  -23.1534  -51.7321 H         1 UNK         0.3000 
    221 H221       -5.9591  -20.5282  -51.1479 H         1 UNK         0.0600 
    222 H222       -8.8305  -21.5255  -51.4845 H         1 UNK         0.0600 
    223 H223       -7.9427  -21.3957  -49.9658 H         1 UNK         0.0600 
    224 H224       -8.3573  -19.9467  -50.8656 H         1 UNK         0.0600 
    225 H225       -4.7722  -20.7031  -53.3144 H         1 UNK         0.3000 
    226 H226       -6.1528  -20.2033  -55.7618 H         1 UNK         0.0600 
    227 H227       -3.2185  -19.7444  -54.9953 H         1 UNK         0.0600 
    228 H228       -3.9005  -21.2371  -55.6363 H         1 UNK         0.0600 
    229 H229       -3.8493  -19.7944  -56.6364 H         1 UNK         0.0600 
    230 H230       -5.2898  -18.0616  -53.2238 H         1 UNK         0.3000 
    231 H231       -5.5367  -15.9339  -52.7519 H         1 UNK         0.0600 
    232 H232       -7.2214  -15.6748  -55.2872 H         1 UNK         0.0600 
    233 H233       -7.1887  -14.5534  -53.9357 H         1 UNK         0.0600 
    234 H234       -7.8081  -16.1809  -53.7034 H         1 UNK         0.0600 
    235 H235       -4.5628  -16.3493  -56.1201 H         1 UNK         0.3000 
    236 H236       -3.4225  -13.7047  -56.4146 H         1 UNK         0.0600 
    237 H237       -2.9265  -14.5351  -58.7077 H         1 UNK         0.0600 
    238 H238       -3.3309  -16.1782  -58.2221 H         1 UNK         0.0600 
    239 H239       -4.5749  -14.9294  -58.2542 H         1 UNK         0.0600 
    240 H240       -2.1207  -16.1796  -54.6757 H         1 UNK         0.3000 
    241 H241        0.5504  -16.3013  -55.7163 H         1 UNK         0.0600 
    242 H242        2.5367  -14.0932  -53.6823 H         1 UNK         0.3800 
    243 H243        2.5806  -15.6859  -54.3795 H         1 UNK         0.3800 
    244 H244        1.1282  -17.5659  -53.7008 H         1 UNK         0.0800 
    245 H245       -0.3087  -18.1825  -54.4419 H         1 UNK         0.0800 
    246 H246       -1.8739  -19.2411  -52.8349 H         1 UNK         0.0800 
    247 H247       -2.7916  -17.8610  -53.3959 H         1 UNK         0.0800 
@<TRIPOS>BOND
     1    1    2 1    
     2    1  127 1    
     3    1  128 1    
     4    1  129 1    
     5    2    3 2    
     6    2    4 am   BACKBONE|DICT|INTERRES
     7    4    5 1    
     8    4  130 1    
     9    5    6 1    
    10    5   65 1    
    11    5  131 1    
    12    6    7 1    
    13    6  132 1    
    14    6  133 1    
    15    7    8 1    
    16    8    9 1    
    17    8  134 1    
    18    8  135 1    
    19    9   10 ar   
    20    9   14 ar   
    21   10   11 ar   
    22   10  136 1    
    23   11   12 ar   
    24   11  126 1    
    25   12   13 ar   
    26   12  137 1    
    27   13   14 ar   
    28   13   15 1    
    29   14  138 1    
    30   15   16 1    
    31   15  139 1    
    32   15  140 1    
    33   16   17 1    
    34   17   18 1    
    35   17  141 1    
    36   17  142 1    
    37   18   19 1    
    38   18   67 1    
    39   18  143 1    
    40   19   20 am   BACKBONE|DICT|INTERRES
    41   19  144 1    
    42   20   21 2    
    43   20   22 1    
    44   22   23 1    
    45   22   24 1    
    46   22  145 1    
    47   23  146 1    
    48   23  147 1    
    49   23  148 1    
    50   24   25 am   BACKBONE|DICT|INTERRES
    51   24  149 1    
    52   25   26 2    
    53   25   27 1    
    54   27   28 1    
    55   27   29 1    
    56   27  150 1    
    57   28  151 1    
    58   28  152 1    
    59   28  153 1    
    60   29   30 am   BACKBONE|DICT|INTERRES
    61   29  154 1    
    62   30   31 2    
    63   30   32 1    
    64   32   33 1    
    65   32   34 1    
    66   32  155 1    
    67   33  156 1    
    68   33  157 1    
    69   33  158 1    
    70   34   35 am   BACKBONE|DICT|INTERRES
    71   34  159 1    
    72   35   36 2    
    73   35   37 1    
    74   37   38 1    
    75   37   39 1    
    76   37  160 1    
    77   38  161 1    
    78   38  162 1    
    79   38  163 1    
    80   39   40 am   BACKBONE|DICT|INTERRES
    81   39  164 1    
    82   40   41 2    
    83   40   42 1    
    84   42   43 1    
    85   42   44 1    
    86   42  165 1    
    87   43  166 1    
    88   43  167 1    
    89   43  168 1    
    90   44   45 am   BACKBONE|DICT|INTERRES
    91   44  169 1    
    92   45   46 2    
    93   45   47 1    
    94   47   48 1    
    95   47   49 1    
    96   47  170 1    
    97   48  171 1    
    98   48  172 1    
    99   48  173 1    
   100   49   50 am   BACKBONE|DICT|INTERRES
   101   49  174 1    
   102   50   51 2    
   103   50   52 1    
   104   52   53 1    
   105   52   54 1    
   106   52  175 1    
   107   53  176 1    
   108   53  177 1    
   109   53  178 1    
   110   54   55 am   BACKBONE|DICT|INTERRES
   111   54  179 1    
   112   55   56 2    
   113   55   57 1    
   114   57   58 1    
   115   57   59 1    
   116   57  180 1    
   117   58  181 1    
   118   58  182 1    
   119   58  183 1    
   120   59   60 am   BACKBONE|DICT|INTERRES
   121   59  184 1    
   122   60   61 2    
   123   60   62 1    
   124   62   63 1    
   125   62   64 1    
   126   62  185 1    
   127   63  186 1    
   128   63  187 1    
   129   63  188 1    
   130   64   65 am   BACKBONE|DICT|INTERRES
   131   64  189 1    
   132   65   66 2    
   133   67   68 2    
   134   67   69 am   BACKBONE|DICT|INTERRES
   135   69   70 1    
   136   69  190 1    
   137   70   71 1    
   138   70   72 1    
   139   70  191 1    
   140   71  192 1    
   141   71  193 1    
   142   71  194 1    
   143   72   73 2    
   144   72   74 am   BACKBONE|DICT|INTERRES
   145   74   75 1    
   146   74  195 1    
   147   75   76 1    
   148   75   77 1    
   149   75  196 1    
   150   76  197 1    
   151   76  198 1    
   152   76  199 1    
   153   77   78 2    
   154   77   79 am   BACKBONE|DICT|INTERRES
   155   79   80 1    
   156   79  200 1    
   157   80   81 1    
   158   80   82 1    
   159   80  201 1    
   160   81  202 1    
   161   81  203 1    
   162   81  204 1    
   163   82   83 2    
   164   82   84 am   BACKBONE|DICT|INTERRES
   165   84   85 1    
   166   84  205 1    
   167   85   86 1    
   168   85   87 1    
   169   85  206 1    
   170   86  207 1    
   171   86  208 1    
   172   86  209 1    
   173   87   88 2    
   174   87   89 am   BACKBONE|DICT|INTERRES
   175   89   90 1    
   176   89  210 1    
   177   90   91 1    
   178   90   92 1    
   179   90  211 1    
   180   91  212 1    
   181   91  213 1    
   182   91  214 1    
   183   92   93 2    
   184   92   94 am   BACKBONE|DICT|INTERRES
   185   94   95 1    
   186   94  215 1    
   187   95   96 1    
   188   95   97 1    
   189   95  216 1    
   190   96  217 1    
   191   96  218 1    
   192   96  219 1    
   193   97   98 2    
   194   97   99 am   BACKBONE|DICT|INTERRES
   195   99  100 1    
   196   99  220 1    
   197  100  101 1    
   198  100  102 1    
   199  100  221 1    
   200  101  222 1    
   201  101  223 1    
   202  101  224 1    
   203  102  103 2    
   204  102  104 am   BACKBONE|DICT|INTERRES
   205  104  105 1    
   206  104  225 1    
   207  105  106 1    
   208  105  107 1    
   209  105  226 1    
   210  106  227 1    
   211  106  228 1    
   212  106  229 1    
   213  107  108 2    
   214  107  109 am   BACKBONE|DICT|INTERRES
   215  109  110 1    
   216  109  230 1    
   217  110  111 1    
   218  110  112 1    
   219  110  231 1    
   220  111  232 1    
   221  111  233 1    
   222  111  234 1    
   223  112  113 2    
   224  112  114 am   BACKBONE|DICT|INTERRES
   225  114  115 1    
   226  114  235 1    
   227  115  116 1    
   228  115  117 1    
   229  115  236 1    
   230  116  237 1    
   231  116  238 1    
   232  116  239 1    
   233  117  118 2    
   234  117  119 am   BACKBONE|DICT|INTERRES
   235  119  120 1    
   236  119  240 1    
   237  120  121 1    
   238  120  124 1    
   239  120  241 1    
   240  121  122 am   BACKBONE|DICT|INTERRES
   241  121  123 2    
   242  122  242 1    
   243  122  243 1    
   244  124  125 1    
   245  124  244 1    
   246  124  245 1    
   247  125  126 1    
   248  126  246 1    
   249  126  247 1    
@<TRIPOS>SUBSTRUCTURE
     1 UNK         1 GROUP             0       ****    0 ROOT    
