@<TRIPOS>MOLECULE
3R540
247   249    1
SMALL
USER_CHARGES


@<TRIPOS>ATOM
      1 CA          5.8989  -15.0403  -44.3508 C.3       0 UNK        -0.1800 
      2 C           4.7264  -14.2407  -44.8975 C.2       0 UNK         0.5000 
      3 O           3.7678  -13.9848  -44.1688 O.2       0 UNK        -0.5000 
      4 N           4.7840  -13.8573  -46.1781 N.am      1 UNK        -0.5000 
      5 CA          3.7787  -13.0296  -46.8509 C.3       1 UNK         0.1400 
      6 C6          3.6311  -13.3823  -48.3525 C.3       23 UNK        -0.0398 
      7 S7          2.6568  -14.9064  -48.5686 S.3       23 UNK        -0.2404 
      8 C8          3.5684  -15.7714  -49.8827 C.3       23 UNK        -0.0205 
      9 C9          2.7403  -16.8976  -50.4890 C.ar      23 UNK        -0.0193 
     10 C10         1.5448  -16.6006  -51.1498 C.ar      23 UNK        -0.1150 
     11 C11         0.7880  -17.6116  -51.7467 C.ar      23 UNK        -0.0193 
     12 C12         1.2378  -18.9327  -51.6888 C.ar      23 UNK        -0.1150 
     13 C13         2.4340  -19.2457  -51.0359 C.ar      23 UNK        -0.0193 
     14 C14         3.1774  -18.2254  -50.4306 C.ar      23 UNK        -0.1150 
     15 C15         2.9447  -20.6796  -51.0271 C.3       23 UNK        -0.0205 
     16 S16         2.5893  -21.5371  -49.4636 S.3       23 UNK        -0.2404 
     17 C17         0.7753  -21.7147  -49.5437 C.3       23 UNK        -0.0398 
     18 CA          0.2513  -22.6972  -48.4699 C.3       11 UNK         0.1400 
     19 N           0.3966  -22.1793  -47.1067 N.am      11 UNK        -0.5000 
     20 C           0.2038  -22.8975  -45.9921 C.2       10 UNK         0.5000 
     21 O          -0.0798  -24.0948  -45.9936 O.2       10 UNK        -0.5000 
     22 CA          0.2940  -22.1482  -44.6505 C.3       10 UNK         0.1400 
     23 CB          1.7569  -21.9417  -44.2313 C.3       10 UNK        -0.1800 
     24 N          -0.4048  -20.8627  -44.6757 N.am      10 UNK        -0.5000 
     25 C          -1.7272  -20.7235  -44.8471 C.2       9 UNK         0.5000 
     26 O          -2.5044  -21.6717  -44.9557 O.2       9 UNK        -0.5000 
     27 CA         -2.2700  -19.2871  -44.9617 C.3       9 UNK         0.1400 
     28 CB         -2.4350  -18.6448  -43.5764 C.3       9 UNK        -0.1800 
     29 N          -1.4300  -18.4343  -45.8017 N.am      9 UNK        -0.5000 
     30 C          -1.2217  -18.6297  -47.1125 C.2       8 UNK         0.5000 
     31 O          -1.7479  -19.5305  -47.7649 O.2       8 UNK        -0.5000 
     32 CA         -0.2092  -17.6902  -47.7900 C.3       8 UNK         0.1400 
     33 CB         -0.8569  -16.3288  -48.0827 C.3       8 UNK        -0.1800 
     34 N           0.9979  -17.5041  -46.9808 N.am      8 UNK        -0.5000 
     35 C           1.8344  -18.4947  -46.6386 C.2       7 UNK         0.5000 
     36 O           1.6847  -19.6620  -46.9865 O.2       7 UNK        -0.5000 
     37 CA          2.9816  -18.1493  -45.6754 C.3       7 UNK         0.1400 
     38 CB          4.2083  -17.6060  -46.4203 C.3       7 UNK        -0.1800 
     39 N           2.5636  -17.2206  -44.6245 N.am      7 UNK        -0.5000 
     40 C           1.6906  -17.5411  -43.6582 C.2       6 UNK         0.5000 
     41 O           1.1620  -18.6476  -43.5541 O.2       6 UNK        -0.5000 
     42 CA          1.3269  -16.4332  -42.6601 C.3       6 UNK         0.1400 
     43 CB          2.3683  -16.3582  -41.5338 C.3       6 UNK        -0.1800 
     44 N           1.2212  -15.1270  -43.3035 N.am      6 UNK        -0.5000 
     45 C           0.2081  -14.7388  -44.0853 C.2       5 UNK         0.5000 
     46 O          -0.7474  -15.4596  -44.3816 O.2       5 UNK        -0.5000 
     47 CA          0.2908  -13.2982  -44.6277 C.3       5 UNK         0.1400 
     48 CB         -0.0290  -13.2462  -46.1302 C.3       5 UNK        -0.1800 
     49 N          -0.5801  -12.3480  -43.9350 N.am      5 UNK        -0.5000 
     50 C          -0.6206  -12.1013  -42.6186 C.2       4 UNK         0.5000 
     51 O           0.0271  -12.7159  -41.7697 O.2       4 UNK        -0.5000 
     52 CA         -1.4683  -10.8877  -42.1919 C.3       4 UNK         0.1400 
     53 CB         -2.1319  -11.0932  -40.8191 C.3       4 UNK        -0.1800 
     54 N          -0.6011   -9.7129  -42.1319 N.am      4 UNK        -0.5000 
     55 C          -0.1558   -9.0421  -43.2021 C.2       3 UNK         0.5000 
     56 O          -0.5980   -9.2114  -44.3407 O.2       3 UNK        -0.5000 
     57 CA          1.0034   -8.0415  -42.9920 C.3       3 UNK         0.1400 
     58 CB          1.4418   -7.8691  -41.5194 C.3       3 UNK        -0.1800 
     59 N           2.1557   -8.3870  -43.8358 N.am      3 UNK        -0.5000 
     60 C           2.8164   -9.5544  -43.8480 C.2       2 UNK         0.5000 
     61 O           2.5959  -10.4872  -43.0712 O.2       2 UNK        -0.5000 
     62 CA          3.9069   -9.7182  -44.9143 C.3       2 UNK         0.1400 
     63 CB          5.2976   -9.3856  -44.3502 C.3       2 UNK        -0.1800 
     64 N           3.8729  -11.1056  -45.3587 N.am      2 UNK        -0.5000 
     65 C           4.0791  -11.5377  -46.6054 C.2       1 UNK         0.5000 
     66 O           4.4844  -10.8200  -47.5214 O.2       1 UNK        -0.5000 
     67 C          -1.1976  -23.1319  -48.7650 C.2       11 UNK         0.5000 
     68 O          -1.3905  -24.2041  -49.3357 O.2       11 UNK        -0.5000 
     69 N          -2.1880  -22.3365  -48.3341 N.am      12 UNK        -0.5000 
     70 CA         -3.6107  -22.6718  -48.4280 C.3       12 UNK         0.1400 
     71 CB         -4.4627  -21.4668  -48.0049 C.3       12 UNK        -0.1800 
     72 C          -3.9787  -23.9246  -47.6129 C.2       12 UNK         0.5000 
     73 O          -4.6885  -24.7917  -48.1215 O.2       12 UNK        -0.5000 
     74 N          -3.4565  -24.0265  -46.3822 N.am      13 UNK        -0.5000 
     75 CA         -3.6156  -25.1915  -45.5100 C.3       13 UNK         0.1400 
     76 CB         -3.0494  -24.8821  -44.1163 C.3       13 UNK        -0.1800 
     77 C          -2.9776  -26.4638  -46.0980 C.2       13 UNK         0.5000 
     78 O          -3.6203  -27.5142  -46.1040 O.2       13 UNK        -0.5000 
     79 N          -1.7540  -26.3388  -46.6328 N.am      14 UNK        -0.5000 
     80 CA         -1.0298  -27.4073  -47.3287 C.3       14 UNK         0.1400 
     81 CB          0.3987  -26.9385  -47.6425 C.3       14 UNK        -0.1800 
     82 C          -1.7391  -27.8837  -48.6116 C.2       14 UNK         0.5000 
     83 O          -1.6919  -29.0726  -48.9278 O.2       14 UNK        -0.5000 
     84 N          -2.4236  -26.9586  -49.2964 N.am      15 UNK        -0.5000 
     85 CA         -3.2707  -27.2103  -50.4624 C.3       15 UNK         0.1400 
     86 CB         -3.3299  -25.9314  -51.3145 C.3       15 UNK        -0.1800 
     87 C          -4.6864  -27.7158  -50.0995 C.2       15 UNK         0.5000 
     88 O          -5.5343  -27.7961  -50.9880 O.2       15 UNK        -0.5000 
     89 N          -4.9266  -28.0478  -48.8212 N.am      16 UNK        -0.5000 
     90 CA         -6.1649  -28.5953  -48.2575 C.3       16 UNK         0.1400 
     91 CB         -6.4839  -29.9813  -48.8574 C.3       16 UNK        -0.1800 
     92 C          -7.3473  -27.6081  -48.3300 C.2       16 UNK         0.5000 
     93 O          -8.4604  -27.9942  -48.6907 O.2       16 UNK        -0.5000 
     94 N          -7.0690  -26.3470  -47.9723 N.am      17 UNK        -0.5000 
     95 CA         -7.9824  -25.2002  -47.9188 C.3       17 UNK         0.1400 
     96 CB         -9.1850  -25.4643  -46.9878 C.3       17 UNK        -0.1800 
     97 C          -8.3929  -24.6649  -49.3054 C.2       17 UNK         0.5000 
     98 O          -9.3732  -23.9244  -49.4078 O.2       17 UNK        -0.5000 
     99 N          -7.6184  -25.0070  -50.3431 N.am      18 UNK        -0.5000 
    100 CA        -7.6873  -24.3864  -51.6647 C.3       18 UNK         0.1400 
    101 CB        -7.0428  -25.3281  -52.6925 C.3       18 UNK        -0.1800 
    102 C         -6.9901  -23.0110  -51.6618 C.2       18 UNK         0.5000 
    103 O         -6.2948  -22.6658  -50.7037 O.2       18 UNK        -0.5000 
    104 N         -7.1795  -22.2500  -52.7472 N.am      19 UNK        -0.5000 
    105 CA        -6.6557  -20.8904  -52.9097 C.3       19 UNK         0.1400 
    106 CB        -7.2788  -20.2603  -54.1652 C.3       19 UNK        -0.1800 
    107 C         -5.1188  -20.7962  -52.9771 C.2       19 UNK         0.5000 
    108 O         -4.5786  -19.7343  -52.6751 O.2       19 UNK        -0.5000 
    109 N         -4.4480  -21.8802  -53.4021 N.am      20 UNK        -0.5000 
    110 CA        -2.9872  -22.0232  -53.5247 C.3       20 UNK         0.1400 
    111 CB        -2.3378  -22.1024  -52.1287 C.3       20 UNK        -0.1800 
    112 C         -2.3258  -20.9548  -54.4266 C.2       20 UNK         0.5000 
    113 O         -1.1801  -20.5681  -54.1930 O.2       20 UNK        -0.5000 
    114 N         -3.0835  -20.4926  -55.4330 N.am      21 UNK        -0.5000 
    115 CA        -2.7718  -19.4154  -56.3794 C.3       21 UNK         0.1400 
    116 CB        -1.5273  -19.7583  -57.2256 C.3       21 UNK        -0.1800 
    117 C         -2.6852  -18.0073  -55.7461 C.2       21 UNK         0.5000 
    118 O         -2.2298  -17.0784  -56.4162 O.2       21 UNK        -0.5000 
    119 N         -3.1348  -17.8488  -54.4936 N.am      22 UNK        -0.5000 
    120 CA        -3.2397  -16.5530  -53.8091 C.3       22 UNK         0.1400 
    121 C         -4.4420  -15.7159  -54.3296 C.2       22 UNK         0.5000 
    122 N         -4.3405  -14.3937  -54.3044 N.am      22 UNK        -0.7600 
    123 O         -5.4794  -16.2471  -54.7214 O.2       22 UNK        -0.5000 
    124 C124       -3.3225  -16.7154  -52.2670 C.3       23 UNK        -0.0398 
    125 S125       -1.9565  -17.6198  -51.4453 S.3       23 UNK        -0.2404 
    126 C126       -0.4993  -17.2682  -52.4760 C.3       23 UNK        -0.0205 
    127 H127        6.4405  -14.4500  -43.6120 H         1 UNK         0.0600 
    128 H128        6.5955  -15.3274  -45.1387 H         1 UNK         0.0600 
    129 H129        5.5409  -15.9483  -43.8654 H         1 UNK         0.0600 
    130 H130        5.6050  -14.0769  -46.7239 H         1 UNK         0.3000 
    131 H131        2.8082  -13.2089  -46.3882 H         1 UNK         0.0600 
    132 H132        3.0979  -12.5973  -48.8920 H         1 UNK         0.0800 
    133 H133        4.6074  -13.4751  -48.8306 H         1 UNK         0.0800 
    134 H134        4.5078  -16.1498  -49.4770 H         1 UNK         0.0800 
    135 H135        3.8278  -15.0646  -50.6721 H         1 UNK         0.0800 
    136 H136        1.2055  -15.5754  -51.1994 H         1 UNK         0.1150 
    137 H137        0.6576  -19.7134  -52.1618 H         1 UNK         0.1150 
    138 H138        4.1047  -18.4664  -49.9303 H         1 UNK         0.1150 
    139 H139        2.5197  -21.2451  -51.8579 H         1 UNK         0.0800 
    140 H140        4.0240  -20.6774  -51.1857 H         1 UNK         0.0800 
    141 H141        0.5206  -22.0670  -50.5446 H         1 UNK         0.0800 
    142 H142        0.3118  -20.7329  -49.4301 H         1 UNK         0.0800 
    143 H143        0.8587  -23.6029  -48.5298 H         1 UNK         0.0600 
    144 H144        0.6976  -21.2097  -47.0246 H         1 UNK         0.3000 
    145 H145       -0.1872  -22.7693  -43.8922 H         1 UNK         0.0600 
    146 H146        1.8237  -21.4560  -43.2577 H         1 UNK         0.0600 
    147 H147        2.2782  -22.8968  -44.1561 H         1 UNK         0.0600 
    148 H148        2.3005  -21.3284  -44.9493 H         1 UNK         0.0600 
    149 H149        0.1636  -20.0314  -44.5455 H         1 UNK         0.3000 
    150 H150       -3.2560  -19.3423  -45.4277 H         1 UNK         0.0600 
    151 H151       -3.0918  -19.2446  -42.9451 H         1 UNK         0.0600 
    152 H152       -2.8752  -17.6504  -43.6530 H         1 UNK         0.0600 
    153 H153       -1.4812  -18.5474  -43.0578 H         1 UNK         0.0600 
    154 H154       -0.9599  -17.6649  -45.3432 H         1 UNK         0.3000 
    155 H155        0.0873  -18.1419  -48.7393 H         1 UNK         0.0600 
    156 H156       -1.1218  -15.8037  -47.1654 H         1 UNK         0.0600 
    157 H157       -0.1938  -15.6894  -48.6639 H         1 UNK         0.0600 
    158 H158       -1.7728  -16.4501  -48.6616 H         1 UNK         0.0600 
    159 H159        1.1906  -16.5700  -46.6549 H         1 UNK         0.3000 
    160 H160        3.2845  -19.0812  -45.1934 H         1 UNK         0.0600 
    161 H161        4.0410  -16.6006  -46.7980 H         1 UNK         0.0600 
    162 H162        4.4627  -18.2394  -47.2713 H         1 UNK         0.0600 
    163 H163        5.0805  -17.5772  -45.7681 H         1 UNK         0.0600 
    164 H164        2.9392  -16.2836  -44.6457 H         1 UNK         0.3000 
    165 H165        0.3597  -16.6820  -42.2178 H         1 UNK         0.0600 
    166 H166        2.0833  -15.6191  -40.7847 H         1 UNK         0.0600 
    167 H167        2.4630  -17.3181  -41.0243 H         1 UNK         0.0600 
    168 H168        3.3546  -16.0871  -41.9132 H         1 UNK         0.0600 
    169 H169        1.9949  -14.4878  -43.1575 H         1 UNK         0.3000 
    170 H170        1.3129  -12.9414  -44.4928 H         1 UNK         0.0600 
    171 H171        0.5513  -13.9850  -46.6816 H         1 UNK         0.0600 
    172 H172       -1.0827  -13.4501  -46.3239 H         1 UNK         0.0600 
    173 H173        0.2061  -12.2682  -46.5508 H         1 UNK         0.0600 
    174 H174       -1.1266  -11.7467  -44.5351 H         1 UNK         0.3000 
    175 H175       -2.2588  -10.7253  -42.9279 H         1 UNK         0.0600 
    176 H176       -1.3954  -11.2208  -40.0247 H         1 UNK         0.0600 
    177 H177       -2.7616  -10.2430  -40.5564 H         1 UNK         0.0600 
    178 H178       -2.7672  -11.9796  -40.8239 H         1 UNK         0.0600 
    179 H179       -0.1489   -9.5427  -41.2455 H         1 UNK         0.3000 
    180 H180        0.6377   -7.0754  -43.3426 H         1 UNK         0.0600 
    181 H181        1.8211   -8.7961  -41.0881 H         1 UNK         0.0600 
    182 H182        0.6135   -7.5247  -40.8989 H         1 UNK         0.0600 
    183 H183        2.2319   -7.1228  -41.4362 H         1 UNK         0.0600 
    184 H184        2.3994   -7.6941  -44.5297 H         1 UNK         0.3000 
    185 H185        3.6838   -9.0535  -45.7518 H         1 UNK         0.0600 
    186 H186        5.3403   -8.3535  -44.0004 H         1 UNK         0.0600 
    187 H187        5.5539  -10.0305  -43.5086 H         1 UNK         0.0600 
    188 H188        6.0696   -9.5049  -45.1105 H         1 UNK         0.0600 
    189 H189        3.5562  -11.7615  -44.6518 H         1 UNK         0.3000 
    190 H190       -1.9587  -21.4375  -47.9181 H         1 UNK         0.3000 
    191 H191       -3.8356  -22.8872  -49.4732 H         1 UNK         0.0600 
    192 H192       -4.2631  -21.1696  -46.9756 H         1 UNK         0.0600 
    193 H193       -5.5261  -21.6966  -48.0829 H         1 UNK         0.0600 
    194 H194       -4.2694  -20.6070  -48.6467 H         1 UNK         0.0600 
    195 H195       -2.9192  -23.2481  -46.0104 H         1 UNK         0.3000 
    196 H196       -4.6860  -25.3790  -45.4030 H         1 UNK         0.0600 
    197 H197       -3.1800  -25.7312  -43.4444 H         1 UNK         0.0600 
    198 H198       -3.5577  -24.0294  -43.6660 H         1 UNK         0.0600 
    199 H199       -1.9845  -24.6532  -44.1533 H         1 UNK         0.0600 
    200 H200       -1.2717  -25.4470  -46.5466 H         1 UNK         0.3000 
    201 H201       -0.9668  -28.2607  -46.6506 H         1 UNK         0.0600 
    202 H202        0.9338  -26.6675  -46.7323 H         1 UNK         0.0600 
    203 H203        0.4004  -26.0708  -48.3025 H         1 UNK         0.0600 
    204 H204        0.9702  -27.7268  -48.1340 H         1 UNK         0.0600 
    205 H205       -2.3540  -25.9907  -48.9994 H         1 UNK         0.3000 
    206 H206       -2.8018  -27.9889  -51.0671 H         1 UNK         0.0600 
    207 H207       -2.3308  -25.5526  -51.5300 H         1 UNK         0.0600 
    208 H208       -3.8066  -26.1254  -52.2749 H         1 UNK         0.0600 
    209 H209       -3.8891  -25.1392  -50.8150 H         1 UNK         0.0600 
    210 H210       -4.1834  -27.9006  -48.1489 H         1 UNK         0.3000 
    211 H211       -5.9676  -28.7438  -47.1949 H         1 UNK         0.0600 
    212 H212       -6.7534  -29.9177  -49.9119 H         1 UNK         0.0600 
    213 H213       -7.3203  -30.4479  -48.3359 H         1 UNK         0.0600 
    214 H214       -5.6313  -30.6546  -48.7686 H         1 UNK         0.0600 
    215 H215       -6.0966  -26.1056  -47.8004 H         1 UNK         0.3000 
    216 H216       -7.4024  -24.3959  -47.4641 H         1 UNK         0.0600 
    217 H217       -9.7430  -24.5458  -46.8028 H         1 UNK         0.0600 
    218 H218       -8.8593  -25.8441  -46.0194 H         1 UNK         0.0600 
    219 H219       -9.8823  -26.1844  -47.4161 H         1 UNK         0.0600 
    220 H220       -6.8197  -25.5985  -50.1636 H         1 UNK         0.3000 
    221 H221       -8.7353  -24.2418  -51.9356 H         1 UNK         0.0600 
    222 H222       -5.9758  -25.4442  -52.5122 H         1 UNK         0.0600 
    223 H223       -7.4964  -26.3190  -52.6593 H         1 UNK         0.0600 
    224 H224       -7.1648  -24.9509  -53.7082 H         1 UNK         0.0600 
    225 H225       -7.7582  -22.6004  -53.4971 H         1 UNK         0.3000 
    226 H226       -6.9740  -20.3063  -52.0435 H         1 UNK         0.0600 
    227 H227       -8.3655  -20.2200  -54.0891 H         1 UNK         0.0600 
    228 H228       -6.9274  -19.2366  -54.3053 H         1 UNK         0.0600 
    229 H229       -7.0246  -20.8203  -55.0659 H         1 UNK         0.0600 
    230 H230       -4.9910  -22.6957  -53.6460 H         1 UNK         0.3000 
    231 H231       -2.8138  -22.9795  -54.0199 H         1 UNK         0.0600 
    232 H232       -1.2716  -22.3173  -52.2019 H         1 UNK         0.0600 
    233 H233       -2.7840  -22.9019  -51.5398 H         1 UNK         0.0600 
    234 H234       -2.4492  -21.1701  -51.5733 H         1 UNK         0.0600 
    235 H235       -4.0115  -20.8817  -55.5191 H         1 UNK         0.3000 
    236 H236       -3.6221  -19.3736  -57.0615 H         1 UNK         0.0600 
    237 H237       -1.4066  -19.0522  -58.0478 H         1 UNK         0.0600 
    238 H238       -0.6119  -19.7255  -56.6345 H         1 UNK         0.0600 
    239 H239       -1.6093  -20.7526  -57.6646 H         1 UNK         0.0600 
    240 H240       -3.5163  -18.6423  -53.9890 H         1 UNK         0.3000 
    241 H241       -2.3420  -15.9808  -54.0448 H         1 UNK         0.0600 
    242 H242       -5.1182  -13.8384  -54.6268 H         1 UNK         0.3800 
    243 H243       -3.5041  -13.9298  -53.9846 H         1 UNK         0.3800 
    244 H244       -3.3687  -15.7313  -51.7976 H         1 UNK         0.0800 
    245 H245       -4.2543  -17.2120  -51.9925 H         1 UNK         0.0800 
    246 H246       -0.4901  -16.2131  -52.7513 H         1 UNK         0.0800 
    247 H247       -0.5571  -17.8391  -53.4036 H         1 UNK         0.0800 
@<TRIPOS>BOND
     1    1    2 1    
     2    1  127 1    
     3    1  128 1    
     4    1  129 1    
     5    2    3 2    
     6    2    4 am   BACKBONE|DICT|INTERRES
     7    4    5 1    
     8    4  130 1    
     9    5    6 1    
    10    5   65 1    
    11    5  131 1    
    12    6    7 1    
    13    6  132 1    
    14    6  133 1    
    15    7    8 1    
    16    8    9 1    
    17    8  134 1    
    18    8  135 1    
    19    9   10 ar   
    20    9   14 ar   
    21   10   11 ar   
    22   10  136 1    
    23   11   12 ar   
    24   11  126 1    
    25   12   13 ar   
    26   12  137 1    
    27   13   14 ar   
    28   13   15 1    
    29   14  138 1    
    30   15   16 1    
    31   15  139 1    
    32   15  140 1    
    33   16   17 1    
    34   17   18 1    
    35   17  141 1    
    36   17  142 1    
    37   18   19 1    
    38   18   67 1    
    39   18  143 1    
    40   19   20 am   BACKBONE|DICT|INTERRES
    41   19  144 1    
    42   20   21 2    
    43   20   22 1    
    44   22   23 1    
    45   22   24 1    
    46   22  145 1    
    47   23  146 1    
    48   23  147 1    
    49   23  148 1    
    50   24   25 am   BACKBONE|DICT|INTERRES
    51   24  149 1    
    52   25   26 2    
    53   25   27 1    
    54   27   28 1    
    55   27   29 1    
    56   27  150 1    
    57   28  151 1    
    58   28  152 1    
    59   28  153 1    
    60   29   30 am   BACKBONE|DICT|INTERRES
    61   29  154 1    
    62   30   31 2    
    63   30   32 1    
    64   32   33 1    
    65   32   34 1    
    66   32  155 1    
    67   33  156 1    
    68   33  157 1    
    69   33  158 1    
    70   34   35 am   BACKBONE|DICT|INTERRES
    71   34  159 1    
    72   35   36 2    
    73   35   37 1    
    74   37   38 1    
    75   37   39 1    
    76   37  160 1    
    77   38  161 1    
    78   38  162 1    
    79   38  163 1    
    80   39   40 am   BACKBONE|DICT|INTERRES
    81   39  164 1    
    82   40   41 2    
    83   40   42 1    
    84   42   43 1    
    85   42   44 1    
    86   42  165 1    
    87   43  166 1    
    88   43  167 1    
    89   43  168 1    
    90   44   45 am   BACKBONE|DICT|INTERRES
    91   44  169 1    
    92   45   46 2    
    93   45   47 1    
    94   47   48 1    
    95   47   49 1    
    96   47  170 1    
    97   48  171 1    
    98   48  172 1    
    99   48  173 1    
   100   49   50 am   BACKBONE|DICT|INTERRES
   101   49  174 1    
   102   50   51 2    
   103   50   52 1    
   104   52   53 1    
   105   52   54 1    
   106   52  175 1    
   107   53  176 1    
   108   53  177 1    
   109   53  178 1    
   110   54   55 am   BACKBONE|DICT|INTERRES
   111   54  179 1    
   112   55   56 2    
   113   55   57 1    
   114   57   58 1    
   115   57   59 1    
   116   57  180 1    
   117   58  181 1    
   118   58  182 1    
   119   58  183 1    
   120   59   60 am   BACKBONE|DICT|INTERRES
   121   59  184 1    
   122   60   61 2    
   123   60   62 1    
   124   62   63 1    
   125   62   64 1    
   126   62  185 1    
   127   63  186 1    
   128   63  187 1    
   129   63  188 1    
   130   64   65 am   BACKBONE|DICT|INTERRES
   131   64  189 1    
   132   65   66 2    
   133   67   68 2    
   134   67   69 am   BACKBONE|DICT|INTERRES
   135   69   70 1    
   136   69  190 1    
   137   70   71 1    
   138   70   72 1    
   139   70  191 1    
   140   71  192 1    
   141   71  193 1    
   142   71  194 1    
   143   72   73 2    
   144   72   74 am   BACKBONE|DICT|INTERRES
   145   74   75 1    
   146   74  195 1    
   147   75   76 1    
   148   75   77 1    
   149   75  196 1    
   150   76  197 1    
   151   76  198 1    
   152   76  199 1    
   153   77   78 2    
   154   77   79 am   BACKBONE|DICT|INTERRES
   155   79   80 1    
   156   79  200 1    
   157   80   81 1    
   158   80   82 1    
   159   80  201 1    
   160   81  202 1    
   161   81  203 1    
   162   81  204 1    
   163   82   83 2    
   164   82   84 am   BACKBONE|DICT|INTERRES
   165   84   85 1    
   166   84  205 1    
   167   85   86 1    
   168   85   87 1    
   169   85  206 1    
   170   86  207 1    
   171   86  208 1    
   172   86  209 1    
   173   87   88 2    
   174   87   89 am   BACKBONE|DICT|INTERRES
   175   89   90 1    
   176   89  210 1    
   177   90   91 1    
   178   90   92 1    
   179   90  211 1    
   180   91  212 1    
   181   91  213 1    
   182   91  214 1    
   183   92   93 2    
   184   92   94 am   BACKBONE|DICT|INTERRES
   185   94   95 1    
   186   94  215 1    
   187   95   96 1    
   188   95   97 1    
   189   95  216 1    
   190   96  217 1    
   191   96  218 1    
   192   96  219 1    
   193   97   98 2    
   194   97   99 am   BACKBONE|DICT|INTERRES
   195   99  100 1    
   196   99  220 1    
   197  100  101 1    
   198  100  102 1    
   199  100  221 1    
   200  101  222 1    
   201  101  223 1    
   202  101  224 1    
   203  102  103 2    
   204  102  104 am   BACKBONE|DICT|INTERRES
   205  104  105 1    
   206  104  225 1    
   207  105  106 1    
   208  105  107 1    
   209  105  226 1    
   210  106  227 1    
   211  106  228 1    
   212  106  229 1    
   213  107  108 2    
   214  107  109 am   BACKBONE|DICT|INTERRES
   215  109  110 1    
   216  109  230 1    
   217  110  111 1    
   218  110  112 1    
   219  110  231 1    
   220  111  232 1    
   221  111  233 1    
   222  111  234 1    
   223  112  113 2    
   224  112  114 am   BACKBONE|DICT|INTERRES
   225  114  115 1    
   226  114  235 1    
   227  115  116 1    
   228  115  117 1    
   229  115  236 1    
   230  116  237 1    
   231  116  238 1    
   232  116  239 1    
   233  117  118 2    
   234  117  119 am   BACKBONE|DICT|INTERRES
   235  119  120 1    
   236  119  240 1    
   237  120  121 1    
   238  120  124 1    
   239  120  241 1    
   240  121  122 am   BACKBONE|DICT|INTERRES
   241  121  123 2    
   242  122  242 1    
   243  122  243 1    
   244  124  125 1    
   245  124  244 1    
   246  124  245 1    
   247  125  126 1    
   248  126  246 1    
   249  126  247 1    
@<TRIPOS>SUBSTRUCTURE
     1 UNK         1 GROUP             0       ****    0 ROOT    
