@<TRIPOS>MOLECULE
3R540
247   249    1
SMALL
USER_CHARGES


@<TRIPOS>ATOM
      1 CA          4.5396  -17.4867  -47.4772 C.3       0 UNK        -0.1800 
      2 C           3.0801  -17.2881  -47.8568 C.2       0 UNK         0.5000 
      3 O           2.2393  -18.1194  -47.5152 O.2       0 UNK        -0.5000 
      4 N           2.7900  -16.1907  -48.5687 N.am      1 UNK        -0.5000 
      5 CA          1.4621  -15.7948  -49.0591 C.3       1 UNK         0.1400 
      6 C6          1.5816  -14.5836  -50.0205 C.3       23 UNK        -0.0398 
      7 S7          0.1873  -14.4314  -51.1893 S.3       23 UNK        -0.2404 
      8 C8          0.9932  -14.7165  -52.7986 C.3       23 UNK        -0.0205 
      9 C9          1.0311  -16.1915  -53.1725 C.ar      23 UNK        -0.0193 
     10 C10         0.1845  -16.6818  -54.1712 C.ar      23 UNK        -0.1150 
     11 C11         0.2240  -18.0280  -54.5460 C.ar      23 UNK        -0.0193 
     12 C12         1.1171  -18.8892  -53.8965 C.ar      23 UNK        -0.1150 
     13 C13         1.9645  -18.4150  -52.8896 C.ar      23 UNK        -0.0193 
     14 C14         1.9225  -17.0628  -52.5405 C.ar      23 UNK        -0.1150 
     15 C15         2.9415  -19.3514  -52.1880 C.3       23 UNK        -0.0205 
     16 S16         2.1209  -20.7429  -51.3447 S.3       23 UNK        -0.2404 
     17 C17         1.0013  -19.8763  -50.1968 C.3       23 UNK        -0.0398 
     18 CA          0.4243  -20.8324  -49.1267 C.3       11 UNK         0.1400 
     19 N           1.4405  -21.3953  -48.2332 N.am      11 UNK        -0.5000 
     20 C           1.2830  -22.5633  -47.5955 C.2       10 UNK         0.5000 
     21 O           0.2961  -23.2884  -47.7280 O.2       10 UNK        -0.5000 
     22 CA          2.4066  -22.9935  -46.6357 C.3       10 UNK         0.1400 
     23 CB          3.6119  -23.5330  -47.4218 C.3       10 UNK        -0.1800 
     24 N           2.8597  -21.9523  -45.7088 N.am      10 UNK        -0.5000 
     25 C           2.0822  -21.2863  -44.8440 C.2       9 UNK         0.5000 
     26 O           0.8524  -21.3577  -44.8289 O.2       9 UNK        -0.5000 
     27 CA          2.8194  -20.3933  -43.8259 C.3       9 UNK         0.1400 
     28 CB          3.2693  -19.0737  -44.4638 C.3       9 UNK        -0.1800 
     29 N           2.0149  -20.1000  -42.6387 N.am      9 UNK        -0.5000 
     30 C           1.6971  -20.9980  -41.6960 C.2       8 UNK         0.5000 
     31 O           2.0886  -22.1663  -41.7101 O.2       8 UNK        -0.5000 
     32 CA          0.8288  -20.5161  -40.5169 C.3       8 UNK         0.1400 
     33 CB          1.6832  -20.3599  -39.2485 C.3       8 UNK        -0.1800 
     34 N           0.1326  -19.2517  -40.7596 N.am      8 UNK        -0.5000 
     35 C          -0.9871  -19.1196  -41.4830 C.2       7 UNK         0.5000 
     36 O          -1.5116  -20.0441  -42.1034 O.2       7 UNK        -0.5000 
     37 CA         -1.6340  -17.7182  -41.4608 C.3       7 UNK         0.1400 
     38 CB         -3.0424  -17.6852  -42.0912 C.3       7 UNK        -0.1800 
     39 N          -1.6458  -17.1350  -40.1123 N.am      7 UNK        -0.5000 
     40 C          -2.2496  -17.6306  -39.0171 C.2       6 UNK         0.5000 
     41 O          -2.9399  -18.6504  -39.0180 O.2       6 UNK        -0.5000 
     42 CA         -2.0355  -16.8886  -37.6794 C.3       6 UNK         0.1400 
     43 CB         -1.0675  -17.6799  -36.7846 C.3       6 UNK        -0.1800 
     44 N          -1.5171  -15.5294  -37.8312 N.am      6 UNK        -0.5000 
     45 C          -2.2064  -14.4843  -38.3080 C.2       5 UNK         0.5000 
     46 O          -3.4063  -14.5264  -38.5815 O.2       5 UNK        -0.5000 
     47 CA         -1.4175  -13.1776  -38.5446 C.3       5 UNK         0.1400 
     48 CB         -1.6957  -12.1728  -37.4158 C.3       5 UNK        -0.1800 
     49 N           0.0367  -13.3461  -38.6814 N.am      5 UNK        -0.5000 
     50 C           0.6504  -14.0882  -39.6135 C.2       4 UNK         0.5000 
     51 O           0.0485  -14.7919  -40.4268 O.2       4 UNK        -0.5000 
     52 CA          2.1905  -14.0994  -39.5758 C.3       4 UNK         0.1400 
     53 CB          2.6862  -15.1286  -38.5471 C.3       4 UNK        -0.1800 
     54 N           2.7716  -14.4261  -40.8782 N.am      4 UNK        -0.5000 
     55 C           2.7074  -13.6488  -41.9669 C.2       3 UNK         0.5000 
     56 O           2.2302  -12.5117  -41.9650 O.2       3 UNK        -0.5000 
     57 CA          3.2824  -14.2148  -43.2848 C.3       3 UNK         0.1400 
     58 CB          3.9051  -15.6249  -43.1624 C.3       3 UNK        -0.1800 
     59 N           2.2869  -14.1775  -44.3612 N.am      3 UNK        -0.5000 
     60 C           1.1059  -14.8166  -44.3787 C.2       2 UNK         0.5000 
     61 O           0.7244  -15.5944  -43.5061 O.2       2 UNK        -0.5000 
     62 CA          0.2279  -14.5858  -45.6141 C.3       2 UNK         0.1400 
     63 CB         -0.2808  -13.1363  -45.6993 C.3       2 UNK        -0.1800 
     64 N           0.9816  -14.9332  -46.8153 N.am      2 UNK        -0.5000 
     65 C           0.4661  -15.4926  -47.9168 C.2       1 UNK         0.5000 
     66 O          -0.7248  -15.7740  -48.0529 O.2       1 UNK        -0.5000 
     67 C          -0.7000  -20.1692  -48.3122 C.2       11 UNK         0.5000 
     68 O          -1.8678  -20.3434  -48.6579 O.2       11 UNK        -0.5000 
     69 N          -0.3480  -19.4599  -47.2310 N.am      12 UNK        -0.5000 
     70 CA         -1.2709  -18.7852  -46.3133 C.3       12 UNK         0.1400 
     71 CB         -0.4709  -18.1292  -45.1828 C.3       12 UNK        -0.1800 
     72 C          -2.3518  -19.7124  -45.7301 C.2       12 UNK         0.5000 
     73 O          -3.5308  -19.3568  -45.7477 O.2       12 UNK        -0.5000 
     74 N          -1.9379  -20.9099  -45.2966 N.am      13 UNK        -0.5000 
     75 CA         -2.8028  -21.9673  -44.7681 C.3       13 UNK         0.1400 
     76 CB         -1.9187  -23.0866  -44.1973 C.3       13 UNK        -0.1800 
     77 C          -3.7945  -22.5398  -45.8027 C.2       13 UNK         0.5000 
     78 O          -4.8119  -23.1133  -45.4130 O.2       13 UNK        -0.5000 
     79 N          -3.4914  -22.3588  -47.0937 N.am      14 UNK        -0.5000 
     80 CA         -4.3128  -22.7460  -48.2386 C.3       14 UNK         0.1400 
     81 CB         -3.4187  -23.5145  -49.2272 C.3       14 UNK        -0.1800 
     82 C          -5.0040  -21.5244  -48.8852 C.2       14 UNK         0.5000 
     83 O          -5.4190  -21.6075  -50.0433 O.2       14 UNK        -0.5000 
     84 N          -5.1148  -20.4186  -48.1289 N.am      15 UNK        -0.5000 
     85 CA         -5.7456  -19.1425  -48.4822 C.3       15 UNK         0.1400 
     86 CB         -7.2603  -19.3278  -48.7156 C.3       15 UNK        -0.1800 
     87 C          -5.0322  -18.4510  -49.6588 C.2       15 UNK         0.5000 
     88 O          -5.6451  -18.2061  -50.6972 O.2       15 UNK        -0.5000 
     89 N          -3.7250  -18.2028  -49.4882 N.am      16 UNK        -0.5000 
     90 CA         -2.7814  -17.7217  -50.5103 C.3       16 UNK         0.1400 
     91 CB         -3.1132  -16.2804  -50.9475 C.3       16 UNK        -0.1800 
     92 C          -2.6792  -18.7098  -51.6927 C.2       16 UNK         0.5000 
     93 O          -2.6365  -18.3033  -52.8526 O.2       16 UNK        -0.5000 
     94 N          -2.7058  -20.0046  -51.3463 N.am      17 UNK        -0.5000 
     95 CA         -2.7604  -21.1853  -52.2076 C.3       17 UNK         0.1400 
     96 CB         -1.4025  -21.4413  -52.8826 C.3       17 UNK        -0.1800 
     97 C          -3.9484  -21.2278  -53.1887 C.2       17 UNK         0.5000 
     98 O          -3.9030  -22.0008  -54.1459 O.2       17 UNK        -0.5000 
     99 N          -5.0182  -20.4624  -52.9234 N.am      18 UNK        -0.5000 
    100 CA        -6.2526  -20.4617  -53.7116 C.3       18 UNK         0.1400 
    101 CB        -7.1777  -19.3333  -53.2378 C.3       18 UNK        -0.1800 
    102 C         -6.9863  -21.8128  -53.6653 C.2       18 UNK         0.5000 
    103 O         -7.5760  -22.2118  -54.6695 O.2       18 UNK        -0.5000 
    104 N         -6.8756  -22.5275  -52.5348 N.am      19 UNK        -0.5000 
    105 CA        -7.3906  -23.8887  -52.3586 C.3       19 UNK         0.1400 
    106 CB        -7.2969  -24.2701  -50.8735 C.3       19 UNK        -0.1800 
    107 C         -6.6707  -24.9378  -53.2343 C.2       19 UNK         0.5000 
    108 O         -7.2399  -25.9979  -53.4957 O.2       19 UNK        -0.5000 
    109 N         -5.4475  -24.6199  -53.6786 N.am      20 UNK        -0.5000 
    110 CA        -4.6230  -25.4312  -54.5741 C.3       20 UNK         0.1400 
    111 CB        -3.2199  -25.5480  -53.9529 C.3       20 UNK        -0.1800 
    112 C         -4.5398  -24.8253  -55.9910 C.2       20 UNK         0.5000 
    113 O         -3.7790  -25.3360  -56.8146 O.2       20 UNK        -0.5000 
    114 N         -5.2715  -23.7267  -56.2440 N.am      21 UNK        -0.5000 
    115 CA        -5.2625  -22.9059  -57.4636 C.3       21 UNK         0.1400 
    116 CB        -5.9474  -23.6629  -58.6197 C.3       21 UNK        -0.1800 
    117 C         -3.8585  -22.3756  -57.8440 C.2       21 UNK         0.5000 
    118 O         -3.5536  -22.2248  -59.0284 O.2       21 UNK        -0.5000 
    119 N         -3.0216  -22.1272  -56.8276 N.am      22 UNK        -0.5000 
    120 CA        -1.5901  -21.8011  -56.9298 C.3       22 UNK         0.1400 
    121 C         -0.6939  -22.9567  -57.4835 C.2       22 UNK         0.5000 
    122 N         -1.1619  -24.1988  -57.5414 N.am      22 UNK        -0.7600 
    123 O          0.4591  -22.7399  -57.8454 O.2       22 UNK        -0.5000 
    124 C124       -1.3377  -20.4252  -57.6149 C.3       23 UNK        -0.0398 
    125 S125        0.0908  -19.5357  -56.9018 S.3       23 UNK        -0.2404 
    126 C126       -0.7355  -18.5459  -55.6148 C.3       23 UNK        -0.0205 
    127 H127        5.2012  -16.8665  -48.0822 H         1 UNK         0.0600 
    128 H128        4.8282  -18.5277  -47.6226 H         1 UNK         0.0600 
    129 H129        4.6932  -17.2284  -46.4299 H         1 UNK         0.0600 
    130 H130        3.5442  -15.5619  -48.8057 H         1 UNK         0.3000 
    131 H131        1.0661  -16.6451  -49.6178 H         1 UNK         0.0600 
    132 H132        2.5040  -14.6557  -50.5968 H         1 UNK         0.0800 
    133 H133        1.6716  -13.6475  -49.4659 H         1 UNK         0.0800 
    134 H134        2.0023  -14.3025  -52.8047 H         1 UNK         0.0800 
    135 H135        0.4419  -14.1557  -53.5548 H         1 UNK         0.0800 
    136 H136       -0.5122  -16.0128  -54.6564 H         1 UNK         0.1150 
    137 H137        1.1492  -19.9347  -54.1691 H         1 UNK         0.1150 
    138 H138        2.5866  -16.6883  -51.7758 H         1 UNK         0.1150 
    139 H139        3.6378  -19.7502  -52.9268 H         1 UNK         0.0800 
    140 H140        3.5460  -18.8090  -51.4592 H         1 UNK         0.0800 
    141 H141        0.1993  -19.4349  -50.7904 H         1 UNK         0.0800 
    142 H142        1.5370  -19.0473  -49.7406 H         1 UNK         0.0800 
    143 H143       -0.0437  -21.6572  -49.6696 H         1 UNK         0.0600 
    144 H144        2.2661  -20.8395  -48.0626 H         1 UNK         0.3000 
    145 H145        2.0119  -23.8095  -46.0268 H         1 UNK         0.0600 
    146 H146        4.3603  -23.9601  -46.7539 H         1 UNK         0.0600 
    147 H147        3.3076  -24.3214  -48.1117 H         1 UNK         0.0600 
    148 H148        4.0932  -22.7506  -48.0099 H         1 UNK         0.0600 
    149 H149        3.8583  -21.8123  -45.6619 H         1 UNK         0.3000 
    150 H150        3.7120  -20.9318  -43.5000 H         1 UNK         0.0600 
    151 H151        3.8508  -19.2603  -45.3658 H         1 UNK         0.0600 
    152 H152        3.9069  -18.5104  -43.7835 H         1 UNK         0.0600 
    153 H153        2.4255  -18.4416  -44.7382 H         1 UNK         0.0600 
    154 H154        1.6258  -19.1727  -42.5663 H         1 UNK         0.3000 
    155 H155        0.0819  -21.2905  -40.3286 H         1 UNK         0.0600 
    156 H156        2.4456  -19.5891  -39.3691 H         1 UNK         0.0600 
    157 H157        2.1945  -21.2916  -39.0028 H         1 UNK         0.0600 
    158 H158        1.0680  -20.0933  -38.3887 H         1 UNK         0.0600 
    159 H159        0.4891  -18.4398  -40.2778 H         1 UNK         0.3000 
    160 H160       -0.9907  -17.0764  -42.0632 H         1 UNK         0.0600 
    161 H161       -3.7409  -18.3338  -41.5622 H         1 UNK         0.0600 
    162 H162       -3.0160  -18.0182  -43.1289 H         1 UNK         0.0600 
    163 H163       -3.4514  -16.6750  -42.0852 H         1 UNK         0.0600 
    164 H164       -1.1021  -16.2806  -40.0203 H         1 UNK         0.3000 
    165 H165       -3.0030  -16.8337  -37.1761 H         1 UNK         0.0600 
    166 H166       -0.0768  -17.7587  -37.2343 H         1 UNK         0.0600 
    167 H167       -0.9574  -17.2084  -35.8078 H         1 UNK         0.0600 
    168 H168       -1.4312  -18.6941  -36.6142 H         1 UNK         0.0600 
    169 H169       -0.5388  -15.3940  -37.6256 H         1 UNK         0.3000 
    170 H170       -1.7846  -12.7501  -39.4798 H         1 UNK         0.0600 
    171 H171       -1.3202  -12.5322  -36.4569 H         1 UNK         0.0600 
    172 H172       -1.2297  -11.2088  -37.6205 H         1 UNK         0.0600 
    173 H173       -2.7663  -11.9957  -37.3034 H         1 UNK         0.0600 
    174 H174        0.6037  -12.8204  -38.0315 H         1 UNK         0.3000 
    175 H175        2.5409  -13.1075  -39.2827 H         1 UNK         0.0600 
    176 H176        2.3601  -16.1390  -38.7982 H         1 UNK         0.0600 
    177 H177        3.7747  -15.1331  -38.4868 H         1 UNK         0.0600 
    178 H178        2.3098  -14.9011  -37.5490 H         1 UNK         0.0600 
    179 H179        3.1446  -15.3576  -40.9811 H         1 UNK         0.3000 
    180 H180        4.0799  -13.5322  -43.5816 H         1 UNK         0.0600 
    181 H181        4.3029  -15.9570  -44.1213 H         1 UNK         0.0600 
    182 H182        3.1803  -16.3691  -42.8316 H         1 UNK         0.0600 
    183 H183        4.7353  -15.6296  -42.4552 H         1 UNK         0.0600 
    184 H184        2.4793  -13.5105  -45.0940 H         1 UNK         0.3000 
    185 H185       -0.6403  -15.2412  -45.5223 H         1 UNK         0.0600 
    186 H186       -0.8055  -12.8533  -44.7858 H         1 UNK         0.0600 
    187 H187        0.5331  -12.4258  -45.8464 H         1 UNK         0.0600 
    188 H188       -0.9805  -13.0160  -46.5265 H         1 UNK         0.0600 
    189 H189        1.9829  -14.8134  -46.7667 H         1 UNK         0.3000 
    190 H190        0.6400  -19.3149  -47.0548 H         1 UNK         0.3000 
    191 H191       -1.7722  -17.9987  -46.8798 H         1 UNK         0.0600 
    192 H192       -1.1088  -17.4789  -44.5850 H         1 UNK         0.0600 
    193 H193        0.3408  -17.5214  -45.5778 H         1 UNK         0.0600 
    194 H194       -0.0348  -18.8666  -44.5101 H         1 UNK         0.0600 
    195 H195       -0.9367  -21.0969  -45.2753 H         1 UNK         0.3000 
    196 H196       -3.3882  -21.5405  -43.9513 H         1 UNK         0.0600 
    197 H197       -1.2792  -23.5221  -44.9664 H         1 UNK         0.0600 
    198 H198       -1.2747  -22.7096  -43.4019 H         1 UNK         0.0600 
    199 H199       -2.5232  -23.8895  -43.7737 H         1 UNK         0.0600 
    200 H200       -2.6538  -21.8355  -47.3191 H         1 UNK         0.3000 
    201 H201       -5.1133  -23.4173  -47.9226 H         1 UNK         0.0600 
    202 H202       -2.5370  -22.9357  -49.5017 H         1 UNK         0.0600 
    203 H203       -3.9512  -23.7761  -50.1418 H         1 UNK         0.0600 
    204 H204       -3.0681  -24.4468  -48.7844 H         1 UNK         0.0600 
    205 H205       -4.6877  -20.4375  -47.2102 H         1 UNK         0.3000 
    206 H206       -5.6249  -18.4874  -47.6181 H         1 UNK         0.0600 
    207 H207       -7.7387  -19.7847  -47.8495 H         1 UNK         0.0600 
    208 H208       -7.7471  -18.3671  -48.8868 H         1 UNK         0.0600 
    209 H209       -7.4678  -19.9558  -49.5825 H         1 UNK         0.0600 
    210 H210       -3.3005  -18.5202  -48.6274 H         1 UNK         0.3000 
    211 H211       -1.7963  -17.7015  -50.0419 H         1 UNK         0.0600 
    212 H212       -2.3700  -15.9092  -51.6532 H         1 UNK         0.0600 
    213 H213       -3.1160  -15.6027  -50.0938 H         1 UNK         0.0600 
    214 H214       -4.0841  -16.2127  -51.4381 H         1 UNK         0.0600 
    215 H215       -2.7218  -20.2018  -50.3496 H         1 UNK         0.3000 
    216 H216       -2.9381  -22.0259  -51.5417 H         1 UNK         0.0600 
    217 H217       -1.1171  -20.6199  -53.5329 H         1 UNK         0.0600 
    218 H218       -1.4161  -22.3515  -53.4825 H         1 UNK         0.0600 
    219 H219       -0.6176  -21.5666  -52.1393 H         1 UNK         0.0600 
    220 H220       -5.0054  -19.8684  -52.1030 H         1 UNK         0.3000 
    221 H221       -5.9815  -20.2663  -54.7512 H         1 UNK         0.0600 
    222 H222       -6.6830  -18.3640  -53.3027 H         1 UNK         0.0600 
    223 H223       -7.4944  -19.4815  -52.2047 H         1 UNK         0.0600 
    224 H224       -8.0772  -19.2815  -53.8525 H         1 UNK         0.0600 
    225 H225       -6.3676  -22.1276  -51.7501 H         1 UNK         0.3000 
    226 H226       -8.4440  -23.8890  -52.6457 H         1 UNK         0.0600 
    227 H227       -6.2623  -24.3072  -50.5331 H         1 UNK         0.0600 
    228 H228       -7.8300  -23.5547  -50.2469 H         1 UNK         0.0600 
    229 H229       -7.7366  -25.2519  -50.6935 H         1 UNK         0.0600 
    230 H230       -5.0685  -23.7115  -53.4435 H         1 UNK         0.3000 
    231 H231       -5.0388  -26.4354  -54.6758 H         1 UNK         0.0600 
    232 H232       -2.7317  -24.5757  -53.8761 H         1 UNK         0.0600 
    233 H233       -2.5753  -26.1925  -54.5518 H         1 UNK         0.0600 
    234 H234       -3.2668  -25.9789  -52.9526 H         1 UNK         0.0600 
    235 H235       -5.8710  -23.3839  -55.5047 H         1 UNK         0.3000 
    236 H236       -5.8663  -22.0253  -57.2405 H         1 UNK         0.0600 
    237 H237       -6.9405  -24.0070  -58.3308 H         1 UNK         0.0600 
    238 H238       -6.0699  -23.0204  -59.4923 H         1 UNK         0.0600 
    239 H239       -5.3683  -24.5328  -58.9315 H         1 UNK         0.0600 
    240 H240       -3.3737  -22.2421  -55.8790 H         1 UNK         0.3000 
    241 H241       -1.2823  -21.7067  -55.8888 H         1 UNK         0.0600 
    242 H242       -0.5643  -24.9293  -57.8935 H         1 UNK         0.3800 
    243 H243       -2.1117  -24.4266  -57.2644 H         1 UNK         0.3800 
    244 H244       -1.1855  -20.5469  -58.6885 H         1 UNK         0.0800 
    245 H245       -2.2141  -19.7829  -57.5173 H         1 UNK         0.0800 
    246 H246       -1.2519  -17.7167  -56.1006 H         1 UNK         0.0800 
    247 H247       -1.5115  -19.1412  -55.1358 H         1 UNK         0.0800 
@<TRIPOS>BOND
     1    1    2 1    
     2    1  127 1    
     3    1  128 1    
     4    1  129 1    
     5    2    3 2    
     6    2    4 am   BACKBONE|DICT|INTERRES
     7    4    5 1    
     8    4  130 1    
     9    5    6 1    
    10    5   65 1    
    11    5  131 1    
    12    6    7 1    
    13    6  132 1    
    14    6  133 1    
    15    7    8 1    
    16    8    9 1    
    17    8  134 1    
    18    8  135 1    
    19    9   10 ar   
    20    9   14 ar   
    21   10   11 ar   
    22   10  136 1    
    23   11   12 ar   
    24   11  126 1    
    25   12   13 ar   
    26   12  137 1    
    27   13   14 ar   
    28   13   15 1    
    29   14  138 1    
    30   15   16 1    
    31   15  139 1    
    32   15  140 1    
    33   16   17 1    
    34   17   18 1    
    35   17  141 1    
    36   17  142 1    
    37   18   19 1    
    38   18   67 1    
    39   18  143 1    
    40   19   20 am   BACKBONE|DICT|INTERRES
    41   19  144 1    
    42   20   21 2    
    43   20   22 1    
    44   22   23 1    
    45   22   24 1    
    46   22  145 1    
    47   23  146 1    
    48   23  147 1    
    49   23  148 1    
    50   24   25 am   BACKBONE|DICT|INTERRES
    51   24  149 1    
    52   25   26 2    
    53   25   27 1    
    54   27   28 1    
    55   27   29 1    
    56   27  150 1    
    57   28  151 1    
    58   28  152 1    
    59   28  153 1    
    60   29   30 am   BACKBONE|DICT|INTERRES
    61   29  154 1    
    62   30   31 2    
    63   30   32 1    
    64   32   33 1    
    65   32   34 1    
    66   32  155 1    
    67   33  156 1    
    68   33  157 1    
    69   33  158 1    
    70   34   35 am   BACKBONE|DICT|INTERRES
    71   34  159 1    
    72   35   36 2    
    73   35   37 1    
    74   37   38 1    
    75   37   39 1    
    76   37  160 1    
    77   38  161 1    
    78   38  162 1    
    79   38  163 1    
    80   39   40 am   BACKBONE|DICT|INTERRES
    81   39  164 1    
    82   40   41 2    
    83   40   42 1    
    84   42   43 1    
    85   42   44 1    
    86   42  165 1    
    87   43  166 1    
    88   43  167 1    
    89   43  168 1    
    90   44   45 am   BACKBONE|DICT|INTERRES
    91   44  169 1    
    92   45   46 2    
    93   45   47 1    
    94   47   48 1    
    95   47   49 1    
    96   47  170 1    
    97   48  171 1    
    98   48  172 1    
    99   48  173 1    
   100   49   50 am   BACKBONE|DICT|INTERRES
   101   49  174 1    
   102   50   51 2    
   103   50   52 1    
   104   52   53 1    
   105   52   54 1    
   106   52  175 1    
   107   53  176 1    
   108   53  177 1    
   109   53  178 1    
   110   54   55 am   BACKBONE|DICT|INTERRES
   111   54  179 1    
   112   55   56 2    
   113   55   57 1    
   114   57   58 1    
   115   57   59 1    
   116   57  180 1    
   117   58  181 1    
   118   58  182 1    
   119   58  183 1    
   120   59   60 am   BACKBONE|DICT|INTERRES
   121   59  184 1    
   122   60   61 2    
   123   60   62 1    
   124   62   63 1    
   125   62   64 1    
   126   62  185 1    
   127   63  186 1    
   128   63  187 1    
   129   63  188 1    
   130   64   65 am   BACKBONE|DICT|INTERRES
   131   64  189 1    
   132   65   66 2    
   133   67   68 2    
   134   67   69 am   BACKBONE|DICT|INTERRES
   135   69   70 1    
   136   69  190 1    
   137   70   71 1    
   138   70   72 1    
   139   70  191 1    
   140   71  192 1    
   141   71  193 1    
   142   71  194 1    
   143   72   73 2    
   144   72   74 am   BACKBONE|DICT|INTERRES
   145   74   75 1    
   146   74  195 1    
   147   75   76 1    
   148   75   77 1    
   149   75  196 1    
   150   76  197 1    
   151   76  198 1    
   152   76  199 1    
   153   77   78 2    
   154   77   79 am   BACKBONE|DICT|INTERRES
   155   79   80 1    
   156   79  200 1    
   157   80   81 1    
   158   80   82 1    
   159   80  201 1    
   160   81  202 1    
   161   81  203 1    
   162   81  204 1    
   163   82   83 2    
   164   82   84 am   BACKBONE|DICT|INTERRES
   165   84   85 1    
   166   84  205 1    
   167   85   86 1    
   168   85   87 1    
   169   85  206 1    
   170   86  207 1    
   171   86  208 1    
   172   86  209 1    
   173   87   88 2    
   174   87   89 am   BACKBONE|DICT|INTERRES
   175   89   90 1    
   176   89  210 1    
   177   90   91 1    
   178   90   92 1    
   179   90  211 1    
   180   91  212 1    
   181   91  213 1    
   182   91  214 1    
   183   92   93 2    
   184   92   94 am   BACKBONE|DICT|INTERRES
   185   94   95 1    
   186   94  215 1    
   187   95   96 1    
   188   95   97 1    
   189   95  216 1    
   190   96  217 1    
   191   96  218 1    
   192   96  219 1    
   193   97   98 2    
   194   97   99 am   BACKBONE|DICT|INTERRES
   195   99  100 1    
   196   99  220 1    
   197  100  101 1    
   198  100  102 1    
   199  100  221 1    
   200  101  222 1    
   201  101  223 1    
   202  101  224 1    
   203  102  103 2    
   204  102  104 am   BACKBONE|DICT|INTERRES
   205  104  105 1    
   206  104  225 1    
   207  105  106 1    
   208  105  107 1    
   209  105  226 1    
   210  106  227 1    
   211  106  228 1    
   212  106  229 1    
   213  107  108 2    
   214  107  109 am   BACKBONE|DICT|INTERRES
   215  109  110 1    
   216  109  230 1    
   217  110  111 1    
   218  110  112 1    
   219  110  231 1    
   220  111  232 1    
   221  111  233 1    
   222  111  234 1    
   223  112  113 2    
   224  112  114 am   BACKBONE|DICT|INTERRES
   225  114  115 1    
   226  114  235 1    
   227  115  116 1    
   228  115  117 1    
   229  115  236 1    
   230  116  237 1    
   231  116  238 1    
   232  116  239 1    
   233  117  118 2    
   234  117  119 am   BACKBONE|DICT|INTERRES
   235  119  120 1    
   236  119  240 1    
   237  120  121 1    
   238  120  124 1    
   239  120  241 1    
   240  121  122 am   BACKBONE|DICT|INTERRES
   241  121  123 2    
   242  122  242 1    
   243  122  243 1    
   244  124  125 1    
   245  124  244 1    
   246  124  245 1    
   247  125  126 1    
   248  126  246 1    
   249  126  247 1    
@<TRIPOS>SUBSTRUCTURE
     1 UNK         1 GROUP             0       ****    0 ROOT    
