@<TRIPOS>MOLECULE
3R540
247   249    1
SMALL
USER_CHARGES


@<TRIPOS>ATOM
      1 CA          4.8701  -16.1190  -45.0383 C.3       0 UNK        -0.1800 
      2 C           3.6224  -15.2836  -45.2846 C.2       0 UNK         0.5000 
      3 O           2.7662  -15.1724  -44.4078 O.2       0 UNK        -0.5000 
      4 N           3.5317  -14.6647  -46.4679 N.am      1 UNK        -0.5000 
      5 CA          2.4054  -13.8271  -46.9052 C.3       1 UNK         0.1400 
      6 C6          2.4664  -13.5230  -48.4212 C.3       23 UNK        -0.0398 
      7 S7          2.4341  -15.0401  -49.4357 S.3       23 UNK        -0.2404 
      8 C8          0.6802  -15.0857  -49.9107 C.3       23 UNK        -0.0205 
      9 C9          0.3711  -16.2928  -50.7799 C.ar      23 UNK        -0.0193 
     10 C10         0.3934  -16.1729  -52.1728 C.ar      23 UNK        -0.1150 
     11 C11         0.0868  -17.2684  -52.9835 C.ar      23 UNK        -0.0193 
     12 C12        -0.2282  -18.4930  -52.3900 C.ar      23 UNK        -0.1150 
     13 C13        -0.2636  -18.6252  -50.9994 C.ar      23 UNK        -0.0193 
     14 C14         0.0403  -17.5212  -50.1964 C.ar      23 UNK        -0.1150 
     15 C15        -0.6515  -19.9580  -50.3791 C.3       23 UNK        -0.0205 
     16 S16         0.8039  -21.0233  -50.1523 S.3       23 UNK        -0.2404 
     17 C17         0.0470  -22.6899  -50.1255 C.3       23 UNK        -0.0398 
     18 CA         -0.1010  -23.3178  -48.7178 C.3       11 UNK         0.1400 
     19 N           1.1253  -23.2088  -47.9251 N.am      11 UNK        -0.5000 
     20 C           1.3656  -23.8732  -46.7882 C.2       10 UNK         0.5000 
     21 O           0.5833  -24.6801  -46.2891 O.2       10 UNK        -0.5000 
     22 CA          2.6801  -23.5382  -46.0615 C.3       10 UNK         0.1400 
     23 CB          3.8415  -24.3609  -46.6386 C.3       10 UNK        -0.1800 
     24 N           3.0243  -22.1133  -46.1008 N.am      10 UNK        -0.5000 
     25 C           2.2637  -21.1355  -45.5917 C.2       9 UNK         0.5000 
     26 O           1.1465  -21.3227  -45.1045 O.2       9 UNK        -0.5000 
     27 CA          2.8313  -19.7088  -45.6631 C.3       9 UNK         0.1400 
     28 CB          2.1911  -18.9278  -46.8231 C.3       9 UNK        -0.1800 
     29 N           2.5892  -19.0093  -44.4024 N.am      9 UNK        -0.5000 
     30 C           3.2672  -19.2500  -43.2690 C.2       8 UNK         0.5000 
     31 O           4.2325  -20.0135  -43.2109 O.2       8 UNK        -0.5000 
     32 CA          2.8151  -18.5295  -41.9819 C.3       8 UNK         0.1400 
     33 CB          3.7710  -17.3816  -41.6267 C.3       8 UNK        -0.1800 
     34 N           1.4499  -18.0123  -42.0618 N.am      8 UNK        -0.5000 
     35 C           0.3533  -18.7692  -41.9284 C.2       7 UNK         0.5000 
     36 O           0.3872  -19.9595  -41.6153 O.2       7 UNK        -0.5000 
     37 CA         -1.0158  -18.1041  -42.1810 C.3       7 UNK         0.1400 
     38 CB         -1.7689  -17.9120  -40.8561 C.3       7 UNK        -0.1800 
     39 N          -1.0034  -16.8264  -42.9049 N.am      7 UNK        -0.5000 
     40 C          -0.5287  -16.6357  -44.1462 C.2       6 UNK         0.5000 
     41 O           0.1704  -17.4611  -44.7288 O.2       6 UNK        -0.5000 
     42 CA         -0.8802  -15.3138  -44.8617 C.3       6 UNK         0.1400 
     43 CB         -1.0635  -15.5123  -46.3818 C.3       6 UNK        -0.1800 
     44 N          -2.0313  -14.6094  -44.2852 N.am      6 UNK        -0.5000 
     45 C          -3.3030  -15.0380  -44.2031 C.2       5 UNK         0.5000 
     46 O          -3.6990  -16.0970  -44.6918 O.2       5 UNK        -0.5000 
     47 CA         -4.2953  -14.1413  -43.4233 C.3       5 UNK         0.1400 
     48 CB         -5.4138  -14.9574  -42.7413 C.3       5 UNK        -0.1800 
     49 N          -3.6518  -13.2442  -42.4527 N.am      5 UNK        -0.5000 
     50 C          -2.8778  -13.6022  -41.4184 C.2       4 UNK         0.5000 
     51 O          -2.6241  -14.7691  -41.1127 O.2       4 UNK        -0.5000 
     52 CA         -2.2005  -12.4550  -40.6470 C.3       4 UNK         0.1400 
     53 CB         -2.6656  -12.4279  -39.1830 C.3       4 UNK        -0.1800 
     54 N          -0.7419  -12.5800  -40.6900 N.am      4 UNK        -0.5000 
     55 C          -0.0054  -12.6152  -41.8089 C.2       3 UNK         0.5000 
     56 O          -0.4764  -12.4859  -42.9426 O.2       3 UNK        -0.5000 
     57 CA          1.4971  -12.8922  -41.6202 C.3       3 UNK         0.1400 
     58 CB          1.7307  -14.3852  -41.3453 C.3       3 UNK        -0.1800 
     59 N           2.2796  -12.4994  -42.7928 N.am      3 UNK        -0.5000 
     60 C           2.5395  -11.2290  -43.1372 C.2       2 UNK         0.5000 
     61 O           2.2054  -10.2602  -42.4529 O.2       2 UNK        -0.5000 
     62 CA          3.3156  -10.9831  -44.4484 C.3       2 UNK         0.1400 
     63 CB          4.7762  -10.6129  -44.1457 C.3       2 UNK        -0.1800 
     64 N           3.3036  -12.1276  -45.3595 N.am      2 UNK        -0.5000 
     65 C           2.2522  -12.5213  -46.0918 C.2       1 UNK         0.5000 
     66 O           1.1875  -11.9054  -46.1371 O.2       1 UNK        -0.5000 
     67 C          -1.3397  -22.7742  -47.9775 C.2       11 UNK         0.5000 
     68 O          -2.4147  -23.3639  -48.0884 O.2       11 UNK        -0.5000 
     69 N          -1.1677  -21.6862  -47.2150 N.am      12 UNK        -0.5000 
     70 CA         -2.2209  -21.0897  -46.3957 C.3       12 UNK         0.1400 
     71 CB         -1.8222  -19.6626  -46.0017 C.3       12 UNK        -0.1800 
     72 C          -2.5128  -21.9416  -45.1501 C.2       12 UNK         0.5000 
     73 O          -3.6803  -22.1511  -44.8228 O.2       12 UNK        -0.5000 
     74 N          -1.4517  -22.4551  -44.5110 N.am      13 UNK        -0.5000 
     75 CA         -1.5185  -23.3578  -43.3604 C.3       13 UNK         0.1400 
     76 CB         -0.1033  -23.5816  -42.8068 C.3       13 UNK        -0.1800 
     77 C          -2.1950  -24.7021  -43.6927 C.2       13 UNK         0.5000 
     78 O          -2.9937  -25.1949  -42.8954 O.2       13 UNK        -0.5000 
     79 N          -1.8900  -25.2518  -44.8764 N.am      14 UNK        -0.5000 
     80 CA         -2.5058  -26.4647  -45.4197 C.3       14 UNK         0.1400 
     81 CB         -1.6089  -27.0158  -46.5398 C.3       14 UNK        -0.1800 
     82 C          -3.9353  -26.2449  -45.9547 C.2       14 UNK         0.5000 
     83 O          -4.6457  -27.2269  -46.1733 O.2       14 UNK        -0.5000 
     84 N          -4.3160  -24.9776  -46.1797 N.am      15 UNK        -0.5000 
     85 CA         -5.5538  -24.5149  -46.8165 C.3       15 UNK         0.1400 
     86 CB         -6.7819  -24.8333  -45.9392 C.3       15 UNK        -0.1800 
     87 C          -5.6844  -25.0291  -48.2662 C.2       15 UNK         0.5000 
     88 O          -6.7537  -25.4818  -48.6810 O.2       15 UNK        -0.5000 
     89 N          -4.5712  -24.9648  -49.0069 N.am      16 UNK        -0.5000 
     90 CA         -4.4460  -25.3951  -50.3940 C.3       16 UNK         0.1400 
     91 CB         -2.9646  -25.6911  -50.6867 C.3       16 UNK        -0.1800 
     92 C          -5.0217  -24.3211  -51.3313 C.2       16 UNK         0.5000 
     93 O          -4.2781  -23.4746  -51.8300 O.2       16 UNK        -0.5000 
     94 N          -6.3439  -24.3637  -51.5399 N.am      17 UNK        -0.5000 
     95 CA         -7.1177  -23.4018  -52.3322 C.3       17 UNK         0.1400 
     96 CB         -8.5995  -23.8043  -52.3049 C.3       17 UNK        -0.1800 
     97 C          -6.6319  -23.2353  -53.7855 C.2       17 UNK         0.5000 
     98 O          -6.6773  -22.1264  -54.3165 O.2       17 UNK        -0.5000 
     99 N          -6.1439  -24.3289  -54.3875 N.am      18 UNK        -0.5000 
    100 CA        -5.5638  -24.3472  -55.7315 C.3       18 UNK         0.1400 
    101 CB        -5.3911  -25.8044  -56.1854 C.3       18 UNK        -0.1800 
    102 C         -4.2239  -23.5914  -55.8217 C.2       18 UNK         0.5000 
    103 O         -3.9386  -22.9892  -56.8568 O.2       18 UNK        -0.5000 
    104 N         -3.4362  -23.6203  -54.7377 N.am      19 UNK        -0.5000 
    105 CA        -2.1813  -22.8805  -54.6154 C.3       19 UNK         0.1400 
    106 CB        -1.2704  -23.5672  -53.5873 C.3       19 UNK        -0.1800 
    107 C         -2.4415  -21.4157  -54.2333 C.2       19 UNK         0.5000 
    108 O         -1.8312  -20.5223  -54.8172 O.2       19 UNK        -0.5000 
    109 N         -3.3785  -21.1934  -53.2998 N.am      20 UNK        -0.5000 
    110 CA        -3.8122  -19.8776  -52.8175 C.3       20 UNK         0.1400 
    111 CB        -4.7203  -20.0700  -51.5945 C.3       20 UNK        -0.1800 
    112 C         -4.4991  -18.9985  -53.8835 C.2       20 UNK         0.5000 
    113 O         -4.5889  -17.7852  -53.6961 O.2       20 UNK        -0.5000 
    114 N         -4.9507  -19.6095  -54.9872 N.am      21 UNK        -0.5000 
    115 CA        -5.4148  -18.9231  -56.1940 C.3       21 UNK         0.1400 
    116 CB        -6.1615  -19.9310  -57.0810 C.3       21 UNK        -0.1800 
    117 C         -4.2700  -18.2511  -56.9845 C.2       21 UNK         0.5000 
    118 O         -4.5347  -17.3301  -57.7580 O.2       21 UNK        -0.5000 
    119 N         -3.0303  -18.7176  -56.7750 N.am      22 UNK        -0.5000 
    120 CA        -1.7730  -18.1961  -57.3403 C.3       22 UNK         0.1400 
    121 C         -1.6141  -18.3773  -58.8809 C.2       22 UNK         0.5000 
    122 N         -2.3853  -19.2429  -59.5274 N.am      22 UNK        -0.7600 
    123 O         -0.7588  -17.7502  -59.5007 O.2       22 UNK        -0.5000 
    124 C124       -1.4302  -16.7528  -56.8672 C.3       23 UNK        -0.0398 
    125 S125       -1.5533  -16.5271  -55.0587 S.3       23 UNK        -0.2404 
    126 C126        0.0688  -17.1263  -54.4972 C.3       23 UNK        -0.0205 
    127 H127        5.6027  -15.9952  -45.8360 H         1 UNK         0.0600 
    128 H128        4.6123  -17.1746  -44.9787 H         1 UNK         0.0600 
    129 H129        5.3404  -15.8260  -44.0999 H         1 UNK         0.0600 
    130 H130        4.2606  -14.8007  -47.1541 H         1 UNK         0.3000 
    131 H131        1.4972  -14.3996  -46.7216 H         1 UNK         0.0600 
    132 H132        1.6380  -12.8787  -48.7222 H         1 UNK         0.0800 
    133 H133        3.3772  -12.9720  -48.6616 H         1 UNK         0.0800 
    134 H134        0.4246  -14.1680  -50.4430 H         1 UNK         0.0800 
    135 H135        0.0573  -15.1044  -49.0173 H         1 UNK         0.0800 
    136 H136        0.6356  -15.2224  -52.6276 H         1 UNK         0.1150 
    137 H137       -0.4610  -19.3436  -53.0130 H         1 UNK         0.1150 
    138 H138        0.0184  -17.6166  -49.1195 H         1 UNK         0.1150 
    139 H139       -1.1435  -19.8010  -49.4183 H         1 UNK         0.0800 
    140 H140       -1.3798  -20.4562  -51.0195 H         1 UNK         0.0800 
    141 H141        0.6878  -23.3344  -50.7286 H         1 UNK         0.0800 
    142 H142       -0.9111  -22.6766  -50.6463 H         1 UNK         0.0800 
    143 H143       -0.2860  -24.3844  -48.8648 H         1 UNK         0.0600 
    144 H144        1.8126  -22.5483  -48.2586 H         1 UNK         0.3000 
    145 H145        2.5546  -23.8172  -45.0134 H         1 UNK         0.0600 
    146 H146        4.7572  -24.2051  -46.0680 H         1 UNK         0.0600 
    147 H147        3.6178  -25.4282  -46.6056 H         1 UNK         0.0600 
    148 H148        4.0440  -24.0999  -47.6780 H         1 UNK         0.0600 
    149 H149        3.9260  -21.8805  -46.4912 H         1 UNK         0.3000 
    150 H150        3.9088  -19.7543  -45.8345 H         1 UNK         0.0600 
    151 H151        2.4398  -19.3809  -47.7834 H         1 UNK         0.0600 
    152 H152        2.5418  -17.8959  -46.8496 H         1 UNK         0.0600 
    153 H153        1.1037  -18.9068  -46.7473 H         1 UNK         0.0600 
    154 H154        1.7658  -18.4123  -44.3772 H         1 UNK         0.3000 
    155 H155        2.8650  -19.2609  -41.1724 H         1 UNK         0.0600 
    156 H156        3.7316  -16.5829  -42.3653 H         1 UNK         0.0600 
    157 H157        4.8031  -17.7304  -41.5746 H         1 UNK         0.0600 
    158 H158        3.5249  -16.9532  -40.6551 H         1 UNK         0.0600 
    159 H159        1.3393  -17.0553  -42.3622 H         1 UNK         0.3000 
    160 H160       -1.5877  -18.8052  -42.7923 H         1 UNK         0.0600 
    161 H161       -1.2759  -17.1757  -40.2200 H         1 UNK         0.0600 
    162 H162       -1.8289  -18.8456  -40.2952 H         1 UNK         0.0600 
    163 H163       -2.7910  -17.5743  -41.0295 H         1 UNK         0.0600 
    164 H164       -1.5467  -16.0819  -42.4828 H         1 UNK         0.3000 
    165 H165       -0.0197  -14.6602  -44.7136 H         1 UNK         0.0600 
    166 H166       -1.9107  -16.1584  -46.6112 H         1 UNK         0.0600 
    167 H167       -1.2194  -14.5589  -46.8863 H         1 UNK         0.0600 
    168 H168       -0.1845  -15.9793  -46.8265 H         1 UNK         0.0600 
    169 H169       -1.7948  -13.7319  -43.8313 H         1 UNK         0.3000 
    170 H170       -4.7646  -13.4974  -44.1683 H         1 UNK         0.0600 
    171 H171       -6.0011  -15.5094  -43.4760 H         1 UNK         0.0600 
    172 H172       -5.0115  -15.6832  -42.0338 H         1 UNK         0.0600 
    173 H173       -6.1027  -14.3082  -42.2009 H         1 UNK         0.0600 
    174 H174       -3.7633  -12.2577  -42.6429 H         1 UNK         0.3000 
    175 H175       -2.4682  -11.5028  -41.1096 H         1 UNK         0.0600 
    176 H176       -2.3945  -13.3443  -38.6569 H         1 UNK         0.0600 
    177 H177       -2.2263  -11.5883  -38.6439 H         1 UNK         0.0600 
    178 H178       -3.7494  -12.3224  -39.1206 H         1 UNK         0.0600 
    179 H179       -0.2850  -12.7284  -39.8022 H         1 UNK         0.3000 
    180 H180        1.8501  -12.3197  -40.7599 H         1 UNK         0.0600 
    181 H181        1.3658  -15.0035  -42.1648 H         1 UNK         0.0600 
    182 H182        1.2170  -14.7082  -40.4390 H         1 UNK         0.0600 
    183 H183        2.7913  -14.5944  -41.2088 H         1 UNK         0.0600 
    184 H184        2.5444  -13.2448  -43.4254 H         1 UNK         0.3000 
    185 H185        2.8460  -10.1356  -44.9520 H         1 UNK         0.0600 
    186 H186        5.3195  -10.3697  -45.0590 H         1 UNK         0.0600 
    187 H187        4.8318   -9.7395  -43.4945 H         1 UNK         0.0600 
    188 H188        5.3027  -11.4278  -43.6471 H         1 UNK         0.0600 
    189 H189        4.1375  -12.6960  -45.3838 H         1 UNK         0.3000 
    190 H190       -0.2410  -21.2966  -47.1203 H         1 UNK         0.3000 
    191 H191       -3.1345  -21.0333  -46.9917 H         1 UNK         0.0600 
    192 H192       -2.6190  -19.1710  -45.4421 H         1 UNK         0.0600 
    193 H193       -1.6108  -19.0479  -46.8767 H         1 UNK         0.0600 
    194 H194       -0.9348  -19.6653  -45.3702 H         1 UNK         0.0600 
    195 H195       -0.5214  -22.1823  -44.8195 H         1 UNK         0.3000 
    196 H196       -2.1129  -22.8660  -42.5878 H         1 UNK         0.0600 
    197 H197        0.5431  -24.0667  -43.5384 H         1 UNK         0.0600 
    198 H198        0.3632  -22.6373  -42.5246 H         1 UNK         0.0600 
    199 H199       -0.1267  -24.2128  -41.9178 H         1 UNK         0.0600 
    200 H200       -1.1589  -24.8271  -45.4403 H         1 UNK         0.3000 
    201 H201       -2.5614  -27.2126  -44.6260 H         1 UNK         0.0600 
    202 H202       -1.5138  -26.3053  -47.3623 H         1 UNK         0.0600 
    203 H203       -2.0152  -27.9409  -46.9506 H         1 UNK         0.0600 
    204 H204       -0.6075  -27.2378  -46.1705 H         1 UNK         0.0600 
    205 H205       -3.6485  -24.2497  -45.9637 H         1 UNK         0.3000 
    206 H206       -5.4714  -23.4292  -46.8853 H         1 UNK         0.0600 
    207 H207       -6.6539  -24.4444  -44.9289 H         1 UNK         0.0600 
    208 H208       -7.6828  -24.3769  -46.3507 H         1 UNK         0.0600 
    209 H209       -6.9642  -25.9057  -45.8659 H         1 UNK         0.0600 
    210 H210       -3.7566  -24.5018  -48.6084 H         1 UNK         0.3000 
    211 H211       -5.0079  -26.3201  -50.5391 H         1 UNK         0.0600 
    212 H212       -2.8243  -26.0016  -51.7228 H         1 UNK         0.0600 
    213 H213       -2.5925  -26.4952  -50.0516 H         1 UNK         0.0600 
    214 H214       -2.3363  -24.8170  -50.5165 H         1 UNK         0.0600 
    215 H215       -6.8773  -25.0606  -51.0367 H         1 UNK         0.3000 
    216 H216       -7.0250  -22.4317  -51.8427 H         1 UNK         0.0600 
    217 H217       -8.7571  -24.7898  -52.7449 H         1 UNK         0.0600 
    218 H218       -9.2085  -23.0930  -52.8647 H         1 UNK         0.0600 
    219 H219       -8.9836  -23.8263  -51.2849 H         1 UNK         0.0600 
    220 H220       -6.1495  -25.2005  -53.8785 H         1 UNK         0.3000 
    221 H221       -6.2653  -23.8583  -56.4110 H         1 UNK         0.0600 
    222 H222       -6.3465  -26.3292  -56.1990 H         1 UNK         0.0600 
    223 H223       -4.7144  -26.3537  -55.5297 H         1 UNK         0.0600 
    224 H224       -4.9810  -25.8525  -57.1951 H         1 UNK         0.0600 
    225 H225       -3.7745  -24.0754  -53.9008 H         1 UNK         0.3000 
    226 H226       -1.6638  -22.8891  -55.5773 H         1 UNK         0.0600 
    227 H227       -0.3365  -23.0174  -53.4623 H         1 UNK         0.0600 
    228 H228       -1.7458  -23.6350  -52.6105 H         1 UNK         0.0600 
    229 H229       -1.0142  -24.5784  -53.9033 H         1 UNK         0.0600 
    230 H230       -3.8066  -21.9989  -52.8490 H         1 UNK         0.3000 
    231 H231       -2.9239  -19.3347  -52.4943 H         1 UNK         0.0600 
    232 H232       -5.6463  -20.5756  -51.8648 H         1 UNK         0.0600 
    233 H233       -4.9878  -19.1099  -51.1517 H         1 UNK         0.0600 
    234 H234       -4.2264  -20.6594  -50.8214 H         1 UNK         0.0600 
    235 H235       -4.9174  -20.6190  -55.0215 H         1 UNK         0.3000 
    236 H236       -6.1164  -18.1409  -55.8974 H         1 UNK         0.0600 
    237 H237       -7.0099  -20.3676  -56.5536 H         1 UNK         0.0600 
    238 H238       -6.5503  -19.4493  -57.9791 H         1 UNK         0.0600 
    239 H239       -5.5106  -20.7456  -57.4000 H         1 UNK         0.0600 
    240 H240       -2.9007  -19.4581  -56.0939 H         1 UNK         0.3000 
    241 H241       -1.0025  -18.8463  -56.9260 H         1 UNK         0.0600 
    242 H242       -2.2726  -19.3644  -60.5217 H         1 UNK         0.3800 
    243 H243       -3.0820  -19.7752  -59.0312 H         1 UNK         0.3800 
    244 H244       -2.1025  -16.0355  -57.3400 H         1 UNK         0.0800 
    245 H245       -0.4232  -16.4732  -57.1808 H         1 UNK         0.0800 
    246 H246        0.2861  -18.0888  -54.9629 H         1 UNK         0.0800 
    247 H247        0.8489  -16.4366  -54.8229 H         1 UNK         0.0800 
@<TRIPOS>BOND
     1    1    2 1    
     2    1  127 1    
     3    1  128 1    
     4    1  129 1    
     5    2    3 2    
     6    2    4 am   BACKBONE|DICT|INTERRES
     7    4    5 1    
     8    4  130 1    
     9    5    6 1    
    10    5   65 1    
    11    5  131 1    
    12    6    7 1    
    13    6  132 1    
    14    6  133 1    
    15    7    8 1    
    16    8    9 1    
    17    8  134 1    
    18    8  135 1    
    19    9   10 ar   
    20    9   14 ar   
    21   10   11 ar   
    22   10  136 1    
    23   11   12 ar   
    24   11  126 1    
    25   12   13 ar   
    26   12  137 1    
    27   13   14 ar   
    28   13   15 1    
    29   14  138 1    
    30   15   16 1    
    31   15  139 1    
    32   15  140 1    
    33   16   17 1    
    34   17   18 1    
    35   17  141 1    
    36   17  142 1    
    37   18   19 1    
    38   18   67 1    
    39   18  143 1    
    40   19   20 am   BACKBONE|DICT|INTERRES
    41   19  144 1    
    42   20   21 2    
    43   20   22 1    
    44   22   23 1    
    45   22   24 1    
    46   22  145 1    
    47   23  146 1    
    48   23  147 1    
    49   23  148 1    
    50   24   25 am   BACKBONE|DICT|INTERRES
    51   24  149 1    
    52   25   26 2    
    53   25   27 1    
    54   27   28 1    
    55   27   29 1    
    56   27  150 1    
    57   28  151 1    
    58   28  152 1    
    59   28  153 1    
    60   29   30 am   BACKBONE|DICT|INTERRES
    61   29  154 1    
    62   30   31 2    
    63   30   32 1    
    64   32   33 1    
    65   32   34 1    
    66   32  155 1    
    67   33  156 1    
    68   33  157 1    
    69   33  158 1    
    70   34   35 am   BACKBONE|DICT|INTERRES
    71   34  159 1    
    72   35   36 2    
    73   35   37 1    
    74   37   38 1    
    75   37   39 1    
    76   37  160 1    
    77   38  161 1    
    78   38  162 1    
    79   38  163 1    
    80   39   40 am   BACKBONE|DICT|INTERRES
    81   39  164 1    
    82   40   41 2    
    83   40   42 1    
    84   42   43 1    
    85   42   44 1    
    86   42  165 1    
    87   43  166 1    
    88   43  167 1    
    89   43  168 1    
    90   44   45 am   BACKBONE|DICT|INTERRES
    91   44  169 1    
    92   45   46 2    
    93   45   47 1    
    94   47   48 1    
    95   47   49 1    
    96   47  170 1    
    97   48  171 1    
    98   48  172 1    
    99   48  173 1    
   100   49   50 am   BACKBONE|DICT|INTERRES
   101   49  174 1    
   102   50   51 2    
   103   50   52 1    
   104   52   53 1    
   105   52   54 1    
   106   52  175 1    
   107   53  176 1    
   108   53  177 1    
   109   53  178 1    
   110   54   55 am   BACKBONE|DICT|INTERRES
   111   54  179 1    
   112   55   56 2    
   113   55   57 1    
   114   57   58 1    
   115   57   59 1    
   116   57  180 1    
   117   58  181 1    
   118   58  182 1    
   119   58  183 1    
   120   59   60 am   BACKBONE|DICT|INTERRES
   121   59  184 1    
   122   60   61 2    
   123   60   62 1    
   124   62   63 1    
   125   62   64 1    
   126   62  185 1    
   127   63  186 1    
   128   63  187 1    
   129   63  188 1    
   130   64   65 am   BACKBONE|DICT|INTERRES
   131   64  189 1    
   132   65   66 2    
   133   67   68 2    
   134   67   69 am   BACKBONE|DICT|INTERRES
   135   69   70 1    
   136   69  190 1    
   137   70   71 1    
   138   70   72 1    
   139   70  191 1    
   140   71  192 1    
   141   71  193 1    
   142   71  194 1    
   143   72   73 2    
   144   72   74 am   BACKBONE|DICT|INTERRES
   145   74   75 1    
   146   74  195 1    
   147   75   76 1    
   148   75   77 1    
   149   75  196 1    
   150   76  197 1    
   151   76  198 1    
   152   76  199 1    
   153   77   78 2    
   154   77   79 am   BACKBONE|DICT|INTERRES
   155   79   80 1    
   156   79  200 1    
   157   80   81 1    
   158   80   82 1    
   159   80  201 1    
   160   81  202 1    
   161   81  203 1    
   162   81  204 1    
   163   82   83 2    
   164   82   84 am   BACKBONE|DICT|INTERRES
   165   84   85 1    
   166   84  205 1    
   167   85   86 1    
   168   85   87 1    
   169   85  206 1    
   170   86  207 1    
   171   86  208 1    
   172   86  209 1    
   173   87   88 2    
   174   87   89 am   BACKBONE|DICT|INTERRES
   175   89   90 1    
   176   89  210 1    
   177   90   91 1    
   178   90   92 1    
   179   90  211 1    
   180   91  212 1    
   181   91  213 1    
   182   91  214 1    
   183   92   93 2    
   184   92   94 am   BACKBONE|DICT|INTERRES
   185   94   95 1    
   186   94  215 1    
   187   95   96 1    
   188   95   97 1    
   189   95  216 1    
   190   96  217 1    
   191   96  218 1    
   192   96  219 1    
   193   97   98 2    
   194   97   99 am   BACKBONE|DICT|INTERRES
   195   99  100 1    
   196   99  220 1    
   197  100  101 1    
   198  100  102 1    
   199  100  221 1    
   200  101  222 1    
   201  101  223 1    
   202  101  224 1    
   203  102  103 2    
   204  102  104 am   BACKBONE|DICT|INTERRES
   205  104  105 1    
   206  104  225 1    
   207  105  106 1    
   208  105  107 1    
   209  105  226 1    
   210  106  227 1    
   211  106  228 1    
   212  106  229 1    
   213  107  108 2    
   214  107  109 am   BACKBONE|DICT|INTERRES
   215  109  110 1    
   216  109  230 1    
   217  110  111 1    
   218  110  112 1    
   219  110  231 1    
   220  111  232 1    
   221  111  233 1    
   222  111  234 1    
   223  112  113 2    
   224  112  114 am   BACKBONE|DICT|INTERRES
   225  114  115 1    
   226  114  235 1    
   227  115  116 1    
   228  115  117 1    
   229  115  236 1    
   230  116  237 1    
   231  116  238 1    
   232  116  239 1    
   233  117  118 2    
   234  117  119 am   BACKBONE|DICT|INTERRES
   235  119  120 1    
   236  119  240 1    
   237  120  121 1    
   238  120  124 1    
   239  120  241 1    
   240  121  122 am   BACKBONE|DICT|INTERRES
   241  121  123 2    
   242  122  242 1    
   243  122  243 1    
   244  124  125 1    
   245  124  244 1    
   246  124  245 1    
   247  125  126 1    
   248  126  246 1    
   249  126  247 1    
@<TRIPOS>SUBSTRUCTURE
     1 UNK         1 GROUP             0       ****    0 ROOT    
