@<TRIPOS>MOLECULE
3R540
247   249    1
SMALL
USER_CHARGES


@<TRIPOS>ATOM
      1 CA          2.3647  -11.7651  -45.7175 C.3       0 UNK        -0.1800 
      2 C           1.3121  -12.8213  -46.0164 C.2       0 UNK         0.5000 
      3 O           0.4036  -13.0225  -45.2150 O.2       0 UNK        -0.5000 
      4 N           1.4168  -13.4849  -47.1752 N.am      1 UNK        -0.5000 
      5 CA          0.5562  -14.5887  -47.6359 C.3       1 UNK         0.1400 
      6 C6          1.0485  -15.1221  -49.0069 C.3       23 UNK        -0.0398 
      7 S7          0.8375  -16.9233  -49.2208 S.3       23 UNK        -0.2404 
      8 C8          2.5084  -17.3799  -49.7745 C.3       23 UNK        -0.0205 
      9 C9          2.5400  -18.7020  -50.5223 C.ar      23 UNK        -0.0193 
     10 C10         2.0586  -18.7729  -51.8325 C.ar      23 UNK        -0.1150 
     11 C11         2.2016  -19.9456  -52.5785 C.ar      23 UNK        -0.0193 
     12 C12         2.8248  -21.0539  -51.9992 C.ar      23 UNK        -0.1150 
     13 C13         3.2796  -21.0103  -50.6766 C.ar      23 UNK        -0.0193 
     14 C14         3.1307  -19.8288  -49.9444 C.ar      23 UNK        -0.1150 
     15 C15         4.0167  -22.1894  -50.0496 C.3       23 UNK        -0.0205 
     16 S16         3.3894  -23.8301  -50.5434 S.3       23 UNK        -0.2404 
     17 C17         1.9069  -24.0198  -49.4986 C.3       23 UNK        -0.0398 
     18 CA          2.2426  -24.8009  -48.2004 C.3       11 UNK         0.1400 
     19 N           2.9039  -23.9334  -47.2219 N.am      11 UNK        -0.5000 
     20 C           4.0901  -24.1578  -46.6422 C.2       10 UNK         0.5000 
     21 O           4.8212  -25.1090  -46.9178 O.2       10 UNK        -0.5000 
     22 CA          4.5222  -23.1650  -45.5418 C.3       10 UNK         0.1400 
     23 CB          5.5207  -22.1395  -46.0993 C.3       10 UNK        -0.1800 
     24 N           3.3969  -22.4535  -44.9272 N.am      10 UNK        -0.5000 
     25 C           2.4374  -23.0344  -44.1898 C.2       9 UNK         0.5000 
     26 O           2.4367  -24.2310  -43.9026 O.2       9 UNK        -0.5000 
     27 CA          1.2467  -22.1602  -43.7535 C.3       9 UNK         0.1400 
     28 CB          1.4447  -21.6835  -42.3074 C.3       9 UNK        -0.1800 
     29 N           1.0221  -21.0043  -44.6235 N.am      9 UNK        -0.5000 
     30 C           0.6897  -21.0634  -45.9237 C.2       8 UNK         0.5000 
     31 O           0.5327  -22.1210  -46.5389 O.2       8 UNK        -0.5000 
     32 CA          0.5642  -19.7207  -46.6731 C.3       8 UNK         0.1400 
     33 CB         -0.9135  -19.3237  -46.8235 C.3       8 UNK        -0.1800 
     34 N           1.3022  -18.6289  -46.0254 N.am      8 UNK        -0.5000 
     35 C           2.6415  -18.5702  -45.9368 C.2       7 UNK         0.5000 
     36 O           3.3847  -19.4427  -46.3851 O.2       7 UNK        -0.5000 
     37 CA          3.2678  -17.3718  -45.1937 C.3       7 UNK         0.1400 
     38 CB          3.7732  -16.3155  -46.1867 C.3       7 UNK        -0.1800 
     39 N           2.3697  -16.7391  -44.2258 N.am      7 UNK        -0.5000 
     40 C           1.9384  -17.3275  -43.1024 C.2       6 UNK         0.5000 
     41 O           2.2608  -18.4680  -42.7687 O.2       6 UNK        -0.5000 
     42 CA          0.9399  -16.5496  -42.2207 C.3       6 UNK         0.1400 
     43 CB          0.7851  -15.0613  -42.5900 C.3       6 UNK        -0.1800 
     44 N          -0.3681  -17.2093  -42.2093 N.am      6 UNK        -0.5000 
     45 C          -1.1107  -17.5330  -43.2791 C.2       5 UNK         0.5000 
     46 O          -0.8394  -17.2118  -44.4355 O.2       5 UNK        -0.5000 
     47 CA         -2.3839  -18.3430  -42.9942 C.3       5 UNK         0.1400 
     48 CB         -2.0384  -19.6842  -42.3240 C.3       5 UNK        -0.1800 
     49 N          -3.2920  -17.5953  -42.1269 N.am      5 UNK        -0.5000 
     50 C          -4.0438  -16.5233  -42.4210 C.2       4 UNK         0.5000 
     51 O          -4.6806  -15.9646  -41.5296 O.2       4 UNK        -0.5000 
     52 CA         -4.1721  -16.0128  -43.8814 C.3       4 UNK         0.1400 
     53 CB         -5.6491  -15.9767  -44.3229 C.3       4 UNK        -0.1800 
     54 N          -3.5285  -14.7118  -44.1008 N.am      4 UNK        -0.5000 
     55 C          -3.8577  -13.5148  -43.5872 C.2       3 UNK         0.5000 
     56 O          -4.7943  -13.3119  -42.8148 O.2       3 UNK        -0.5000 
     57 CA         -3.0094  -12.3128  -44.0436 C.3       3 UNK         0.1400 
     58 CB         -1.8338  -12.0852  -43.0828 C.3       3 UNK        -0.1800 
     59 N          -2.5102  -12.4337  -45.4171 N.am      3 UNK        -0.5000 
     60 C          -3.2903  -12.3421  -46.5067 C.2       2 UNK         0.5000 
     61 O          -4.5103  -12.1878  -46.4520 O.2       2 UNK        -0.5000 
     62 CA         -2.6186  -12.4065  -47.8946 C.3       2 UNK         0.1400 
     63 CB         -2.5830  -11.0126  -48.5394 C.3       2 UNK        -0.1800 
     64 N          -1.2603  -12.9452  -47.8735 N.am      2 UNK        -0.5000 
     65 C          -0.9477  -14.2346  -47.6943 C.2       1 UNK         0.5000 
     66 O          -1.7931  -15.1208  -47.5764 O.2       1 UNK        -0.5000 
     67 C           1.0039  -25.4792  -47.5691 C.2       11 UNK         0.5000 
     68 O           0.1892  -26.0491  -48.2957 O.2       11 UNK        -0.5000 
     69 N           0.8919  -25.4279  -46.2303 N.am      12 UNK        -0.5000 
     70 CA         -0.1567  -26.0127  -45.3867 C.3       12 UNK         0.1400 
     71 CB         -0.0943  -27.5536  -45.4384 C.3       12 UNK        -0.1800 
     72 C          -1.5749  -25.4655  -45.6589 C.2       12 UNK         0.5000 
     73 O          -2.5572  -26.1360  -45.3347 O.2       12 UNK        -0.5000 
     74 N          -1.6660  -24.2608  -46.2344 N.am      13 UNK        -0.5000 
     75 CA         -2.9208  -23.5733  -46.5184 C.3       13 UNK         0.1400 
     76 CB         -2.7931  -22.8599  -47.8712 C.3       13 UNK        -0.1800 
     77 C          -3.2473  -22.5752  -45.3971 C.2       13 UNK         0.5000 
     78 O          -2.3458  -22.1132  -44.6954 O.2       13 UNK        -0.5000 
     79 N          -4.5350  -22.2441  -45.2677 N.am      14 UNK        -0.5000 
     80 CA         -5.0655  -21.3030  -44.2837 C.3       14 UNK         0.1400 
     81 CB         -5.6476  -22.0745  -43.0855 C.3       14 UNK        -0.1800 
     82 C          -6.0754  -20.3709  -44.9676 C.2       14 UNK         0.5000 
     83 O          -7.2100  -20.2269  -44.5104 O.2       14 UNK        -0.5000 
     84 N          -5.6385  -19.7732  -46.0791 N.am      15 UNK        -0.5000 
     85 CA         -6.3984  -18.8405  -46.8988 C.3       15 UNK         0.1400 
     86 CB         -7.1115  -19.6116  -48.0196 C.3       15 UNK        -0.1800 
     87 C          -5.4290  -17.8048  -47.4771 C.2       15 UNK         0.5000 
     88 O          -4.2306  -18.0826  -47.5850 O.2       15 UNK        -0.5000 
     89 N          -5.9684  -16.6368  -47.8454 N.am      16 UNK        -0.5000 
     90 CA         -5.2280  -15.5234  -48.4356 C.3       16 UNK         0.1400 
     91 CB         -6.1692  -14.3215  -48.6034 C.3       16 UNK        -0.1800 
     92 C          -4.6049  -15.9259  -49.7820 C.2       16 UNK         0.5000 
     93 O          -5.3244  -16.3999  -50.6641 O.2       16 UNK        -0.5000 
     94 N          -3.2769  -15.7864  -49.8850 N.am      17 UNK        -0.5000 
     95 CA         -2.4337  -16.2009  -51.0135 C.3       17 UNK         0.1400 
     96 CB         -2.7301  -15.3422  -52.2601 C.3       17 UNK        -0.1800 
     97 C          -2.5189  -17.7176  -51.2949 C.2       17 UNK         0.5000 
     98 O          -2.4249  -18.1367  -52.4500 O.2       17 UNK        -0.5000 
     99 N          -2.7776  -18.5047  -50.2363 N.am      18 UNK        -0.5000 
    100 CA        -3.0683  -19.9422  -50.2502 C.3       18 UNK         0.1400 
    101 CB        -1.8039  -20.7424  -50.6282 C.3       18 UNK        -0.1800 
    102 C         -4.2922  -20.3068  -51.1230 C.2       18 UNK         0.5000 
    103 O         -4.3516  -21.4117  -51.6627 O.2       18 UNK        -0.5000 
    104 N         -5.2191  -19.3481  -51.3009 N.am      19 UNK        -0.5000 
    105 CA        -6.3726  -19.3726  -52.2121 C.3       19 UNK         0.1400 
    106 CB        -7.4052  -20.4262  -51.7586 C.3       19 UNK        -0.1800 
    107 C         -5.9887  -19.5462  -53.7007 C.2       19 UNK         0.5000 
    108 O         -6.8380  -19.9355  -54.5034 O.2       19 UNK        -0.5000 
    109 N         -4.7114  -19.2978  -54.0355 N.am      20 UNK        -0.5000 
    110 CA        -4.0403  -19.5958  -55.3050 C.3       20 UNK         0.1400 
    111 CB        -4.6314  -18.7579  -56.4570 C.3       20 UNK        -0.1800 
    112 C         -3.9745  -21.1044  -55.6437 C.2       20 UNK         0.5000 
    113 O         -3.6284  -21.4553  -56.7737 O.2       20 UNK        -0.5000 
    114 N         -4.2596  -21.9825  -54.6669 N.am      21 UNK        -0.5000 
    115 CA        -4.2477  -23.4429  -54.8164 C.3       21 UNK         0.1400 
    116 CB        -4.9191  -24.0818  -53.5915 C.3       21 UNK        -0.1800 
    117 C         -2.8323  -24.0158  -55.0230 C.2       21 UNK         0.5000 
    118 O         -2.6867  -25.1222  -55.5437 O.2       21 UNK        -0.5000 
    119 N         -1.8216  -23.2308  -54.6374 N.am      22 UNK        -0.5000 
    120 CA        -0.4002  -23.4331  -54.9335 C.3       22 UNK         0.1400 
    121 C         -0.0112  -23.2814  -56.4371 C.2       22 UNK         0.5000 
    122 N         -0.8670  -22.7530  -57.3064 N.am      22 UNK        -0.7600 
    123 O          1.0899  -23.6634  -56.8237 O.2       22 UNK        -0.5000 
    124 C124        0.4738  -22.5366  -54.0207 C.3       23 UNK        -0.0398 
    125 S125        0.0774  -20.7533  -54.1621 S.3       23 UNK        -0.2404 
    126 C126        1.7250  -19.9978  -54.0226 C.3       23 UNK        -0.0205 
    127 H127        3.1029  -11.6895  -46.5161 H         1 UNK         0.0600 
    128 H128        2.8868  -12.0105  -44.7928 H         1 UNK         0.0600 
    129 H129        1.8924  -10.7905  -45.5951 H         1 UNK         0.0600 
    130 H130        2.1774  -13.2428  -47.7942 H         1 UNK         0.3000 
    131 H131        0.6548  -15.3807  -46.8904 H         1 UNK         0.0600 
    132 H132        2.1100  -14.8997  -49.1213 H         1 UNK         0.0800 
    133 H133        0.5667  -14.6070  -49.8403 H         1 UNK         0.0800 
    134 H134        2.9004  -16.6093  -50.4399 H         1 UNK         0.0800 
    135 H135        3.1751  -17.4090  -48.9123 H         1 UNK         0.0800 
    136 H136        1.6010  -17.9022  -52.2811 H         1 UNK         0.1150 
    137 H137        2.9700  -21.9483  -52.5862 H         1 UNK         0.1150 
    138 H138        3.5177  -19.7719  -48.9373 H         1 UNK         0.1150 
    139 H139        5.0653  -22.1234  -50.3414 H         1 UNK         0.0800 
    140 H140        3.9978  -22.1127  -48.9631 H         1 UNK         0.0800 
    141 H141        1.4669  -23.0456  -49.2767 H         1 UNK         0.0800 
    142 H142        1.1730  -24.5502  -50.1073 H         1 UNK         0.0800 
    143 H143        2.9005  -25.6309  -48.4661 H         1 UNK         0.0600 
    144 H144        2.3561  -23.1364  -46.9181 H         1 UNK         0.3000 
    145 H145        5.0236  -23.7403  -44.7607 H         1 UNK         0.0600 
    146 H146        5.8856  -21.4771  -45.3143 H         1 UNK         0.0600 
    147 H147        5.0718  -21.5203  -46.8761 H         1 UNK         0.0600 
    148 H148        6.3886  -22.6354  -46.5359 H         1 UNK         0.0600 
    149 H149        3.3151  -21.4681  -45.1435 H         1 UNK         0.3000 
    150 H150        0.3481  -22.7797  -43.7924 H         1 UNK         0.0600 
    151 H151        2.3553  -21.0932  -42.2008 H         1 UNK         0.0600 
    152 H152        0.6090  -21.0737  -41.9669 H         1 UNK         0.0600 
    153 H153        1.5248  -22.5317  -41.6263 H         1 UNK         0.0600 
    154 H154        1.1755  -20.0950  -44.2089 H         1 UNK         0.3000 
    155 H155        0.9826  -19.8556  -47.6728 H         1 UNK         0.0600 
    156 H156       -1.4251  -19.9892  -47.5158 H         1 UNK         0.0600 
    157 H157       -1.0235  -18.3117  -47.2142 H         1 UNK         0.0600 
    158 H158       -1.4459  -19.3755  -45.8741 H         1 UNK         0.0600 
    159 H159        0.7403  -17.9027  -45.5937 H         1 UNK         0.3000 
    160 H160        4.1313  -17.7518  -44.6435 H         1 UNK         0.0600 
    161 H161        2.9662  -15.9208  -46.8006 H         1 UNK         0.0600 
    162 H162        4.5174  -16.7416  -46.8607 H         1 UNK         0.0600 
    163 H163        4.2452  -15.4789  -45.6713 H         1 UNK         0.0600 
    164 H164        2.0303  -15.8148  -44.4477 H         1 UNK         0.3000 
    165 H165        1.3305  -16.5993  -41.2034 H         1 UNK         0.0600 
    166 H166        0.3044  -14.9357  -43.5588 H         1 UNK         0.0600 
    167 H167        0.1731  -14.5451  -41.8508 H         1 UNK         0.0600 
    168 H168        1.7484  -14.5507  -42.6201 H         1 UNK         0.0600 
    169 H169       -0.6820  -17.5225  -41.3023 H         1 UNK         0.3000 
    170 H170       -2.8767  -18.5771  -43.9384 H         1 UNK         0.0600 
    171 H171       -1.4094  -20.2879  -42.9784 H         1 UNK         0.0600 
    172 H172       -1.5044  -19.5562  -41.3821 H         1 UNK         0.0600 
    173 H173       -2.9330  -20.2674  -42.1089 H         1 UNK         0.0600 
    174 H174       -3.2875  -17.8894  -41.1617 H         1 UNK         0.3000 
    175 H175       -3.6711  -16.6879  -44.5710 H         1 UNK         0.0600 
    176 H176       -6.2659  -15.3804  -43.6500 H         1 UNK         0.0600 
    177 H177       -5.7521  -15.5523  -45.3205 H         1 UNK         0.0600 
    178 H178       -6.0716  -16.9816  -44.3422 H         1 UNK         0.0600 
    179 H179       -2.7300  -14.7335  -44.7205 H         1 UNK         0.3000 
    180 H180       -3.6472  -11.4272  -43.9995 H         1 UNK         0.0600 
    181 H181       -2.1881  -11.9150  -42.0655 H         1 UNK         0.0600 
    182 H182       -1.2457  -11.2148  -43.3742 H         1 UNK         0.0600 
    183 H183       -1.1678  -12.9462  -43.0567 H         1 UNK         0.0600 
    184 H184       -1.5107  -12.5804  -45.5232 H         1 UNK         0.3000 
    185 H185       -3.2332  -13.0513  -48.5249 H         1 UNK         0.0600 
    186 H186       -3.5853  -10.5880  -48.6108 H         1 UNK         0.0600 
    187 H187       -1.9725  -10.3177  -47.9613 H         1 UNK         0.0600 
    188 H188       -2.1783  -11.0558  -49.5508 H         1 UNK         0.0600 
    189 H189       -0.5071  -12.2771  -47.9496 H         1 UNK         0.3000 
    190 H190        1.6252  -24.9550  -45.7161 H         1 UNK         0.3000 
    191 H191        0.0815  -25.7123  -44.3656 H         1 UNK         0.0600 
    192 H192       -0.7595  -27.9993  -44.6980 H         1 UNK         0.0600 
    193 H193        0.9118  -27.9145  -45.2247 H         1 UNK         0.0600 
    194 H194       -0.3889  -27.9380  -46.4153 H         1 UNK         0.0600 
    195 H195       -0.8208  -23.7242  -46.3966 H         1 UNK         0.3000 
    196 H196       -3.7393  -24.2927  -46.5903 H         1 UNK         0.0600 
    197 H197       -1.9576  -22.1615  -47.8787 H         1 UNK         0.0600 
    198 H198       -2.6288  -23.5772  -48.6757 H         1 UNK         0.0600 
    199 H199       -3.7003  -22.3054  -48.1126 H         1 UNK         0.0600 
    200 H200       -5.2148  -22.6414  -45.9017 H         1 UNK         0.3000 
    201 H201       -4.2692  -20.6557  -43.9182 H         1 UNK         0.0600 
    202 H202       -6.0345  -21.3906  -42.3290 H         1 UNK         0.0600 
    203 H203       -4.8844  -22.6882  -42.6067 H         1 UNK         0.0600 
    204 H204       -6.4642  -22.7308  -43.3885 H         1 UNK         0.0600 
    205 H205       -4.6756  -19.8892  -46.3679 H         1 UNK         0.3000 
    206 H206       -7.1355  -18.3172  -46.2859 H         1 UNK         0.0600 
    207 H207       -7.8249  -20.3284  -47.6129 H         1 UNK         0.0600 
    208 H208       -7.6661  -18.9347  -48.6705 H         1 UNK         0.0600 
    209 H209       -6.4020  -20.1617  -48.6388 H         1 UNK         0.0600 
    210 H210       -6.9661  -16.5090  -47.7601 H         1 UNK         0.3000 
    211 H211       -4.4372  -15.2433  -47.7373 H         1 UNK         0.0600 
    212 H212       -7.0139  -14.5575  -49.2519 H         1 UNK         0.0600 
    213 H213       -5.6456  -13.4723  -49.0438 H         1 UNK         0.0600 
    214 H214       -6.5636  -13.9933  -47.6414 H         1 UNK         0.0600 
    215 H215       -2.7677  -15.4846  -49.0554 H         1 UNK         0.3000 
    216 H216       -1.4054  -15.9995  -50.7205 H         1 UNK         0.0600 
    217 H217       -2.6661  -14.2787  -52.0303 H         1 UNK         0.0600 
    218 H218       -3.7237  -15.5401  -52.6633 H         1 UNK         0.0600 
    219 H219       -2.0103  -15.5455  -53.0539 H         1 UNK         0.0600 
    220 H220       -2.8936  -18.0587  -49.3329 H         1 UNK         0.3000 
    221 H221       -3.3389  -20.2044  -49.2277 H         1 UNK         0.0600 
    222 H222       -1.9690  -21.8156  -50.5304 H         1 UNK         0.0600 
    223 H223       -1.5032  -20.5544  -51.6581 H         1 UNK         0.0600 
    224 H224       -0.9627  -20.4830  -49.9849 H         1 UNK         0.0600 
    225 H225       -5.0600  -18.4478  -50.8608 H         1 UNK         0.3000 
    226 H226       -6.8416  -18.3909  -52.1336 H         1 UNK         0.0600 
    227 H227       -7.6947  -20.2794  -50.7201 H         1 UNK         0.0600 
    228 H228       -8.3175  -20.3634  -52.3528 H         1 UNK         0.0600 
    229 H229       -7.0214  -21.4417  -51.8599 H         1 UNK         0.0600 
    230 H230       -4.0883  -18.9620  -53.3072 H         1 UNK         0.3000 
    231 H231       -3.0050  -19.2797  -55.1688 H         1 UNK         0.0600 
    232 H232       -4.0255  -18.8518  -57.3589 H         1 UNK         0.0600 
    233 H233       -4.6629  -17.6994  -56.1985 H         1 UNK         0.0600 
    234 H234       -5.6433  -19.0727  -56.7123 H         1 UNK         0.0600 
    235 H235       -4.4819  -21.6317  -53.7413 H         1 UNK         0.3000 
    236 H236       -4.8372  -23.6951  -55.7001 H         1 UNK         0.0600 
    237 H237       -5.9242  -23.6876  -53.4399 H         1 UNK         0.0600 
    238 H238       -5.0072  -25.1618  -53.7146 H         1 UNK         0.0600 
    239 H239       -4.3471  -23.9024  -52.6805 H         1 UNK         0.0600 
    240 H240       -2.0518  -22.3404  -54.2215 H         1 UNK         0.3000 
    241 H241       -0.1720  -24.4696  -54.6783 H         1 UNK         0.0600 
    242 H242       -1.7769  -22.4176  -57.0141 H         1 UNK         0.3800 
    243 H243       -0.5963  -22.6696  -58.2734 H         1 UNK         0.3800 
    244 H244        1.5294  -22.7056  -54.2370 H         1 UNK         0.0800 
    245 H245        0.3364  -22.8274  -52.9781 H         1 UNK         0.0800 
    246 H246        1.6772  -18.9885  -54.4339 H         1 UNK         0.0800 
    247 H247        2.4417  -20.5397  -54.6413 H         1 UNK         0.0800 
@<TRIPOS>BOND
     1    1    2 1    
     2    1  127 1    
     3    1  128 1    
     4    1  129 1    
     5    2    3 2    
     6    2    4 am   BACKBONE|DICT|INTERRES
     7    4    5 1    
     8    4  130 1    
     9    5    6 1    
    10    5   65 1    
    11    5  131 1    
    12    6    7 1    
    13    6  132 1    
    14    6  133 1    
    15    7    8 1    
    16    8    9 1    
    17    8  134 1    
    18    8  135 1    
    19    9   10 ar   
    20    9   14 ar   
    21   10   11 ar   
    22   10  136 1    
    23   11   12 ar   
    24   11  126 1    
    25   12   13 ar   
    26   12  137 1    
    27   13   14 ar   
    28   13   15 1    
    29   14  138 1    
    30   15   16 1    
    31   15  139 1    
    32   15  140 1    
    33   16   17 1    
    34   17   18 1    
    35   17  141 1    
    36   17  142 1    
    37   18   19 1    
    38   18   67 1    
    39   18  143 1    
    40   19   20 am   BACKBONE|DICT|INTERRES
    41   19  144 1    
    42   20   21 2    
    43   20   22 1    
    44   22   23 1    
    45   22   24 1    
    46   22  145 1    
    47   23  146 1    
    48   23  147 1    
    49   23  148 1    
    50   24   25 am   BACKBONE|DICT|INTERRES
    51   24  149 1    
    52   25   26 2    
    53   25   27 1    
    54   27   28 1    
    55   27   29 1    
    56   27  150 1    
    57   28  151 1    
    58   28  152 1    
    59   28  153 1    
    60   29   30 am   BACKBONE|DICT|INTERRES
    61   29  154 1    
    62   30   31 2    
    63   30   32 1    
    64   32   33 1    
    65   32   34 1    
    66   32  155 1    
    67   33  156 1    
    68   33  157 1    
    69   33  158 1    
    70   34   35 am   BACKBONE|DICT|INTERRES
    71   34  159 1    
    72   35   36 2    
    73   35   37 1    
    74   37   38 1    
    75   37   39 1    
    76   37  160 1    
    77   38  161 1    
    78   38  162 1    
    79   38  163 1    
    80   39   40 am   BACKBONE|DICT|INTERRES
    81   39  164 1    
    82   40   41 2    
    83   40   42 1    
    84   42   43 1    
    85   42   44 1    
    86   42  165 1    
    87   43  166 1    
    88   43  167 1    
    89   43  168 1    
    90   44   45 am   BACKBONE|DICT|INTERRES
    91   44  169 1    
    92   45   46 2    
    93   45   47 1    
    94   47   48 1    
    95   47   49 1    
    96   47  170 1    
    97   48  171 1    
    98   48  172 1    
    99   48  173 1    
   100   49   50 am   BACKBONE|DICT|INTERRES
   101   49  174 1    
   102   50   51 2    
   103   50   52 1    
   104   52   53 1    
   105   52   54 1    
   106   52  175 1    
   107   53  176 1    
   108   53  177 1    
   109   53  178 1    
   110   54   55 am   BACKBONE|DICT|INTERRES
   111   54  179 1    
   112   55   56 2    
   113   55   57 1    
   114   57   58 1    
   115   57   59 1    
   116   57  180 1    
   117   58  181 1    
   118   58  182 1    
   119   58  183 1    
   120   59   60 am   BACKBONE|DICT|INTERRES
   121   59  184 1    
   122   60   61 2    
   123   60   62 1    
   124   62   63 1    
   125   62   64 1    
   126   62  185 1    
   127   63  186 1    
   128   63  187 1    
   129   63  188 1    
   130   64   65 am   BACKBONE|DICT|INTERRES
   131   64  189 1    
   132   65   66 2    
   133   67   68 2    
   134   67   69 am   BACKBONE|DICT|INTERRES
   135   69   70 1    
   136   69  190 1    
   137   70   71 1    
   138   70   72 1    
   139   70  191 1    
   140   71  192 1    
   141   71  193 1    
   142   71  194 1    
   143   72   73 2    
   144   72   74 am   BACKBONE|DICT|INTERRES
   145   74   75 1    
   146   74  195 1    
   147   75   76 1    
   148   75   77 1    
   149   75  196 1    
   150   76  197 1    
   151   76  198 1    
   152   76  199 1    
   153   77   78 2    
   154   77   79 am   BACKBONE|DICT|INTERRES
   155   79   80 1    
   156   79  200 1    
   157   80   81 1    
   158   80   82 1    
   159   80  201 1    
   160   81  202 1    
   161   81  203 1    
   162   81  204 1    
   163   82   83 2    
   164   82   84 am   BACKBONE|DICT|INTERRES
   165   84   85 1    
   166   84  205 1    
   167   85   86 1    
   168   85   87 1    
   169   85  206 1    
   170   86  207 1    
   171   86  208 1    
   172   86  209 1    
   173   87   88 2    
   174   87   89 am   BACKBONE|DICT|INTERRES
   175   89   90 1    
   176   89  210 1    
   177   90   91 1    
   178   90   92 1    
   179   90  211 1    
   180   91  212 1    
   181   91  213 1    
   182   91  214 1    
   183   92   93 2    
   184   92   94 am   BACKBONE|DICT|INTERRES
   185   94   95 1    
   186   94  215 1    
   187   95   96 1    
   188   95   97 1    
   189   95  216 1    
   190   96  217 1    
   191   96  218 1    
   192   96  219 1    
   193   97   98 2    
   194   97   99 am   BACKBONE|DICT|INTERRES
   195   99  100 1    
   196   99  220 1    
   197  100  101 1    
   198  100  102 1    
   199  100  221 1    
   200  101  222 1    
   201  101  223 1    
   202  101  224 1    
   203  102  103 2    
   204  102  104 am   BACKBONE|DICT|INTERRES
   205  104  105 1    
   206  104  225 1    
   207  105  106 1    
   208  105  107 1    
   209  105  226 1    
   210  106  227 1    
   211  106  228 1    
   212  106  229 1    
   213  107  108 2    
   214  107  109 am   BACKBONE|DICT|INTERRES
   215  109  110 1    
   216  109  230 1    
   217  110  111 1    
   218  110  112 1    
   219  110  231 1    
   220  111  232 1    
   221  111  233 1    
   222  111  234 1    
   223  112  113 2    
   224  112  114 am   BACKBONE|DICT|INTERRES
   225  114  115 1    
   226  114  235 1    
   227  115  116 1    
   228  115  117 1    
   229  115  236 1    
   230  116  237 1    
   231  116  238 1    
   232  116  239 1    
   233  117  118 2    
   234  117  119 am   BACKBONE|DICT|INTERRES
   235  119  120 1    
   236  119  240 1    
   237  120  121 1    
   238  120  124 1    
   239  120  241 1    
   240  121  122 am   BACKBONE|DICT|INTERRES
   241  121  123 2    
   242  122  242 1    
   243  122  243 1    
   244  124  125 1    
   245  124  244 1    
   246  124  245 1    
   247  125  126 1    
   248  126  246 1    
   249  126  247 1    
@<TRIPOS>SUBSTRUCTURE
     1 UNK         1 GROUP             0       ****    0 ROOT    
