@<TRIPOS>MOLECULE
3R540
247   249    1
SMALL
USER_CHARGES


@<TRIPOS>ATOM
      1 CA         -3.6204  -15.9785  -48.2535 C.3       0 UNK        -0.1800 
      2 C          -2.9456  -14.7193  -47.7304 C.2       0 UNK         0.5000 
      3 O          -3.4991  -14.0462  -46.8597 O.2       0 UNK        -0.5000 
      4 N          -1.7506  -14.3998  -48.2435 N.am      1 UNK        -0.5000 
      5 CA         -0.9312  -13.2545  -47.8300 C.3       1 UNK         0.1400 
      6 C6          0.0626  -12.8103  -48.9325 C.3       23 UNK        -0.0398 
      7 S7         -0.7941  -12.1699  -50.4118 S.3       23 UNK        -0.2404 
      8 C8         -0.1940  -13.2857  -51.7186 C.3       23 UNK        -0.0205 
      9 C9         -0.7350  -14.6985  -51.5633 C.ar      23 UNK        -0.0193 
     10 C10        -2.0687  -14.9769  -51.8778 C.ar      23 UNK        -0.1150 
     11 C11        -2.5701  -16.2753  -51.7545 C.ar      23 UNK        -0.0193 
     12 C12        -1.7211  -17.2970  -51.3240 C.ar      23 UNK        -0.1150 
     13 C13        -0.3885  -17.0331  -50.9981 C.ar      23 UNK        -0.0193 
     14 C14         0.0991  -15.7296  -51.1201 C.ar      23 UNK        -0.1150 
     15 C15         0.5308  -18.1565  -50.5397 C.3       23 UNK        -0.0205 
     16 S16         0.6295  -18.2840  -48.7233 S.3       23 UNK        -0.2404 
     17 C17        -0.9951  -19.0010  -48.3075 C.3       23 UNK        -0.0398 
     18 CA         -0.9972  -20.5554  -48.3669 C.3       11 UNK         0.1400 
     19 N          -0.1309  -21.1617  -47.3505 N.am      11 UNK        -0.5000 
     20 C          -0.3524  -21.1754  -46.0286 C.2       10 UNK         0.5000 
     21 O          -1.3821  -20.7346  -45.5110 O.2       10 UNK        -0.5000 
     22 CA          0.7457  -21.8049  -45.1507 C.3       10 UNK         0.1400 
     23 CB          2.1660  -21.5131  -45.6724 C.3       10 UNK        -0.1800 
     24 N           0.6410  -21.2890  -43.7908 N.am      10 UNK        -0.5000 
     25 C           0.3627  -22.0064  -42.6966 C.2       9 UNK         0.5000 
     26 O           0.1764  -23.2240  -42.7105 O.2       9 UNK        -0.5000 
     27 CA          0.2937  -21.2558  -41.3494 C.3       9 UNK         0.1400 
     28 CB          1.4578  -21.6803  -40.4395 C.3       9 UNK        -0.1800 
     29 N           0.3233  -19.7995  -41.4880 N.am      9 UNK        -0.5000 
     30 C          -0.7118  -19.0366  -41.8625 C.2       8 UNK         0.5000 
     31 O          -1.8465  -19.4690  -42.0607 O.2       8 UNK        -0.5000 
     32 CA         -0.4184  -17.5382  -42.0701 C.3       8 UNK         0.1400 
     33 CB         -0.5699  -16.7778  -40.7435 C.3       8 UNK        -0.1800 
     34 N           0.9163  -17.2844  -42.6194 N.am      8 UNK        -0.5000 
     35 C           1.3487  -17.6910  -43.8222 C.2       7 UNK         0.5000 
     36 O           0.6524  -18.3072  -44.6249 O.2       7 UNK        -0.5000 
     37 CA          2.8185  -17.4008  -44.1669 C.3       7 UNK         0.1400 
     38 CB          2.9836  -15.9811  -44.7285 C.3       7 UNK        -0.1800 
     39 N           3.6842  -17.5757  -43.0016 N.am      7 UNK        -0.5000 
     40 C           4.0961  -18.7657  -42.5416 C.2       6 UNK         0.5000 
     41 O           3.8379  -19.8374  -43.0880 O.2       6 UNK        -0.5000 
     42 CA          4.9171  -18.7606  -41.2378 C.3       6 UNK         0.1400 
     43 CB          6.4132  -18.5943  -41.5434 C.3       6 UNK        -0.1800 
     44 N           4.4982  -17.7151  -40.3027 N.am      6 UNK        -0.5000 
     45 C           3.3131  -17.6878  -39.6774 C.2       5 UNK         0.5000 
     46 O           2.4561  -18.5619  -39.8009 O.2       5 UNK        -0.5000 
     47 CA          3.0158  -16.4469  -38.8130 C.3       5 UNK         0.1400 
     48 CB          3.5443  -16.6468  -37.3850 C.3       5 UNK        -0.1800 
     49 N           3.5582  -15.1987  -39.3625 N.am      5 UNK        -0.5000 
     50 C           3.2483  -14.6959  -40.5642 C.2       4 UNK         0.5000 
     51 O           2.4961  -15.2568  -41.3668 O.2       4 UNK        -0.5000 
     52 CA          3.9198  -13.3734  -40.9546 C.3       4 UNK         0.1400 
     53 CB          5.3947  -13.5935  -41.3334 C.3       4 UNK        -0.1800 
     54 N           3.2005  -12.8288  -42.0977 N.am      4 UNK        -0.5000 
     55 C           3.0637  -11.5388  -42.4147 C.2       3 UNK         0.5000 
     56 O           3.5941  -10.6211  -41.7870 O.2       3 UNK        -0.5000 
     57 CA          2.1893  -11.2145  -43.6433 C.3       3 UNK         0.1400 
     58 CB          3.0705  -10.8409  -44.8455 C.3       3 UNK        -0.1800 
     59 N           1.3029  -12.3116  -44.0419 N.am      3 UNK        -0.5000 
     60 C           0.1917  -12.6912  -43.4002 C.2       2 UNK         0.5000 
     61 O          -0.2146  -12.1433  -42.3742 O.2       2 UNK        -0.5000 
     62 CA         -0.5962  -13.8650  -44.0275 C.3       2 UNK         0.1400 
     63 CB         -1.8599  -14.2235  -43.2250 C.3       2 UNK        -0.1800 
     64 N          -1.0028  -13.6068  -45.4101 N.am      2 UNK        -0.5000 
     65 C          -0.2198  -13.5592  -46.4943 C.2       1 UNK         0.5000 
     66 O           0.9970  -13.7511  -46.4628 O.2       1 UNK        -0.5000 
     67 C          -2.4085  -21.1845  -48.3218 C.2       11 UNK         0.5000 
     68 O          -2.5269  -22.3927  -48.5302 O.2       11 UNK        -0.5000 
     69 N          -3.4388  -20.3864  -48.0077 N.am      12 UNK        -0.5000 
     70 CA         -4.8320  -20.8155  -47.8766 C.3       12 UNK         0.1400 
     71 CB         -5.7110  -19.5744  -47.6601 C.3       12 UNK        -0.1800 
     72 C          -5.0696  -21.8529  -46.7589 C.2       12 UNK         0.5000 
     73 O          -6.0361  -22.6115  -46.8406 O.2       12 UNK        -0.5000 
     74 N          -4.1901  -21.8828  -45.7459 N.am      13 UNK        -0.5000 
     75 CA         -4.2170  -22.8759  -44.6722 C.3       13 UNK         0.1400 
     76 CB         -3.5419  -22.2948  -43.4206 C.3       13 UNK        -0.1800 
     77 C          -3.5543  -24.2062  -45.0795 C.2       13 UNK         0.5000 
     78 O          -3.8349  -25.2255  -44.4475 O.2       13 UNK        -0.5000 
     79 N          -2.6988  -24.1904  -46.1138 N.am      14 UNK        -0.5000 
     80 CA         -2.0609  -25.3890  -46.6587 C.3       14 UNK         0.1400 
     81 CB         -0.7339  -25.0226  -47.3430 C.3       14 UNK        -0.1800 
     82 C          -2.9961  -26.1243  -47.6317 C.2       14 UNK         0.5000 
     83 O          -3.1010  -27.3494  -47.5592 O.2       14 UNK        -0.5000 
     84 N          -3.6716  -25.3689  -48.5061 N.am      15 UNK        -0.5000 
     85 CA         -4.6302  -25.8709  -49.4853 C.3       15 UNK         0.1400 
     86 CB         -3.8893  -26.5613  -50.6465 C.3       15 UNK        -0.1800 
     87 C          -5.4796  -24.7052  -50.0042 C.2       15 UNK         0.5000 
     88 O          -5.0209  -23.5612  -49.9890 O.2       15 UNK        -0.5000 
     89 N          -6.6856  -25.0148  -50.4980 N.am      16 UNK        -0.5000 
     90 CA         -7.5975  -24.0582  -51.1308 C.3       16 UNK         0.1400 
     91 CB         -8.9005  -24.7751  -51.5152 C.3       16 UNK        -0.1800 
     92 C          -6.9500  -23.4008  -52.3637 C.2       16 UNK         0.5000 
     93 O          -6.4132  -24.1147  -53.2138 O.2       16 UNK        -0.5000 
     94 N          -6.9582  -22.0597  -52.3960 N.am      17 UNK        -0.5000 
     95 CA         -6.2894  -21.1970  -53.3832 C.3       17 UNK         0.1400 
     96 CB         -6.9609  -21.3354  -54.7648 C.3       17 UNK        -0.1800 
     97 C          -4.7579  -21.4050  -53.4503 C.2       17 UNK         0.5000 
     98 O          -4.1502  -21.1541  -54.4944 O.2       17 UNK        -0.5000 
     99 N          -4.1701  -21.8880  -52.3403 N.am      18 UNK        -0.5000 
    100 CA        -2.7812  -22.3332  -52.2005 C.3       18 UNK         0.1400 
    101 CB        -1.8265  -21.1269  -52.1904 C.3       18 UNK        -0.1800 
    102 C         -2.4256  -23.4132  -53.2413 C.2       18 UNK         0.5000 
    103 O         -1.4086  -23.3130  -53.9322 O.2       18 UNK        -0.5000 
    104 N         -3.3439  -24.3808  -53.3894 N.am      19 UNK        -0.5000 
    105 CA        -3.4111  -25.4723  -54.3687 C.3       19 UNK         0.1400 
    106 CB        -2.1744  -26.3874  -54.2930 C.3       19 UNK        -0.1800 
    107 C         -3.6723  -24.9873  -55.8076 C.2       19 UNK         0.5000 
    108 O         -4.5230  -25.5528  -56.4956 O.2       19 UNK        -0.5000 
    109 N         -2.9541  -23.9406  -56.2199 N.am      20 UNK        -0.5000 
    110 CA        -3.0864  -23.2423  -57.4938 C.3       20 UNK         0.1400 
    111 CB        -2.5066  -24.1002  -58.6354 C.3       20 UNK        -0.1800 
    112 C         -2.4173  -21.8557  -57.4760 C.2       20 UNK         0.5000 
    113 O         -2.7191  -21.0531  -58.3609 O.2       20 UNK        -0.5000 
    114 N         -1.5227  -21.5829  -56.5088 N.am      21 UNK        -0.5000 
    115 CA        -0.6512  -20.4012  -56.4808 C.3       21 UNK         0.1400 
    116 CB         0.3778  -20.5495  -55.3497 C.3       21 UNK        -0.1800 
    117 C         -1.3655  -19.0348  -56.4115 C.2       21 UNK         0.5000 
    118 O         -0.7598  -18.0331  -56.7965 O.2       21 UNK        -0.5000 
    119 N         -2.6300  -19.0087  -55.9774 N.am      22 UNK        -0.5000 
    120 CA        -3.5235  -17.8453  -56.0891 C.3       22 UNK         0.1400 
    121 C         -4.9105  -18.2094  -56.6929 C.2       22 UNK         0.5000 
    122 N         -5.0221  -19.2848  -57.4654 N.am      22 UNK        -0.7600 
    123 O         -5.8921  -17.4981  -56.4961 O.2       22 UNK        -0.5000 
    124 C124       -3.5702  -16.9905  -54.7952 C.3       23 UNK        -0.0398 
    125 S125       -4.2375  -17.8548  -53.3353 S.3       23 UNK        -0.2404 
    126 C126       -4.0326  -16.5734  -52.0587 C.3       23 UNK        -0.0205 
    127 H127       -4.5126  -15.7175  -48.8222 H         1 UNK         0.0600 
    128 H128       -3.9174  -16.6195  -47.4236 H         1 UNK         0.0600 
    129 H129       -2.9562  -16.5483  -48.8995 H         1 UNK         0.0600 
    130 H130       -1.3476  -14.9829  -48.9638 H         1 UNK         0.3000 
    131 H131       -1.5948  -12.4074  -47.6416 H         1 UNK         0.0600 
    132 H132        0.7039  -12.0075  -48.5641 H         1 UNK         0.0800 
    133 H133        0.7318  -13.6281  -49.2030 H         1 UNK         0.0800 
    134 H134       -0.5041  -12.8903  -52.6868 H         1 UNK         0.0800 
    135 H135        0.8972  -13.2835  -51.7262 H         1 UNK         0.0800 
    136 H136       -2.7153  -14.1775  -52.2118 H         1 UNK         0.1150 
    137 H137       -2.1105  -18.2992  -51.2420 H         1 UNK         0.1150 
    138 H138        1.1319  -15.5218  -50.8771 H         1 UNK         0.1150 
    139 H139        0.2087  -19.1095  -50.9610 H         1 UNK         0.0800 
    140 H140        1.5347  -17.9827  -50.9297 H         1 UNK         0.0800 
    141 H141       -1.7374  -18.5826  -48.9825 H         1 UNK         0.0800 
    142 H142       -1.2638  -18.6505  -47.3093 H         1 UNK         0.0800 
    143 H143       -0.5833  -20.8525  -49.3311 H         1 UNK         0.0600 
    144 H144        0.7278  -21.5627  -47.6973 H         1 UNK         0.3000 
    145 H145        0.5876  -22.8837  -45.1608 H         1 UNK         0.0600 
    146 H146        2.9210  -21.8833  -44.9783 H         1 UNK         0.0600 
    147 H147        2.3340  -20.4428  -45.8008 H         1 UNK         0.0600 
    148 H148        2.3518  -21.9993  -46.6303 H         1 UNK         0.0600 
    149 H149        0.6842  -20.2803  -43.7132 H         1 UNK         0.3000 
    150 H150       -0.6418  -21.5420  -40.8645 H         1 UNK         0.0600 
    151 H151        1.4607  -22.7592  -40.2795 H         1 UNK         0.0600 
    152 H152        1.3847  -21.2078  -39.4598 H         1 UNK         0.0600 
    153 H153        2.4220  -21.4080  -40.8711 H         1 UNK         0.0600 
    154 H154        1.2014  -19.3441  -41.2639 H         1 UNK         0.3000 
    155 H155       -1.1478  -17.1481  -42.7821 H         1 UNK         0.0600 
    156 H156       -1.6061  -16.7944  -40.4040 H         1 UNK         0.0600 
    157 H157       -0.2713  -15.7344  -40.8396 H         1 UNK         0.0600 
    158 H158        0.0376  -17.2222  -39.9554 H         1 UNK         0.0600 
    159 H159        1.5459  -16.7334  -42.0423 H         1 UNK         0.3000 
    160 H160        3.1276  -18.1047  -44.9428 H         1 UNK         0.0600 
    161 H161        2.6399  -15.2197  -44.0294 H         1 UNK         0.0600 
    162 H162        2.4081  -15.8659  -45.6474 H         1 UNK         0.0600 
    163 H163        4.0251  -15.7694  -44.9707 H         1 UNK         0.0600 
    164 H164        3.8871  -16.7483  -42.4596 H         1 UNK         0.3000 
    165 H165        4.7723  -19.7280  -40.7520 H         1 UNK         0.0600 
    166 H166        7.0118  -18.6673  -40.6353 H         1 UNK         0.0600 
    167 H167        6.7611  -19.3726  -42.2240 H         1 UNK         0.0600 
    168 H168        6.6252  -17.6314  -42.0099 H         1 UNK         0.0600 
    169 H169        5.1436  -16.9554  -40.1450 H         1 UNK         0.3000 
    170 H170        1.9313  -16.3370  -38.7598 H         1 UNK         0.0600 
    171 H171        3.1404  -17.5589  -36.9433 H         1 UNK         0.0600 
    172 H172        4.6320  -16.7258  -37.3647 H         1 UNK         0.0600 
    173 H173        3.2549  -15.8189  -36.7375 H         1 UNK         0.0600 
    174 H174        4.1918  -14.6856  -38.7664 H         1 UNK         0.3000 
    175 H175        3.8476  -12.6860  -40.1092 H         1 UNK         0.0600 
    176 H176        5.4957  -14.2897  -42.1672 H         1 UNK         0.0600 
    177 H177        5.8707  -12.6564  -41.6227 H         1 UNK         0.0600 
    178 H178        5.9626  -13.9977  -40.4948 H         1 UNK         0.0600 
    179 H179        2.6745  -13.5181  -42.6179 H         1 UNK         0.3000 
    180 H180        1.5733  -10.3499  -43.3877 H         1 UNK         0.0600 
    181 H181        3.7005  -11.6757  -45.1556 H         1 UNK         0.0600 
    182 H182        3.7275  -10.0039  -44.6056 H         1 UNK         0.0600 
    183 H183        2.4645  -10.5424  -45.7011 H         1 UNK         0.0600 
    184 H184        1.5308  -12.7962  -44.9062 H         1 UNK         0.3000 
    185 H185        0.0637  -14.7345  -44.0196 H         1 UNK         0.0600 
    186 H186       -1.6251  -14.4255  -42.1807 H         1 UNK         0.0600 
    187 H187       -2.5882  -13.4118  -43.2421 H         1 UNK         0.0600 
    188 H188       -2.3436  -15.1134  -43.6281 H         1 UNK         0.0600 
    189 H189       -1.9982  -13.4849  -45.5637 H         1 UNK         0.3000 
    190 H190       -3.2578  -19.4187  -47.7911 H         1 UNK         0.3000 
    191 H191       -5.1270  -21.2746  -48.8208 H         1 UNK         0.0600 
    192 H192       -5.4476  -19.0504  -46.7405 H         1 UNK         0.0600 
    193 H193       -6.7644  -19.8493  -47.5912 H         1 UNK         0.0600 
    194 H194       -5.6140  -18.8716  -48.4881 H         1 UNK         0.0600 
    195 H195       -3.4014  -21.2440  -45.7474 H         1 UNK         0.3000 
    196 H196       -5.2564  -23.0919  -44.4158 H         1 UNK         0.0600 
    197 H197       -3.6215  -22.9834  -42.5787 H         1 UNK         0.0600 
    198 H198       -4.0055  -21.3556  -43.1183 H         1 UNK         0.0600 
    199 H199       -2.4820  -22.1057  -43.5843 H         1 UNK         0.0600 
    200 H200       -2.5754  -23.3332  -46.6381 H         1 UNK         0.3000 
    201 H201       -1.8271  -26.0718  -45.8389 H         1 UNK         0.0600 
    202 H202       -0.0436  -24.5570  -46.6418 H         1 UNK         0.0600 
    203 H203       -0.8755  -24.3409  -48.1809 H         1 UNK         0.0600 
    204 H204       -0.2421  -25.9147  -47.7325 H         1 UNK         0.0600 
    205 H205       -3.5428  -24.3609  -48.5170 H         1 UNK         0.3000 
    206 H206       -5.2958  -26.5860  -48.9975 H         1 UNK         0.0600 
    207 H207       -3.4002  -27.4778  -50.3170 H         1 UNK         0.0600 
    208 H208       -4.5736  -26.8347  -51.4507 H         1 UNK         0.0600 
    209 H209       -3.1228  -25.9122  -51.0694 H         1 UNK         0.0600 
    210 H210       -6.9772  -25.9811  -50.5087 H         1 UNK         0.3000 
    211 H211       -7.8324  -23.2865  -50.3946 H         1 UNK         0.0600 
    212 H212       -8.7215  -25.5800  -52.2294 H         1 UNK         0.0600 
    213 H213       -9.6066  -24.0812  -51.9733 H         1 UNK         0.0600 
    214 H214       -9.3888  -25.2042  -50.6400 H         1 UNK         0.0600 
    215 H215       -7.4135  -21.5690  -51.6389 H         1 UNK         0.3000 
    216 H216       -6.4385  -20.1707  -53.0451 H         1 UNK         0.0600 
    217 H217       -6.5886  -20.5786  -55.4551 H         1 UNK         0.0600 
    218 H218       -8.0406  -21.2045  -54.6954 H         1 UNK         0.0600 
    219 H219       -6.7668  -22.3100  -55.2139 H         1 UNK         0.0600 
    220 H220       -4.7593  -22.1017  -51.5438 H         1 UNK         0.3000 
    221 H221       -2.7004  -22.8220  -51.2291 H         1 UNK         0.0600 
    222 H222       -1.9436  -20.5078  -53.0794 H         1 UNK         0.0600 
    223 H223       -2.0270  -20.5011  -51.3242 H         1 UNK         0.0600 
    224 H224       -0.7844  -21.4416  -52.1284 H         1 UNK         0.0600 
    225 H225       -4.1982  -24.2702  -52.8573 H         1 UNK         0.3000 
    226 H226       -4.2774  -26.0690  -54.0786 H         1 UNK         0.0600 
    227 H227       -2.0239  -26.7644  -53.2815 H         1 UNK         0.0600 
    228 H228       -2.2933  -27.2515  -54.9476 H         1 UNK         0.0600 
    229 H229       -1.2631  -25.8734  -54.5990 H         1 UNK         0.0600 
    230 H230       -2.3063  -23.5532  -55.5424 H         1 UNK         0.3000 
    231 H231       -4.1493  -23.0763  -57.6810 H         1 UNK         0.0600 
    232 H232       -2.5728  -23.5790  -59.5913 H         1 UNK         0.0600 
    233 H233       -3.0474  -25.0398  -58.7468 H         1 UNK         0.0600 
    234 H234       -1.4562  -24.3368  -58.4618 H         1 UNK         0.0600 
    235 H235       -1.3490  -22.2563  -55.7754 H         1 UNK         0.3000 
    236 H236       -0.0978  -20.4044  -57.4221 H         1 UNK         0.0600 
    237 H237       -0.0971  -20.5812  -54.3720 H         1 UNK         0.0600 
    238 H238        0.9640  -21.4612  -55.4657 H         1 UNK         0.0600 
    239 H239        1.0777  -19.7129  -55.3448 H         1 UNK         0.0600 
    240 H240       -3.0653  -19.8608  -55.6342 H         1 UNK         0.3000 
    241 H241       -3.1152  -17.1842  -56.8556 H         1 UNK         0.0600 
    242 H242       -5.9163  -19.5097  -57.8706 H         1 UNK         0.3800 
    243 H243       -4.2085  -19.8415  -57.7015 H         1 UNK         0.3800 
    244 H244       -4.1560  -16.0851  -54.9608 H         1 UNK         0.0800 
    245 H245       -2.5608  -16.6505  -54.5604 H         1 UNK         0.0800 
    246 H246       -4.5602  -15.6707  -52.3704 H         1 UNK         0.0800 
    247 H247       -4.5188  -16.9135  -51.1438 H         1 UNK         0.0800 
@<TRIPOS>BOND
     1    1    2 1    
     2    1  127 1    
     3    1  128 1    
     4    1  129 1    
     5    2    3 2    
     6    2    4 am   BACKBONE|DICT|INTERRES
     7    4    5 1    
     8    4  130 1    
     9    5    6 1    
    10    5   65 1    
    11    5  131 1    
    12    6    7 1    
    13    6  132 1    
    14    6  133 1    
    15    7    8 1    
    16    8    9 1    
    17    8  134 1    
    18    8  135 1    
    19    9   10 ar   
    20    9   14 ar   
    21   10   11 ar   
    22   10  136 1    
    23   11   12 ar   
    24   11  126 1    
    25   12   13 ar   
    26   12  137 1    
    27   13   14 ar   
    28   13   15 1    
    29   14  138 1    
    30   15   16 1    
    31   15  139 1    
    32   15  140 1    
    33   16   17 1    
    34   17   18 1    
    35   17  141 1    
    36   17  142 1    
    37   18   19 1    
    38   18   67 1    
    39   18  143 1    
    40   19   20 am   BACKBONE|DICT|INTERRES
    41   19  144 1    
    42   20   21 2    
    43   20   22 1    
    44   22   23 1    
    45   22   24 1    
    46   22  145 1    
    47   23  146 1    
    48   23  147 1    
    49   23  148 1    
    50   24   25 am   BACKBONE|DICT|INTERRES
    51   24  149 1    
    52   25   26 2    
    53   25   27 1    
    54   27   28 1    
    55   27   29 1    
    56   27  150 1    
    57   28  151 1    
    58   28  152 1    
    59   28  153 1    
    60   29   30 am   BACKBONE|DICT|INTERRES
    61   29  154 1    
    62   30   31 2    
    63   30   32 1    
    64   32   33 1    
    65   32   34 1    
    66   32  155 1    
    67   33  156 1    
    68   33  157 1    
    69   33  158 1    
    70   34   35 am   BACKBONE|DICT|INTERRES
    71   34  159 1    
    72   35   36 2    
    73   35   37 1    
    74   37   38 1    
    75   37   39 1    
    76   37  160 1    
    77   38  161 1    
    78   38  162 1    
    79   38  163 1    
    80   39   40 am   BACKBONE|DICT|INTERRES
    81   39  164 1    
    82   40   41 2    
    83   40   42 1    
    84   42   43 1    
    85   42   44 1    
    86   42  165 1    
    87   43  166 1    
    88   43  167 1    
    89   43  168 1    
    90   44   45 am   BACKBONE|DICT|INTERRES
    91   44  169 1    
    92   45   46 2    
    93   45   47 1    
    94   47   48 1    
    95   47   49 1    
    96   47  170 1    
    97   48  171 1    
    98   48  172 1    
    99   48  173 1    
   100   49   50 am   BACKBONE|DICT|INTERRES
   101   49  174 1    
   102   50   51 2    
   103   50   52 1    
   104   52   53 1    
   105   52   54 1    
   106   52  175 1    
   107   53  176 1    
   108   53  177 1    
   109   53  178 1    
   110   54   55 am   BACKBONE|DICT|INTERRES
   111   54  179 1    
   112   55   56 2    
   113   55   57 1    
   114   57   58 1    
   115   57   59 1    
   116   57  180 1    
   117   58  181 1    
   118   58  182 1    
   119   58  183 1    
   120   59   60 am   BACKBONE|DICT|INTERRES
   121   59  184 1    
   122   60   61 2    
   123   60   62 1    
   124   62   63 1    
   125   62   64 1    
   126   62  185 1    
   127   63  186 1    
   128   63  187 1    
   129   63  188 1    
   130   64   65 am   BACKBONE|DICT|INTERRES
   131   64  189 1    
   132   65   66 2    
   133   67   68 2    
   134   67   69 am   BACKBONE|DICT|INTERRES
   135   69   70 1    
   136   69  190 1    
   137   70   71 1    
   138   70   72 1    
   139   70  191 1    
   140   71  192 1    
   141   71  193 1    
   142   71  194 1    
   143   72   73 2    
   144   72   74 am   BACKBONE|DICT|INTERRES
   145   74   75 1    
   146   74  195 1    
   147   75   76 1    
   148   75   77 1    
   149   75  196 1    
   150   76  197 1    
   151   76  198 1    
   152   76  199 1    
   153   77   78 2    
   154   77   79 am   BACKBONE|DICT|INTERRES
   155   79   80 1    
   156   79  200 1    
   157   80   81 1    
   158   80   82 1    
   159   80  201 1    
   160   81  202 1    
   161   81  203 1    
   162   81  204 1    
   163   82   83 2    
   164   82   84 am   BACKBONE|DICT|INTERRES
   165   84   85 1    
   166   84  205 1    
   167   85   86 1    
   168   85   87 1    
   169   85  206 1    
   170   86  207 1    
   171   86  208 1    
   172   86  209 1    
   173   87   88 2    
   174   87   89 am   BACKBONE|DICT|INTERRES
   175   89   90 1    
   176   89  210 1    
   177   90   91 1    
   178   90   92 1    
   179   90  211 1    
   180   91  212 1    
   181   91  213 1    
   182   91  214 1    
   183   92   93 2    
   184   92   94 am   BACKBONE|DICT|INTERRES
   185   94   95 1    
   186   94  215 1    
   187   95   96 1    
   188   95   97 1    
   189   95  216 1    
   190   96  217 1    
   191   96  218 1    
   192   96  219 1    
   193   97   98 2    
   194   97   99 am   BACKBONE|DICT|INTERRES
   195   99  100 1    
   196   99  220 1    
   197  100  101 1    
   198  100  102 1    
   199  100  221 1    
   200  101  222 1    
   201  101  223 1    
   202  101  224 1    
   203  102  103 2    
   204  102  104 am   BACKBONE|DICT|INTERRES
   205  104  105 1    
   206  104  225 1    
   207  105  106 1    
   208  105  107 1    
   209  105  226 1    
   210  106  227 1    
   211  106  228 1    
   212  106  229 1    
   213  107  108 2    
   214  107  109 am   BACKBONE|DICT|INTERRES
   215  109  110 1    
   216  109  230 1    
   217  110  111 1    
   218  110  112 1    
   219  110  231 1    
   220  111  232 1    
   221  111  233 1    
   222  111  234 1    
   223  112  113 2    
   224  112  114 am   BACKBONE|DICT|INTERRES
   225  114  115 1    
   226  114  235 1    
   227  115  116 1    
   228  115  117 1    
   229  115  236 1    
   230  116  237 1    
   231  116  238 1    
   232  116  239 1    
   233  117  118 2    
   234  117  119 am   BACKBONE|DICT|INTERRES
   235  119  120 1    
   236  119  240 1    
   237  120  121 1    
   238  120  124 1    
   239  120  241 1    
   240  121  122 am   BACKBONE|DICT|INTERRES
   241  121  123 2    
   242  122  242 1    
   243  122  243 1    
   244  124  125 1    
   245  124  244 1    
   246  124  245 1    
   247  125  126 1    
   248  126  246 1    
   249  126  247 1    
@<TRIPOS>SUBSTRUCTURE
     1 UNK         1 GROUP             0       ****    0 ROOT    
