@<TRIPOS>MOLECULE
3R540
247   249    1
SMALL
USER_CHARGES


@<TRIPOS>ATOM
      1 CA          5.9191  -13.3217  -45.1669 C.3       0 UNK        -0.1800 
      2 C           4.6831  -12.6842  -45.7837 C.2       0 UNK         0.5000 
      3 O           4.7579  -11.5631  -46.2868 O.2       0 UNK        -0.5000 
      4 N           3.5460  -13.3876  -45.7233 N.am      1 UNK        -0.5000 
      5 CA          2.2344  -13.0176  -46.2664 C.3       1 UNK         0.1400 
      6 C6          2.2044  -12.8587  -47.8122 C.3       23 UNK        -0.0398 
      7 S7          2.7239  -14.3620  -48.7051 S.3       23 UNK        -0.2404 
      8 C8          1.2573  -15.4121  -48.4879 C.3       23 UNK        -0.0205 
      9 C9          1.1723  -16.4787  -49.5653 C.ar      23 UNK        -0.0193 
     10 C10         0.4334  -16.2394  -50.7274 C.ar      23 UNK        -0.1150 
     11 C11         0.3313  -17.2215  -51.7153 C.ar      23 UNK        -0.0193 
     12 C12         0.9697  -18.4505  -51.5333 C.ar      23 UNK        -0.1150 
     13 C13         1.7189  -18.7009  -50.3808 C.ar      23 UNK        -0.0193 
     14 C14         1.8203  -17.7064  -49.4004 C.ar      23 UNK        -0.1150 
     15 C15         2.4363  -20.0372  -50.2282 C.3       23 UNK        -0.0205 
     16 S16         2.1868  -20.8120  -48.6008 S.3       23 UNK        -0.2404 
     17 C17         0.3764  -21.0406  -48.5635 C.3       23 UNK        -0.0398 
     18 CA         -0.0041  -22.2379  -47.6651 C.3       11 UNK         0.1400 
     19 N           0.3268  -22.0098  -46.2546 N.am      11 UNK        -0.5000 
     20 C           0.3378  -22.9711  -45.3219 C.2       10 UNK         0.5000 
     21 O           0.0985  -24.1537  -45.5617 O.2       10 UNK        -0.5000 
     22 CA          0.6156  -22.5376  -43.8723 C.3       10 UNK         0.1400 
     23 CB          2.1209  -22.3427  -43.6386 C.3       10 UNK        -0.1800 
     24 N          -0.1115  -21.3238  -43.4976 N.am      10 UNK        -0.5000 
     25 C          -1.4480  -21.2295  -43.4411 C.2       9 UNK         0.5000 
     26 O          -2.2070  -22.1725  -43.6617 O.2       9 UNK        -0.5000 
     27 CA         -2.0426  -19.8432  -43.1311 C.3       9 UNK         0.1400 
     28 CB         -2.0036  -19.5554  -41.6235 C.3       9 UNK        -0.1800 
     29 N          -1.3736  -18.7633  -43.8561 N.am      9 UNK        -0.5000 
     30 C          -1.3369  -18.6490  -45.1917 C.2       8 UNK         0.5000 
     31 O          -1.8966  -19.4258  -45.9647 O.2       8 UNK        -0.5000 
     32 CA         -0.4783  -17.5060  -45.7589 C.3       8 UNK         0.1400 
     33 CB         -1.2352  -16.1689  -45.7118 C.3       8 UNK        -0.1800 
     34 N           0.7977  -17.3807  -45.0532 N.am      8 UNK        -0.5000 
     35 C           1.7554  -18.3195  -45.0622 C.2       7 UNK         0.5000 
     36 O           1.6716  -19.3751  -45.6869 O.2       7 UNK        -0.5000 
     37 CA          2.9852  -18.0554  -44.1778 C.3       7 UNK         0.1400 
     38 CB          3.9387  -17.0624  -44.8587 C.3       7 UNK        -0.1800 
     39 N           2.6049  -17.5538  -42.8562 N.am      7 UNK        -0.5000 
     40 C           1.9605  -18.2898  -41.9359 C.2       6 UNK         0.5000 
     41 O           1.6704  -19.4743  -42.0951 O.2       6 UNK        -0.5000 
     42 CA          1.5233  -17.5833  -40.6376 C.3       6 UNK         0.1400 
     43 CB          2.6196  -17.7009  -39.5687 C.3       6 UNK        -0.1800 
     44 N           1.1912  -16.1725  -40.8285 N.am      6 UNK        -0.5000 
     45 C           0.2506  -15.6986  -41.6578 C.2       5 UNK         0.5000 
     46 O          -0.5197  -16.4179  -42.2943 O.2       5 UNK        -0.5000 
     47 CA          0.1989  -14.1697  -41.8508 C.3       5 UNK         0.1400 
     48 CB         -0.9687  -13.5670  -41.0563 C.3       5 UNK        -0.1800 
     49 N           1.4405  -13.4770  -41.4814 N.am      5 UNK        -0.5000 
     50 C           2.6301  -13.6614  -42.0693 C.2       4 UNK         0.5000 
     51 O           2.8232  -14.4521  -42.9968 O.2       4 UNK        -0.5000 
     52 CA          3.7953  -12.8309  -41.5214 C.3       4 UNK         0.1400 
     53 CB          5.0838  -13.6700  -41.4071 C.3       4 UNK        -0.1800 
     54 N           3.9964  -11.6801  -42.3953 N.am      4 UNK        -0.5000 
     55 C           4.6606  -10.5661  -42.0595 C.2       3 UNK         0.5000 
     56 O           5.1772  -10.3917  -40.9551 O.2       3 UNK        -0.5000 
     57 CA          4.7785   -9.4544  -43.1206 C.3       3 UNK         0.1400 
     58 CB          6.1830   -9.4456  -43.7443 C.3       3 UNK        -0.1800 
     59 N           3.7855   -9.5732  -44.1892 N.am      3 UNK        -0.5000 
     60 C           2.5412   -9.0770  -44.1242 C.2       2 UNK         0.5000 
     61 O           2.1024   -8.4553  -43.1561 O.2       2 UNK        -0.5000 
     62 CA          1.6286   -9.3256  -45.3413 C.3       2 UNK         0.1400 
     63 CB          1.7417   -8.1696  -46.3465 C.3       2 UNK        -0.1800 
     64 N           1.9411  -10.5833  -46.0202 N.am      2 UNK        -0.5000 
     65 C           1.6698  -11.7947  -45.5178 C.2       1 UNK         0.5000 
     66 O           1.0371  -11.9675  -44.4770 O.2       1 UNK        -0.5000 
     67 C          -1.4788  -22.6505  -47.8489 C.2       11 UNK         0.5000 
     68 O          -1.7537  -23.5581  -48.6338 O.2       11 UNK        -0.5000 
     69 N          -2.3955  -22.0385  -47.0854 N.am      12 UNK        -0.5000 
     70 CA         -3.8083  -22.4171  -47.0438 C.3       12 UNK         0.1400 
     71 CB         -4.6102  -21.3745  -46.2523 C.3       12 UNK        -0.1800 
     72 C          -4.0279  -23.8348  -46.4839 C.2       12 UNK         0.5000 
     73 O          -4.8043  -24.5950  -47.0620 O.2       12 UNK        -0.5000 
     74 N          -3.3037  -24.1911  -45.4127 N.am      13 UNK        -0.5000 
     75 CA         -3.2922  -25.5339  -44.8223 C.3       13 UNK         0.1400 
     76 CB         -2.5220  -25.5065  -43.4937 C.3       13 UNK        -0.1800 
     77 C          -2.7147  -26.6055  -45.7692 C.2       13 UNK         0.5000 
     78 O          -3.1933  -27.7399  -45.7680 O.2       13 UNK        -0.5000 
     79 N          -1.7344  -26.2139  -46.5944 N.am      14 UNK        -0.5000 
     80 CA         -1.1568  -27.0170  -47.6757 C.3       14 UNK         0.1400 
     81 CB          0.2340  -26.4585  -48.0195 C.3       14 UNK        -0.1800 
     82 C          -2.0472  -27.0931  -48.9374 C.2       14 UNK         0.5000 
     83 O          -1.6620  -27.7596  -49.8989 O.2       14 UNK        -0.5000 
     84 N          -3.2082  -26.4209  -48.9174 N.am      15 UNK        -0.5000 
     85 CA         -4.2273  -26.3458  -49.9674 C.3       15 UNK         0.1400 
     86 CB         -4.7961  -27.7405  -50.3048 C.3       15 UNK        -0.1800 
     87 C          -3.7880  -25.5522  -51.2144 C.2       15 UNK         0.5000 
     88 O          -4.3525  -25.7510  -52.2901 O.2       15 UNK        -0.5000 
     89 N          -2.8371  -24.6235  -51.0503 N.am      16 UNK        -0.5000 
     90 CA         -2.4447  -23.6365  -52.0553 C.3       16 UNK         0.1400 
     91 CB         -0.9229  -23.4151  -51.9823 C.3       16 UNK        -0.1800 
     92 C          -3.2547  -22.3465  -51.8268 C.2       16 UNK         0.5000 
     93 O          -2.6877  -21.2927  -51.5375 O.2       16 UNK        -0.5000 
     94 N          -4.5820  -22.4725  -51.9212 N.am      17 UNK        -0.5000 
     95 CA         -5.5784  -21.4308  -51.7024 C.3       17 UNK         0.1400 
     96 CB         -5.6844  -21.1060  -50.1987 C.3       17 UNK        -0.1800 
     97 C          -6.9269  -21.9238  -52.2519 C.2       17 UNK         0.5000 
     98 O          -7.0417  -23.0940  -52.6306 O.2       17 UNK        -0.5000 
     99 N          -7.9285  -21.0329  -52.2536 N.am      18 UNK        -0.5000 
    100 CA        -9.3381  -21.2827  -52.5777 C.3       18 UNK         0.1400 
    101 CB       -10.0000  -22.1209  -51.4608 C.3       18 UNK        -0.1800 
    102 C         -9.5182  -21.8769  -53.9888 C.2       18 UNK         0.5000 
    103 O         -9.3661  -21.1486  -54.9697 O.2       18 UNK        -0.5000 
    104 N         -9.7991  -23.1844  -54.0760 N.am      19 UNK        -0.5000 
    105 CA        -9.9371  -23.9425  -55.3227 C.3       19 UNK         0.1400 
    106 CB       -10.4204  -25.3626  -54.9915 C.3       19 UNK        -0.1800 
    107 C         -8.6466  -23.9946  -56.1665 C.2       19 UNK         0.5000 
    108 O         -8.7307  -24.1247  -57.3880 O.2       19 UNK        -0.5000 
    109 N         -7.4847  -23.8611  -55.5118 N.am      20 UNK        -0.5000 
    110 CA        -6.1705  -23.7615  -56.1497 C.3       20 UNK         0.1400 
    111 CB        -5.1370  -24.4696  -55.2597 C.3       20 UNK        -0.1800 
    112 C         -5.7520  -22.3004  -56.4162 C.2       20 UNK         0.5000 
    113 O         -4.6020  -22.0729  -56.7984 O.2       20 UNK        -0.5000 
    114 N         -6.6618  -21.3389  -56.1852 N.am      21 UNK        -0.5000 
    115 CA        -6.4968  -19.8833  -56.2497 C.3       21 UNK         0.1400 
    116 CB        -6.1522  -19.4074  -57.6766 C.3       21 UNK        -0.1800 
    117 C         -5.5033  -19.3798  -55.1893 C.2       21 UNK         0.5000 
    118 O         -5.9251  -18.8736  -54.1495 O.2       21 UNK        -0.5000 
    119 N         -4.2112  -19.5736  -55.4578 N.am      22 UNK        -0.5000 
    120 CA        -3.0904  -19.3467  -54.5411 C.3       22 UNK         0.1400 
    121 C         -1.8912  -20.3002  -54.8345 C.2       22 UNK         0.5000 
    122 N         -2.0740  -21.3942  -55.5692 N.am      22 UNK        -0.7600 
    123 O         -0.7707  -20.0578  -54.3988 O.2       22 UNK        -0.5000 
    124 C124       -2.7119  -17.8412  -54.4400 C.3       23 UNK        -0.0398 
    125 S125       -2.2169  -17.3692  -52.7480 S.3       23 UNK        -0.2404 
    126 C126       -0.4613  -16.9610  -52.9843 C.3       23 UNK        -0.0205 
    127 H127        6.7329  -13.3373  -45.8917 H         1 UNK         0.0600 
    128 H128        5.7287  -14.3474  -44.8503 H         1 UNK         0.0600 
    129 H129        6.2459  -12.7515  -44.2983 H         1 UNK         0.0600 
    130 H130        3.5440  -14.2444  -45.1863 H         1 UNK         0.3000 
    131 H131        1.5711  -13.8461  -46.0135 H         1 UNK         0.0600 
    132 H132        1.2042  -12.5832  -48.1511 H         1 UNK         0.0800 
    133 H133        2.8629  -12.0521  -48.1366 H         1 UNK         0.0800 
    134 H134        1.3060  -15.8800  -47.5049 H         1 UNK         0.0800 
    135 H135        0.3513  -14.8044  -48.5009 H         1 UNK         0.0800 
    136 H136       -0.0652  -15.2897  -50.8630 H         1 UNK         0.1150 
    137 H137        0.8849  -19.2109  -52.2979 H         1 UNK         0.1150 
    138 H138        2.3997  -17.8898  -48.5061 H         1 UNK         0.1150 
    139 H139        2.1183  -20.7400  -51.0002 H         1 UNK         0.0800 
    140 H140        3.5044  -19.8766  -50.3787 H         1 UNK         0.0800 
    141 H141        0.0226  -21.1940  -49.5846 H         1 UNK         0.0800 
    142 H142       -0.0916  -20.1209  -48.2075 H         1 UNK         0.0800 
    143 H143        0.5908  -23.0913  -47.9975 H         1 UNK         0.0600 
    144 H144        0.5909  -21.0639  -45.9955 H         1 UNK         0.3000 
    145 H145        0.2757  -23.3423  -43.2172 H         1 UNK         0.0600 
    146 H146        2.3324  -22.1357  -42.5895 H         1 UNK         0.0600 
    147 H147        2.5182  -21.5169  -44.2291 H         1 UNK         0.0600 
    148 H148        2.6781  -23.2398  -43.9113 H         1 UNK         0.0600 
    149 H149        0.4526  -20.5163  -43.2513 H         1 UNK         0.3000 
    150 H150       -3.0877  -19.8517  -43.4469 H         1 UNK         0.0600 
    151 H151       -2.5642  -20.3093  -41.0694 H         1 UNK         0.0600 
    152 H152       -2.4452  -18.5854  -41.3938 H         1 UNK         0.0600 
    153 H153       -0.9839  -19.5592  -41.2398 H         1 UNK         0.0600 
    154 H154       -0.9180  -18.0480  -43.2967 H         1 UNK         0.3000 
    155 H155       -0.2627  -17.7397  -46.8039 H         1 UNK         0.0600 
    156 H156       -2.1510  -16.2236  -46.3016 H         1 UNK         0.0600 
    157 H157       -0.6368  -15.3540  -46.1173 H         1 UNK         0.0600 
    158 H158       -1.5194  -15.8972  -44.6952 H         1 UNK         0.0600 
    159 H159        0.9132  -16.5764  -44.4548 H         1 UNK         0.3000 
    160 H160        3.5158  -19.0007  -44.0446 H         1 UNK         0.0600 
    161 H161        3.4479  -16.1121  -45.0628 H         1 UNK         0.0600 
    162 H162        4.2939  -17.4565  -45.8118 H         1 UNK         0.0600 
    163 H163        4.8140  -16.8644  -44.2397 H         1 UNK         0.0600 
    164 H164        2.7772  -16.5719  -42.6743 H         1 UNK         0.3000 
    165 H165        0.6285  -18.0871  -40.2684 H         1 UNK         0.0600 
    166 H166        2.2923  -17.2778  -38.6188 H         1 UNK         0.0600 
    167 H167        2.8761  -18.7455  -39.3863 H         1 UNK         0.0600 
    168 H168        3.5329  -17.1862  -39.8701 H         1 UNK         0.0600 
    169 H169        1.7696  -15.5039  -40.3427 H         1 UNK         0.3000 
    170 H170        0.0198  -13.9884  -42.9124 H         1 UNK         0.0600 
    171 H171       -0.8325  -13.6938  -39.9816 H         1 UNK         0.0600 
    172 H172       -1.0747  -12.5012  -41.2598 H         1 UNK         0.0600 
    173 H173       -1.9125  -14.0427  -41.3267 H         1 UNK         0.0600 
    174 H174        1.3643  -12.7965  -40.7393 H         1 UNK         0.3000 
    175 H175        3.5278  -12.4764  -40.5236 H         1 UNK         0.0600 
    176 H176        5.4174  -14.0377  -42.3769 H         1 UNK         0.0600 
    177 H177        5.8994  -13.0940  -40.9704 H         1 UNK         0.0600 
    178 H178        4.9246  -14.5390  -40.7676 H         1 UNK         0.0600 
    179 H179        3.5457  -11.7315  -43.2979 H         1 UNK         0.3000 
    180 H180        4.6393   -8.5007  -42.6068 H         1 UNK         0.0600 
    181 H181        6.3003   -8.6105  -44.4350 H         1 UNK         0.0600 
    182 H182        6.3896  -10.3634  -44.2938 H         1 UNK         0.0600 
    183 H183        6.9519   -9.3419  -42.9775 H         1 UNK         0.0600 
    184 H184        4.0710  -10.0806  -45.0204 H         1 UNK         0.3000 
    185 H185        0.5974   -9.3685  -44.9838 H         1 UNK         0.0600 
    186 H186        1.0564   -8.3061  -47.1832 H         1 UNK         0.0600 
    187 H187        1.4928   -7.2176  -45.8757 H         1 UNK         0.0600 
    188 H188        2.7516   -8.0827  -46.7494 H         1 UNK         0.0600 
    189 H189        2.5198  -10.5176  -46.8458 H         1 UNK         0.3000 
    190 H190       -2.1128  -21.2598  -46.4962 H         1 UNK         0.3000 
    191 H191       -4.1754  -22.4161  -48.0709 H         1 UNK         0.0600 
    192 H192       -4.5190  -20.3854  -46.7016 H         1 UNK         0.0600 
    193 H193       -4.2726  -21.3045  -45.2184 H         1 UNK         0.0600 
    194 H194       -5.6709  -21.6280  -46.2363 H         1 UNK         0.0600 
    195 H195       -2.7276  -23.4891  -44.9552 H         1 UNK         0.3000 
    196 H196       -4.3266  -25.8094  -44.6071 H         1 UNK         0.0600 
    197 H197       -2.9712  -24.8032  -42.7924 H         1 UNK         0.0600 
    198 H198       -1.4811  -25.2168  -43.6367 H         1 UNK         0.0600 
    199 H199       -2.5274  -26.4883  -43.0187 H         1 UNK         0.0600 
    200 H200       -1.3485  -25.2834  -46.4726 H         1 UNK         0.3000 
    201 H201       -1.0278  -28.0386  -47.3129 H         1 UNK         0.0600 
    202 H202        0.8743  -26.4210  -47.1380 H         1 UNK         0.0600 
    203 H203        0.1718  -25.4520  -48.4319 H         1 UNK         0.0600 
    204 H204        0.7369  -27.0835  -48.7582 H         1 UNK         0.0600 
    205 H205       -3.4209  -25.8802  -48.0878 H         1 UNK         0.3000 
    206 H206       -5.0448  -25.7676  -49.5351 H         1 UNK         0.0600 
    207 H207       -4.0705  -28.3596  -50.8325 H         1 UNK         0.0600 
    208 H208       -5.1002  -28.2715  -49.4027 H         1 UNK         0.0600 
    209 H209       -5.6766  -27.6587  -50.9430 H         1 UNK         0.0600 
    210 H210       -2.4596  -24.4667  -50.1181 H         1 UNK         0.3000 
    211 H211       -2.6767  -23.9985  -53.0590 H         1 UNK         0.0600 
    212 H212       -0.6112  -23.0496  -51.0047 H         1 UNK         0.0600 
    213 H213       -0.5999  -22.6838  -52.7247 H         1 UNK         0.0600 
    214 H214       -0.3823  -24.3408  -52.1793 H         1 UNK         0.0600 
    215 H215       -4.9817  -23.3685  -52.1798 H         1 UNK         0.3000 
    216 H216       -5.2823  -20.5366  -52.2500 H         1 UNK         0.0600 
    217 H217       -6.4172  -20.3205  -50.0124 H         1 UNK         0.0600 
    218 H218       -4.7348  -20.7518  -49.7975 H         1 UNK         0.0600 
    219 H219       -5.9887  -21.9810  -49.6232 H         1 UNK         0.0600 
    220 H220       -7.7159  -20.0826  -51.9831 H         1 UNK         0.3000 
    221 H221       -9.8317  -20.3099  -52.5932 H         1 UNK         0.0600 
    222 H222       -9.5175  -23.0894  -51.3248 H         1 UNK         0.0600 
    223 H223       -9.9533  -21.5971  -50.5060 H         1 UNK         0.0600 
    224 H224      -11.0545  -22.3000  -51.6753 H         1 UNK         0.0600 
    225 H225       -9.8685  -23.7131  -53.2185 H         1 UNK         0.3000 
    226 H226      -10.7028  -23.4519  -55.9272 H         1 UNK         0.0600 
    227 H227      -11.3763  -25.3426  -54.4676 H         1 UNK         0.0600 
    228 H228      -10.5616  -25.9495  -55.9001 H         1 UNK         0.0600 
    229 H229       -9.7036  -25.8948  -54.3648 H         1 UNK         0.0600 
    230 H230       -7.5014  -23.7412  -54.5031 H         1 UNK         0.3000 
    231 H231       -6.1875  -24.2730  -57.1140 H         1 UNK         0.0600 
    232 H232       -4.1582  -24.5050  -55.7394 H         1 UNK         0.0600 
    233 H233       -5.4313  -25.4983  -55.0514 H         1 UNK         0.0600 
    234 H234       -5.0150  -23.9582  -54.3060 H         1 UNK         0.0600 
    235 H235       -7.5738  -21.6294  -55.8508 H         1 UNK         0.3000 
    236 H236       -7.4674  -19.4553  -55.9945 H         1 UNK         0.0600 
    237 H237       -5.2152  -19.8232  -58.0465 H         1 UNK         0.0600 
    238 H238       -6.9368  -19.6888  -58.3789 H         1 UNK         0.0600 
    239 H239       -6.0622  -18.3210  -57.7108 H         1 UNK         0.0600 
    240 H240       -3.9767  -20.0503  -56.3193 H         1 UNK         0.3000 
    241 H241       -3.4423  -19.6693  -53.5607 H         1 UNK         0.0600 
    242 H242       -1.2794  -21.9847  -55.7553 H         1 UNK         0.3800 
    243 H243       -2.9797  -21.6509  -55.9515 H         1 UNK         0.3800 
    244 H244       -1.9443  -17.5740  -55.1677 H         1 UNK         0.0800 
    245 H245       -3.5706  -17.2154  -54.6862 H         1 UNK         0.0800 
    246 H246       -0.3696  -15.9155  -53.2823 H         1 UNK         0.0800 
    247 H247       -0.0408  -17.5499  -53.8003 H         1 UNK         0.0800 
@<TRIPOS>BOND
     1    1    2 1    
     2    1  127 1    
     3    1  128 1    
     4    1  129 1    
     5    2    3 2    
     6    2    4 am   BACKBONE|DICT|INTERRES
     7    4    5 1    
     8    4  130 1    
     9    5    6 1    
    10    5   65 1    
    11    5  131 1    
    12    6    7 1    
    13    6  132 1    
    14    6  133 1    
    15    7    8 1    
    16    8    9 1    
    17    8  134 1    
    18    8  135 1    
    19    9   10 ar   
    20    9   14 ar   
    21   10   11 ar   
    22   10  136 1    
    23   11   12 ar   
    24   11  126 1    
    25   12   13 ar   
    26   12  137 1    
    27   13   14 ar   
    28   13   15 1    
    29   14  138 1    
    30   15   16 1    
    31   15  139 1    
    32   15  140 1    
    33   16   17 1    
    34   17   18 1    
    35   17  141 1    
    36   17  142 1    
    37   18   19 1    
    38   18   67 1    
    39   18  143 1    
    40   19   20 am   BACKBONE|DICT|INTERRES
    41   19  144 1    
    42   20   21 2    
    43   20   22 1    
    44   22   23 1    
    45   22   24 1    
    46   22  145 1    
    47   23  146 1    
    48   23  147 1    
    49   23  148 1    
    50   24   25 am   BACKBONE|DICT|INTERRES
    51   24  149 1    
    52   25   26 2    
    53   25   27 1    
    54   27   28 1    
    55   27   29 1    
    56   27  150 1    
    57   28  151 1    
    58   28  152 1    
    59   28  153 1    
    60   29   30 am   BACKBONE|DICT|INTERRES
    61   29  154 1    
    62   30   31 2    
    63   30   32 1    
    64   32   33 1    
    65   32   34 1    
    66   32  155 1    
    67   33  156 1    
    68   33  157 1    
    69   33  158 1    
    70   34   35 am   BACKBONE|DICT|INTERRES
    71   34  159 1    
    72   35   36 2    
    73   35   37 1    
    74   37   38 1    
    75   37   39 1    
    76   37  160 1    
    77   38  161 1    
    78   38  162 1    
    79   38  163 1    
    80   39   40 am   BACKBONE|DICT|INTERRES
    81   39  164 1    
    82   40   41 2    
    83   40   42 1    
    84   42   43 1    
    85   42   44 1    
    86   42  165 1    
    87   43  166 1    
    88   43  167 1    
    89   43  168 1    
    90   44   45 am   BACKBONE|DICT|INTERRES
    91   44  169 1    
    92   45   46 2    
    93   45   47 1    
    94   47   48 1    
    95   47   49 1    
    96   47  170 1    
    97   48  171 1    
    98   48  172 1    
    99   48  173 1    
   100   49   50 am   BACKBONE|DICT|INTERRES
   101   49  174 1    
   102   50   51 2    
   103   50   52 1    
   104   52   53 1    
   105   52   54 1    
   106   52  175 1    
   107   53  176 1    
   108   53  177 1    
   109   53  178 1    
   110   54   55 am   BACKBONE|DICT|INTERRES
   111   54  179 1    
   112   55   56 2    
   113   55   57 1    
   114   57   58 1    
   115   57   59 1    
   116   57  180 1    
   117   58  181 1    
   118   58  182 1    
   119   58  183 1    
   120   59   60 am   BACKBONE|DICT|INTERRES
   121   59  184 1    
   122   60   61 2    
   123   60   62 1    
   124   62   63 1    
   125   62   64 1    
   126   62  185 1    
   127   63  186 1    
   128   63  187 1    
   129   63  188 1    
   130   64   65 am   BACKBONE|DICT|INTERRES
   131   64  189 1    
   132   65   66 2    
   133   67   68 2    
   134   67   69 am   BACKBONE|DICT|INTERRES
   135   69   70 1    
   136   69  190 1    
   137   70   71 1    
   138   70   72 1    
   139   70  191 1    
   140   71  192 1    
   141   71  193 1    
   142   71  194 1    
   143   72   73 2    
   144   72   74 am   BACKBONE|DICT|INTERRES
   145   74   75 1    
   146   74  195 1    
   147   75   76 1    
   148   75   77 1    
   149   75  196 1    
   150   76  197 1    
   151   76  198 1    
   152   76  199 1    
   153   77   78 2    
   154   77   79 am   BACKBONE|DICT|INTERRES
   155   79   80 1    
   156   79  200 1    
   157   80   81 1    
   158   80   82 1    
   159   80  201 1    
   160   81  202 1    
   161   81  203 1    
   162   81  204 1    
   163   82   83 2    
   164   82   84 am   BACKBONE|DICT|INTERRES
   165   84   85 1    
   166   84  205 1    
   167   85   86 1    
   168   85   87 1    
   169   85  206 1    
   170   86  207 1    
   171   86  208 1    
   172   86  209 1    
   173   87   88 2    
   174   87   89 am   BACKBONE|DICT|INTERRES
   175   89   90 1    
   176   89  210 1    
   177   90   91 1    
   178   90   92 1    
   179   90  211 1    
   180   91  212 1    
   181   91  213 1    
   182   91  214 1    
   183   92   93 2    
   184   92   94 am   BACKBONE|DICT|INTERRES
   185   94   95 1    
   186   94  215 1    
   187   95   96 1    
   188   95   97 1    
   189   95  216 1    
   190   96  217 1    
   191   96  218 1    
   192   96  219 1    
   193   97   98 2    
   194   97   99 am   BACKBONE|DICT|INTERRES
   195   99  100 1    
   196   99  220 1    
   197  100  101 1    
   198  100  102 1    
   199  100  221 1    
   200  101  222 1    
   201  101  223 1    
   202  101  224 1    
   203  102  103 2    
   204  102  104 am   BACKBONE|DICT|INTERRES
   205  104  105 1    
   206  104  225 1    
   207  105  106 1    
   208  105  107 1    
   209  105  226 1    
   210  106  227 1    
   211  106  228 1    
   212  106  229 1    
   213  107  108 2    
   214  107  109 am   BACKBONE|DICT|INTERRES
   215  109  110 1    
   216  109  230 1    
   217  110  111 1    
   218  110  112 1    
   219  110  231 1    
   220  111  232 1    
   221  111  233 1    
   222  111  234 1    
   223  112  113 2    
   224  112  114 am   BACKBONE|DICT|INTERRES
   225  114  115 1    
   226  114  235 1    
   227  115  116 1    
   228  115  117 1    
   229  115  236 1    
   230  116  237 1    
   231  116  238 1    
   232  116  239 1    
   233  117  118 2    
   234  117  119 am   BACKBONE|DICT|INTERRES
   235  119  120 1    
   236  119  240 1    
   237  120  121 1    
   238  120  124 1    
   239  120  241 1    
   240  121  122 am   BACKBONE|DICT|INTERRES
   241  121  123 2    
   242  122  242 1    
   243  122  243 1    
   244  124  125 1    
   245  124  244 1    
   246  124  245 1    
   247  125  126 1    
   248  126  246 1    
   249  126  247 1    
@<TRIPOS>SUBSTRUCTURE
     1 UNK         1 GROUP             0       ****    0 ROOT    
