@<TRIPOS>MOLECULE
3R540
247   249    1
SMALL
USER_CHARGES


@<TRIPOS>ATOM
      1 CA          2.5707  -13.0426  -52.7494 C.3       0 UNK        -0.1800 
      2 C           2.9973  -12.9466  -51.2916 C.2       0 UNK         0.5000 
      3 O           2.1482  -13.0620  -50.4097 O.2       0 UNK        -0.5000 
      4 N           4.3040  -12.7439  -51.0569 N.am      1 UNK        -0.5000 
      5 CA          4.9944  -12.6350  -49.7612 C.3       1 UNK         0.1400 
      6 C6          5.4985  -14.0006  -49.1992 C.3       23 UNK        -0.0398 
      7 S7          4.2231  -15.2610  -48.8358 S.3       23 UNK        -0.2404 
      8 C8          4.3454  -16.2976  -50.3280 C.3       23 UNK        -0.0205 
      9 C9          3.1864  -17.2759  -50.4413 C.ar      23 UNK        -0.0193 
     10 C10         1.8878  -16.7977  -50.6330 C.ar      23 UNK        -0.1150 
     11 C11         0.8130  -17.6802  -50.7716 C.ar      23 UNK        -0.0193 
     12 C12         1.0505  -19.0574  -50.7192 C.ar      23 UNK        -0.1150 
     13 C13         2.3493  -19.5528  -50.5623 C.ar      23 UNK        -0.0193 
     14 C14         3.4123  -18.6553  -50.4144 C.ar      23 UNK        -0.1150 
     15 C15         2.6001  -21.0568  -50.6189 C.3       23 UNK        -0.0205 
     16 S16         3.5309  -21.7076  -49.1920 S.3       23 UNK        -0.2404 
     17 C17         2.4508  -21.2465  -47.8002 C.3       23 UNK        -0.0398 
     18 CA          1.5404  -22.3941  -47.3020 C.3       11 UNK         0.1400 
     19 N           1.0691  -22.1429  -45.9394 N.am      11 UNK        -0.5000 
     20 C           0.4000  -23.0165  -45.1752 C.2       10 UNK         0.5000 
     21 O           0.1633  -24.1780  -45.5076 O.2       10 UNK        -0.5000 
     22 CA         -0.1230  -22.4899  -43.8248 C.3       10 UNK         0.1400 
     23 CB          0.9554  -22.6199  -42.7391 C.3       10 UNK        -0.1800 
     24 N          -0.5867  -21.1016  -43.8931 N.am      10 UNK        -0.5000 
     25 C          -1.6177  -20.6785  -44.6393 C.2       9 UNK         0.5000 
     26 O          -2.3174  -21.4265  -45.3186 O.2       9 UNK        -0.5000 
     27 CA         -1.8685  -19.1612  -44.6960 C.3       9 UNK         0.1400 
     28 CB         -2.5828  -18.6645  -43.4315 C.3       9 UNK        -0.1800 
     29 N          -0.6382  -18.3996  -44.9098 N.am      9 UNK        -0.5000 
     30 C           0.1411  -18.5211  -45.9941 C.2       8 UNK         0.5000 
     31 O          -0.1326  -19.2447  -46.9513 O.2       8 UNK        -0.5000 
     32 CA          1.4758  -17.7581  -45.9801 C.3       8 UNK         0.1400 
     33 CB          1.2921  -16.3109  -46.4518 C.3       8 UNK        -0.1800 
     34 N           2.0914  -17.7739  -44.6528 N.am      8 UNK        -0.5000 
     35 C           2.6341  -18.8654  -44.0946 C.2       7 UNK         0.5000 
     36 O           2.6932  -19.9598  -44.6538 O.2       7 UNK        -0.5000 
     37 CA          3.1571  -18.7217  -42.6542 C.3       7 UNK         0.1400 
     38 CB          4.5283  -18.0295  -42.6384 C.3       7 UNK        -0.1800 
     39 N           2.2310  -17.9867  -41.7930 N.am      7 UNK        -0.5000 
     40 C           1.0048  -18.4122  -41.4570 C.2       6 UNK         0.5000 
     41 O           0.5401  -19.4969  -41.8025 O.2       6 UNK        -0.5000 
     42 CA          0.1344  -17.4478  -40.6296 C.3       6 UNK         0.1400 
     43 CB          0.3312  -17.7009  -39.1277 C.3       6 UNK        -0.1800 
     44 N           0.3902  -16.0350  -40.9200 N.am      6 UNK        -0.5000 
     45 C           0.2161  -15.4525  -42.1137 C.2       5 UNK         0.5000 
     46 O          -0.1630  -16.0530  -43.1232 O.2       5 UNK        -0.5000 
     47 CA          0.6077  -13.9683  -42.1904 C.3       5 UNK         0.1400 
     48 CB          2.1173  -13.8352  -42.4492 C.3       5 UNK        -0.1800 
     49 N          -0.1310  -13.2589  -43.2341 N.am      5 UNK        -0.5000 
     50 C          -1.4111  -12.8752  -43.1199 C.2       4 UNK         0.5000 
     51 O          -2.0911  -13.0908  -42.1149 O.2       4 UNK        -0.5000 
     52 CA         -2.0435  -12.0841  -44.2843 C.3       4 UNK         0.1400 
     53 CB         -2.2415  -10.6127  -43.8852 C.3       4 UNK        -0.1800 
     54 N          -1.2568  -12.1243  -45.5159 N.am      4 UNK        -0.5000 
     55 C          -1.3050  -13.1099  -46.4196 C.2       3 UNK         0.5000 
     56 O          -2.0642  -14.0763  -46.3349 O.2       3 UNK        -0.5000 
     57 CA         -0.3538  -12.9983  -47.6297 C.3       3 UNK         0.1400 
     58 CB         -1.1100  -12.4136  -48.8328 C.3       3 UNK        -0.1800 
     59 N           0.8721  -12.2162  -47.4219 N.am      3 UNK        -0.5000 
     60 C           1.7769  -12.4070  -46.4535 C.2       2 UNK         0.5000 
     61 O           1.6318  -13.2072  -45.5320 O.2       2 UNK        -0.5000 
     62 CA          3.0775  -11.6020  -46.5699 C.3       2 UNK         0.1400 
     63 CB          3.8666  -11.5579  -45.2486 C.3       2 UNK        -0.1800 
     64 N           3.8912  -12.2544  -47.5870 N.am      2 UNK        -0.5000 
     65 C           4.2614  -11.7164  -48.7524 C.2       1 UNK         0.5000 
     66 O           4.0502  -10.5402  -49.0581 O.2       1 UNK        -0.5000 
     67 C           0.3652  -22.6654  -48.2664 C.2       11 UNK         0.5000 
     68 O           0.3934  -23.6588  -48.9923 O.2       11 UNK        -0.5000 
     69 N          -0.6644  -21.8069  -48.2332 N.am      12 UNK        -0.5000 
     70 CA         -1.8862  -21.9637  -49.0253 C.3       12 UNK         0.1400 
     71 CB         -2.6955  -20.6620  -48.9843 C.3       12 UNK        -0.1800 
     72 C          -2.7425  -23.1649  -48.5827 C.2       12 UNK         0.5000 
     73 O          -3.3139  -23.8474  -49.4341 O.2       12 UNK        -0.5000 
     74 N          -2.7892  -23.4389  -47.2708 N.am      13 UNK        -0.5000 
     75 CA         -3.5070  -24.5665  -46.6672 C.3       13 UNK         0.1400 
     76 CB         -3.4687  -24.4557  -45.1369 C.3       13 UNK        -0.1800 
     77 C          -3.0064  -25.9524  -47.1181 C.2       13 UNK         0.5000 
     78 O          -3.7794  -26.9090  -47.0654 O.2       13 UNK        -0.5000 
     79 N          -1.7650  -26.0402  -47.6187 N.am      14 UNK        -0.5000 
     80 CA         -1.2188  -27.2349  -48.2717 C.3       14 UNK         0.1400 
     81 CB          0.2848  -27.0412  -48.5151 C.3       14 UNK        -0.1800 
     82 C          -1.9429  -27.5913  -49.5897 C.2       14 UNK         0.5000 
     83 O          -1.9367  -28.7572  -49.9852 O.2       14 UNK        -0.5000 
     84 N          -2.5822  -26.5951  -50.2183 N.am      15 UNK        -0.5000 
     85 CA         -3.4723  -26.7322  -51.3712 C.3       15 UNK         0.1400 
     86 CB         -3.0123  -25.7522  -52.4647 C.3       15 UNK        -0.1800 
     87 C          -4.9396  -26.4757  -50.9643 C.2       15 UNK         0.5000 
     88 O          -5.7519  -26.1032  -51.8127 O.2       15 UNK        -0.5000 
     89 N          -5.2503  -26.6248  -49.6649 N.am      16 UNK        -0.5000 
     90 CA         -6.5496  -26.4035  -49.0132 C.3       16 UNK         0.1400 
     91 CB         -7.5687  -27.4595  -49.4887 C.3       16 UNK        -0.1800 
     92 C          -7.0949  -24.9641  -49.1550 C.2       16 UNK         0.5000 
     93 O          -8.2962  -24.7507  -48.9877 O.2       16 UNK        -0.5000 
     94 N          -6.2119  -24.0122  -49.4971 N.am      17 UNK        -0.5000 
     95 CA         -6.4875  -22.6293  -49.8988 C.3       17 UNK         0.1400 
     96 CB         -7.0509  -21.8114  -48.7194 C.3       17 UNK        -0.1800 
     97 C          -7.3397  -22.5053  -51.1835 C.2       17 UNK         0.5000 
     98 O          -7.8420  -21.4186  -51.4723 O.2       17 UNK        -0.5000 
     99 N          -7.4687  -23.5998  -51.9505 N.am      18 UNK        -0.5000 
    100 CA        -8.1586  -23.6383  -53.2415 C.3       18 UNK         0.1400 
    101 CB        -8.5588  -25.0872  -53.5580 C.3       18 UNK        -0.1800 
    102 C         -7.2871  -23.0541  -54.3676 C.2       18 UNK         0.5000 
    103 O         -7.8220  -22.5346  -55.3479 O.2       18 UNK        -0.5000 
    104 N         -5.9649  -23.1245  -54.1826 N.am      19 UNK        -0.5000 
    105 CA        -4.9553  -22.4124  -54.9517 C.3       19 UNK         0.1400 
    106 CB        -3.9979  -23.4277  -55.5936 C.3       19 UNK        -0.1800 
    107 C         -4.1993  -21.4918  -53.9837 C.2       19 UNK         0.5000 
    108 O         -4.1449  -21.7729  -52.7813 O.2       19 UNK        -0.5000 
    109 N         -3.6352  -20.4058  -54.5263 N.am      20 UNK        -0.5000 
    110 CA        -2.8568  -19.3510  -53.8614 C.3       20 UNK         0.1400 
    111 CB        -1.6184  -19.9394  -53.1587 C.3       20 UNK        -0.1800 
    112 C         -3.6957  -18.4521  -52.9246 C.2       20 UNK         0.5000 
    113 O         -3.6215  -17.2298  -53.0428 O.2       20 UNK        -0.5000 
    114 N         -4.5086  -19.0730  -52.0585 N.am      21 UNK        -0.5000 
    115 CA        -5.5839  -18.4882  -51.2464 C.3       21 UNK         0.1400 
    116 CB        -6.7337  -18.0124  -52.1583 C.3       21 UNK        -0.1800 
    117 C         -5.1419  -17.4097  -50.2306 C.2       21 UNK         0.5000 
    118 O         -5.9245  -16.5138  -49.9067 O.2       21 UNK        -0.5000 
    119 N         -3.9097  -17.5260  -49.7241 N.am      22 UNK        -0.5000 
    120 CA        -3.3827  -16.7206  -48.6088 C.3       22 UNK         0.1400 
    121 C         -3.9892  -17.1229  -47.2325 C.2       22 UNK         0.5000 
    122 N         -3.7704  -16.3239  -46.1971 N.am      22 UNK        -0.7600 
    123 O         -4.6420  -18.1534  -47.0817 O.2       22 UNK        -0.5000 
    124 C124       -1.8339  -16.7433  -48.5791 C.3       23 UNK        -0.0398 
    125 S125       -1.1250  -15.8151  -49.9750 S.3       23 UNK        -0.2404 
    126 C126       -0.5842  -17.1539  -51.0778 C.3       23 UNK        -0.0205 
    127 H127        3.4153  -12.9317  -53.4299 H         1 UNK         0.0600 
    128 H128        1.8431  -12.2641  -52.9791 H         1 UNK         0.0600 
    129 H129        2.1066  -14.0107  -52.9384 H         1 UNK         0.0600 
    130 H130        4.9103  -12.6304  -51.8566 H         1 UNK         0.3000 
    131 H131        5.9006  -12.0745  -49.9963 H         1 UNK         0.0600 
    132 H132        6.0792  -13.8378  -48.2897 H         1 UNK         0.0800 
    133 H133        6.2115  -14.4286  -49.9049 H         1 UNK         0.0800 
    134 H134        4.3536  -15.6647  -51.2159 H         1 UNK         0.0800 
    135 H135        5.2998  -16.8260  -50.3157 H         1 UNK         0.0800 
    136 H136        1.7162  -15.7317  -50.6857 H         1 UNK         0.1150 
    137 H137        0.2288  -19.7481  -50.8421 H         1 UNK         0.1150 
    138 H138        4.4179  -19.0343  -50.2988 H         1 UNK         0.1150 
    139 H139        1.6603  -21.6036  -50.7067 H         1 UNK         0.0800 
    140 H140        3.1619  -21.2777  -51.5271 H         1 UNK         0.0800 
    141 H141        1.8747  -20.3562  -48.0467 H         1 UNK         0.0800 
    142 H142        3.1247  -20.9435  -46.9993 H         1 UNK         0.0800 
    143 H143        2.1414  -23.3050  -47.2565 H         1 UNK         0.0600 
    144 H144        1.2676  -21.2258  -45.5566 H         1 UNK         0.3000 
    145 H145       -0.9725  -23.1087  -43.5315 H         1 UNK         0.0600 
    146 H146        1.3106  -23.6482  -42.6612 H         1 UNK         0.0600 
    147 H147        1.8184  -21.9880  -42.9509 H         1 UNK         0.0600 
    148 H148        0.5656  -22.3358  -41.7615 H         1 UNK         0.0600 
    149 H149       -0.0867  -20.4291  -43.3168 H         1 UNK         0.3000 
    150 H150       -2.5201  -18.9725  -45.5493 H         1 UNK         0.0600 
    151 H151       -2.7396  -17.5861  -43.4624 H         1 UNK         0.0600 
    152 H152       -2.0164  -18.8964  -42.5309 H         1 UNK         0.0600 
    153 H153       -3.5614  -19.1353  -43.3314 H         1 UNK         0.0600 
    154 H154       -0.3709  -17.7388  -44.1866 H         1 UNK         0.3000 
    155 H155        2.1553  -18.2519  -46.6781 H         1 UNK         0.0600 
    156 H156        0.9588  -16.2829  -47.4896 H         1 UNK         0.0600 
    157 H157        2.2309  -15.7593  -46.4047 H         1 UNK         0.0600 
    158 H158        0.5574  -15.7758  -45.8486 H         1 UNK         0.0600 
    159 H159        2.0205  -16.9260  -44.1097 H         1 UNK         0.3000 
    160 H160        3.2766  -19.7260  -42.2420 H         1 UNK         0.0600 
    161 H161        5.2421  -18.5645  -43.2663 H         1 UNK         0.0600 
    162 H162        4.9428  -17.9994  -41.6306 H         1 UNK         0.0600 
    163 H163        4.4693  -17.0049  -43.0080 H         1 UNK         0.0600 
    164 H164        2.5331  -17.0833  -41.4609 H         1 UNK         0.3000 
    165 H165       -0.9095  -17.6504  -40.8738 H         1 UNK         0.0600 
    166 H166       -0.3428  -17.0854  -38.5317 H         1 UNK         0.0600 
    167 H167        0.1242  -18.7424  -38.8774 H         1 UNK         0.0600 
    168 H168        1.3527  -17.4844  -38.8125 H         1 UNK         0.0600 
    169 H169        0.7183  -15.4739  -40.1471 H         1 UNK         0.3000 
    170 H170        0.3830  -13.4957  -41.2317 H         1 UNK         0.0600 
    171 H171        2.4078  -12.7921  -42.5742 H         1 UNK         0.0600 
    172 H172        2.6943  -14.2341  -41.6142 H         1 UNK         0.0600 
    173 H173        2.4242  -14.3783  -43.3437 H         1 UNK         0.0600 
    174 H174        0.3578  -13.1283  -44.1155 H         1 UNK         0.3000 
    175 H175       -3.0277  -12.5173  -44.4752 H         1 UNK         0.0600 
    176 H176       -1.2906  -10.1213  -43.6755 H         1 UNK         0.0600 
    177 H177       -2.7423  -10.0535  -44.6758 H         1 UNK         0.0600 
    178 H178       -2.8589  -10.5286  -42.9899 H         1 UNK         0.0600 
    179 H179       -0.6012  -11.3715  -45.6633 H         1 UNK         0.3000 
    180 H180       -0.0394  -14.0118  -47.8807 H         1 UNK         0.0600 
    181 H181       -0.5075  -12.4661  -49.7398 H         1 UNK         0.0600 
    182 H182       -1.3834  -11.3708  -48.6680 H         1 UNK         0.0600 
    183 H183       -2.0296  -12.9677  -49.0267 H         1 UNK         0.0600 
    184 H184        1.1108  -11.5788  -48.1684 H         1 UNK         0.3000 
    185 H185        2.8205  -10.5792  -46.8531 H         1 UNK         0.0600 
    186 H186        4.1617  -12.5543  -44.9168 H         1 UNK         0.0600 
    187 H187        4.7721  -10.9602  -45.3532 H         1 UNK         0.0600 
    188 H188        3.2698  -11.1093  -44.4535 H         1 UNK         0.0600 
    189 H189        4.0298  -13.2490  -47.4610 H         1 UNK         0.3000 
    190 H190       -0.6057  -20.9901  -47.6299 H         1 UNK         0.3000 
    191 H191       -1.5943  -22.1408  -50.0629 H         1 UNK         0.0600 
    192 H192       -2.9662  -20.3859  -47.9642 H         1 UNK         0.0600 
    193 H193       -3.6173  -20.7527  -49.5597 H         1 UNK         0.0600 
    194 H194       -2.1210  -19.8438  -49.4148 H         1 UNK         0.0600 
    195 H195       -2.3583  -22.7836  -46.6229 H         1 UNK         0.3000 
    196 H196       -4.5499  -24.4872  -46.9802 H         1 UNK         0.0600 
    197 H197       -4.0316  -25.2661  -44.6718 H         1 UNK         0.0600 
    198 H198       -3.9114  -23.5202  -44.7955 H         1 UNK         0.0600 
    199 H199       -2.4490  -24.5078  -44.7579 H         1 UNK         0.0600 
    200 H200       -1.1816  -25.2136  -47.6162 H         1 UNK         0.3000 
    201 H201       -1.3465  -28.0756  -47.5868 H         1 UNK         0.0600 
    202 H202        0.8039  -26.7633  -47.5974 H         1 UNK         0.0600 
    203 H203        0.4750  -26.2666  -49.2580 H         1 UNK         0.0600 
    204 H204        0.7399  -27.9618  -48.8822 H         1 UNK         0.0600 
    205 H205       -2.5523  -25.6648  -49.8128 H         1 UNK         0.3000 
    206 H206       -3.4242  -27.7448  -51.7756 H         1 UNK         0.0600 
    207 H207       -3.5970  -25.8845  -53.3754 H         1 UNK         0.0600 
    208 H208       -3.1217  -24.7136  -52.1483 H         1 UNK         0.0600 
    209 H209       -1.9666  -25.9146  -52.7261 H         1 UNK         0.0600 
    210 H210       -4.5113  -26.9134  -49.0344 H         1 UNK         0.3000 
    211 H211       -6.3867  -26.5586  -47.9460 H         1 UNK         0.0600 
    212 H212       -7.8375  -27.3194  -50.5363 H         1 UNK         0.0600 
    213 H213       -8.4892  -27.4088  -48.9060 H         1 UNK         0.0600 
    214 H214       -7.1723  -28.4686  -49.3759 H         1 UNK         0.0600 
    215 H215       -5.2371  -24.2819  -49.5899 H         1 UNK         0.3000 
    216 H216       -5.5183  -22.2013  -50.1569 H         1 UNK         0.0600 
    217 H217       -7.1199  -20.7528  -48.9709 H         1 UNK         0.0600 
    218 H218       -6.4069  -21.8920  -47.8435 H         1 UNK         0.0600 
    219 H219       -8.0496  -22.1434  -48.4355 H         1 UNK         0.0600 
    220 H220       -6.9998  -24.4543  -51.6684 H         1 UNK         0.3000 
    221 H221       -9.0691  -23.0391  -53.1734 H         1 UNK         0.0600 
    222 H222       -7.6863  -25.7308  -53.6753 H         1 UNK         0.0600 
    223 H223       -9.1807  -25.5068  -52.7669 H         1 UNK         0.0600 
    224 H224       -9.1308  -25.1391  -54.4851 H         1 UNK         0.0600 
    225 H225       -5.6328  -23.5121  -53.3099 H         1 UNK         0.3000 
    226 H226       -5.4173  -21.8053  -55.7330 H         1 UNK         0.0600 
    227 H227       -4.5375  -24.1337  -56.2251 H         1 UNK         0.0600 
    228 H228       -3.2611  -22.9258  -56.2217 H         1 UNK         0.0600 
    229 H229       -3.4517  -23.9985  -54.8427 H         1 UNK         0.0600 
    230 H230       -3.7658  -20.2615  -55.5181 H         1 UNK         0.3000 
    231 H231       -2.4947  -18.7131  -54.6694 H         1 UNK         0.0600 
    232 H232       -1.8646  -20.3920  -52.1976 H         1 UNK         0.0600 
    233 H233       -1.1397  -20.7027  -53.7723 H         1 UNK         0.0600 
    234 H234       -0.8726  -19.1656  -52.9882 H         1 UNK         0.0600 
    235 H235       -4.4706  -20.0898  -52.0729 H         1 UNK         0.3000 
    236 H236       -5.9730  -19.3094  -50.6437 H         1 UNK         0.0600 
    237 H237       -6.4381  -17.1576  -52.7673 H         1 UNK         0.0600 
    238 H238       -7.0573  -18.8087  -52.8291 H         1 UNK         0.0600 
    239 H239       -7.6042  -17.7147  -51.5727 H         1 UNK         0.0600 
    240 H240       -3.3407  -18.2964  -50.0335 H         1 UNK         0.3000 
    241 H241       -3.6965  -15.6878  -48.7749 H         1 UNK         0.0600 
    242 H242       -4.1654  -16.5660  -45.3039 H         1 UNK         0.3800 
    243 H243       -3.2021  -15.4808  -46.2781 H         1 UNK         0.3800 
    244 H244       -1.4531  -16.2832  -47.6677 H         1 UNK         0.0800 
    245 H245       -1.4564  -17.7644  -48.5780 H         1 UNK         0.0800 
    246 H246       -0.5915  -16.7774  -52.1013 H         1 UNK         0.0800 
    247 H247       -1.3201  -17.9555  -51.0390 H         1 UNK         0.0800 
@<TRIPOS>BOND
     1    1    2 1    
     2    1  127 1    
     3    1  128 1    
     4    1  129 1    
     5    2    3 2    
     6    2    4 am   BACKBONE|DICT|INTERRES
     7    4    5 1    
     8    4  130 1    
     9    5    6 1    
    10    5   65 1    
    11    5  131 1    
    12    6    7 1    
    13    6  132 1    
    14    6  133 1    
    15    7    8 1    
    16    8    9 1    
    17    8  134 1    
    18    8  135 1    
    19    9   10 ar   
    20    9   14 ar   
    21   10   11 ar   
    22   10  136 1    
    23   11   12 ar   
    24   11  126 1    
    25   12   13 ar   
    26   12  137 1    
    27   13   14 ar   
    28   13   15 1    
    29   14  138 1    
    30   15   16 1    
    31   15  139 1    
    32   15  140 1    
    33   16   17 1    
    34   17   18 1    
    35   17  141 1    
    36   17  142 1    
    37   18   19 1    
    38   18   67 1    
    39   18  143 1    
    40   19   20 am   BACKBONE|DICT|INTERRES
    41   19  144 1    
    42   20   21 2    
    43   20   22 1    
    44   22   23 1    
    45   22   24 1    
    46   22  145 1    
    47   23  146 1    
    48   23  147 1    
    49   23  148 1    
    50   24   25 am   BACKBONE|DICT|INTERRES
    51   24  149 1    
    52   25   26 2    
    53   25   27 1    
    54   27   28 1    
    55   27   29 1    
    56   27  150 1    
    57   28  151 1    
    58   28  152 1    
    59   28  153 1    
    60   29   30 am   BACKBONE|DICT|INTERRES
    61   29  154 1    
    62   30   31 2    
    63   30   32 1    
    64   32   33 1    
    65   32   34 1    
    66   32  155 1    
    67   33  156 1    
    68   33  157 1    
    69   33  158 1    
    70   34   35 am   BACKBONE|DICT|INTERRES
    71   34  159 1    
    72   35   36 2    
    73   35   37 1    
    74   37   38 1    
    75   37   39 1    
    76   37  160 1    
    77   38  161 1    
    78   38  162 1    
    79   38  163 1    
    80   39   40 am   BACKBONE|DICT|INTERRES
    81   39  164 1    
    82   40   41 2    
    83   40   42 1    
    84   42   43 1    
    85   42   44 1    
    86   42  165 1    
    87   43  166 1    
    88   43  167 1    
    89   43  168 1    
    90   44   45 am   BACKBONE|DICT|INTERRES
    91   44  169 1    
    92   45   46 2    
    93   45   47 1    
    94   47   48 1    
    95   47   49 1    
    96   47  170 1    
    97   48  171 1    
    98   48  172 1    
    99   48  173 1    
   100   49   50 am   BACKBONE|DICT|INTERRES
   101   49  174 1    
   102   50   51 2    
   103   50   52 1    
   104   52   53 1    
   105   52   54 1    
   106   52  175 1    
   107   53  176 1    
   108   53  177 1    
   109   53  178 1    
   110   54   55 am   BACKBONE|DICT|INTERRES
   111   54  179 1    
   112   55   56 2    
   113   55   57 1    
   114   57   58 1    
   115   57   59 1    
   116   57  180 1    
   117   58  181 1    
   118   58  182 1    
   119   58  183 1    
   120   59   60 am   BACKBONE|DICT|INTERRES
   121   59  184 1    
   122   60   61 2    
   123   60   62 1    
   124   62   63 1    
   125   62   64 1    
   126   62  185 1    
   127   63  186 1    
   128   63  187 1    
   129   63  188 1    
   130   64   65 am   BACKBONE|DICT|INTERRES
   131   64  189 1    
   132   65   66 2    
   133   67   68 2    
   134   67   69 am   BACKBONE|DICT|INTERRES
   135   69   70 1    
   136   69  190 1    
   137   70   71 1    
   138   70   72 1    
   139   70  191 1    
   140   71  192 1    
   141   71  193 1    
   142   71  194 1    
   143   72   73 2    
   144   72   74 am   BACKBONE|DICT|INTERRES
   145   74   75 1    
   146   74  195 1    
   147   75   76 1    
   148   75   77 1    
   149   75  196 1    
   150   76  197 1    
   151   76  198 1    
   152   76  199 1    
   153   77   78 2    
   154   77   79 am   BACKBONE|DICT|INTERRES
   155   79   80 1    
   156   79  200 1    
   157   80   81 1    
   158   80   82 1    
   159   80  201 1    
   160   81  202 1    
   161   81  203 1    
   162   81  204 1    
   163   82   83 2    
   164   82   84 am   BACKBONE|DICT|INTERRES
   165   84   85 1    
   166   84  205 1    
   167   85   86 1    
   168   85   87 1    
   169   85  206 1    
   170   86  207 1    
   171   86  208 1    
   172   86  209 1    
   173   87   88 2    
   174   87   89 am   BACKBONE|DICT|INTERRES
   175   89   90 1    
   176   89  210 1    
   177   90   91 1    
   178   90   92 1    
   179   90  211 1    
   180   91  212 1    
   181   91  213 1    
   182   91  214 1    
   183   92   93 2    
   184   92   94 am   BACKBONE|DICT|INTERRES
   185   94   95 1    
   186   94  215 1    
   187   95   96 1    
   188   95   97 1    
   189   95  216 1    
   190   96  217 1    
   191   96  218 1    
   192   96  219 1    
   193   97   98 2    
   194   97   99 am   BACKBONE|DICT|INTERRES
   195   99  100 1    
   196   99  220 1    
   197  100  101 1    
   198  100  102 1    
   199  100  221 1    
   200  101  222 1    
   201  101  223 1    
   202  101  224 1    
   203  102  103 2    
   204  102  104 am   BACKBONE|DICT|INTERRES
   205  104  105 1    
   206  104  225 1    
   207  105  106 1    
   208  105  107 1    
   209  105  226 1    
   210  106  227 1    
   211  106  228 1    
   212  106  229 1    
   213  107  108 2    
   214  107  109 am   BACKBONE|DICT|INTERRES
   215  109  110 1    
   216  109  230 1    
   217  110  111 1    
   218  110  112 1    
   219  110  231 1    
   220  111  232 1    
   221  111  233 1    
   222  111  234 1    
   223  112  113 2    
   224  112  114 am   BACKBONE|DICT|INTERRES
   225  114  115 1    
   226  114  235 1    
   227  115  116 1    
   228  115  117 1    
   229  115  236 1    
   230  116  237 1    
   231  116  238 1    
   232  116  239 1    
   233  117  118 2    
   234  117  119 am   BACKBONE|DICT|INTERRES
   235  119  120 1    
   236  119  240 1    
   237  120  121 1    
   238  120  124 1    
   239  120  241 1    
   240  121  122 am   BACKBONE|DICT|INTERRES
   241  121  123 2    
   242  122  242 1    
   243  122  243 1    
   244  124  125 1    
   245  124  244 1    
   246  124  245 1    
   247  125  126 1    
   248  126  246 1    
   249  126  247 1    
@<TRIPOS>SUBSTRUCTURE
     1 UNK         1 GROUP             0       ****    0 ROOT    
