@<TRIPOS>MOLECULE
3R540
247   249    1
SMALL
USER_CHARGES


@<TRIPOS>ATOM
      1 CA          6.8128  -12.5992  -47.4962 C.3       0 UNK        -0.1800 
      2 C           5.4058  -12.7253  -46.9292 C.2       0 UNK         0.5000 
      3 O           4.8563  -11.7422  -46.4331 O.2       0 UNK        -0.5000 
      4 N           4.8315  -13.9337  -46.9960 N.am      1 UNK        -0.5000 
      5 CA          3.4865  -14.2768  -46.5141 C.3       1 UNK         0.1400 
      6 C6          3.1825  -15.8036  -46.5693 C.3       23 UNK        -0.0398 
      7 S7          4.5851  -16.9232  -46.1991 S.3       23 UNK        -0.2404 
      8 C8          5.3911  -17.1361  -47.8296 C.3       23 UNK        -0.0205 
      9 C9          4.7242  -18.1718  -48.7287 C.ar      23 UNK        -0.0193 
     10 C10         3.6069  -17.8274  -49.4938 C.ar      23 UNK        -0.1150 
     11 C11         3.0081  -18.7541  -50.3487 C.ar      23 UNK        -0.0193 
     12 C12         3.5762  -20.0242  -50.4886 C.ar      23 UNK        -0.1150 
     13 C13         4.7228  -20.3736  -49.7642 C.ar      23 UNK        -0.0193 
     14 C14         5.2737  -19.4518  -48.8660 C.ar      23 UNK        -0.1150 
     15 C15         5.4179  -21.7098  -50.0118 C.3       23 UNK        -0.0205 
     16 S16         4.9755  -22.9998  -48.8038 S.3       23 UNK        -0.2404 
     17 C17         3.2887  -23.4212  -49.3562 C.3       23 UNK        -0.0398 
     18 CA          2.4765  -24.2991  -48.3632 C.3       11 UNK         0.1400 
     19 N           2.6523  -23.8709  -46.9753 N.am      11 UNK        -0.5000 
     20 C           2.0708  -24.3931  -45.8872 C.2       10 UNK         0.5000 
     21 O           1.3193  -25.3671  -45.8989 O.2       10 UNK        -0.5000 
     22 CA          2.3358  -23.6492  -44.5651 C.3       10 UNK         0.1400 
     23 CB          3.5806  -24.2167  -43.8677 C.3       10 UNK        -0.1800 
     24 N           2.4943  -22.2006  -44.7354 N.am      10 UNK        -0.5000 
     25 C           1.5810  -21.3884  -45.2849 C.2       9 UNK         0.5000 
     26 O           0.4974  -21.7758  -45.7268 O.2       9 UNK        -0.5000 
     27 CA          1.9393  -19.8956  -45.3517 C.3       9 UNK         0.1400 
     28 CB          1.6670  -19.3317  -46.7548 C.3       9 UNK        -0.1800 
     29 N           1.1587  -19.1521  -44.3696 N.am      9 UNK        -0.5000 
     30 C           1.2880  -19.2629  -43.0396 C.2       8 UNK         0.5000 
     31 O           2.1773  -19.9146  -42.4904 O.2       8 UNK        -0.5000 
     32 CA          0.2459  -18.5347  -42.1732 C.3       8 UNK         0.1400 
     33 CB          0.8051  -17.1933  -41.6756 C.3       8 UNK        -0.1800 
     34 N          -1.0043  -18.3080  -42.9022 N.am      8 UNK        -0.5000 
     35 C          -1.9854  -19.2165  -43.0121 C.2       7 UNK         0.5000 
     36 O          -1.9601  -20.3128  -42.4522 O.2       7 UNK        -0.5000 
     37 CA         -3.2059  -18.8500  -43.8799 C.3       7 UNK         0.1400 
     38 CB         -4.3778  -18.3918  -42.9989 C.3       7 UNK        -0.1800 
     39 N          -2.9209  -17.8069  -44.8661 N.am      7 UNK        -0.5000 
     40 C          -2.2772  -18.0134  -46.0232 C.2       6 UNK         0.5000 
     41 O          -1.9354  -19.1249  -46.4176 O.2       6 UNK        -0.5000 
     42 CA         -1.9380  -16.7694  -46.8703 C.3       6 UNK         0.1400 
     43 CB         -3.0041  -16.5619  -47.9542 C.3       6 UNK        -0.1800 
     44 N          -1.8013  -15.5352  -46.0882 N.am      6 UNK        -0.5000 
     45 C          -0.8956  -15.3384  -45.1193 C.2       5 UNK         0.5000 
     46 O          -0.0806  -16.1950  -44.7761 O.2       5 UNK        -0.5000 
     47 CA         -0.9444  -13.9832  -44.3954 C.3       5 UNK         0.1400 
     48 CB          0.3230  -13.6850  -43.5742 C.3       5 UNK        -0.1800 
     49 N          -1.1649  -12.9099  -45.3600 N.am      5 UNK        -0.5000 
     50 C          -2.1434  -12.0006  -45.2850 C.2       4 UNK         0.5000 
     51 O          -2.9738  -11.9562  -44.3765 O.2       4 UNK        -0.5000 
     52 CA         -2.2216  -10.9714  -46.4256 C.3       4 UNK         0.1400 
     53 CB         -1.2695   -9.7964  -46.1543 C.3       4 UNK        -0.1800 
     54 N          -1.9269  -11.5269  -47.7468 N.am      4 UNK        -0.5000 
     55 C          -2.6435  -12.4667  -48.3823 C.2       3 UNK         0.5000 
     56 O          -3.6175  -13.0379  -47.8924 O.2       3 UNK        -0.5000 
     57 CA         -2.1967  -12.8182  -49.8155 C.3       3 UNK         0.1400 
     58 CB         -2.9713  -11.9706  -50.8355 C.3       3 UNK        -0.1800 
     59 N          -0.7623  -12.6076  -50.0133 N.am      3 UNK        -0.5000 
     60 C           0.1875  -13.4034  -49.5072 C.2       2 UNK         0.5000 
     61 O          -0.0563  -14.4844  -48.9677 O.2       2 UNK        -0.5000 
     62 CA          1.6452  -12.8987  -49.6205 C.3       2 UNK         0.1400 
     63 CB          1.7624  -11.3591  -49.5515 C.3       2 UNK        -0.1800 
     64 N           2.5394  -13.5048  -48.6293 N.am      2 UNK        -0.5000 
     65 C           2.3977  -13.5051  -47.2927 C.2       1 UNK         0.5000 
     66 O           1.4862  -12.9366  -46.6890 O.2       1 UNK        -0.5000 
     67 C           0.9897  -24.2753  -48.7687 C.2       11 UNK         0.5000 
     68 O           0.4385  -25.2889  -49.1984 O.2       11 UNK        -0.5000 
     69 N           0.3737  -23.0986  -48.5996 N.am      12 UNK        -0.5000 
     70 CA         -1.0043  -22.8214  -48.9775 C.3       12 UNK         0.1400 
     71 CB         -1.1851  -21.3113  -49.1373 C.3       12 UNK        -0.1800 
     72 C          -2.0160  -23.4036  -47.9858 C.2       12 UNK         0.5000 
     73 O          -3.1004  -23.7981  -48.4114 O.2       12 UNK        -0.5000 
     74 N          -1.6451  -23.4902  -46.7023 N.am      13 UNK        -0.5000 
     75 CA         -2.4297  -24.1638  -45.6693 C.3       13 UNK         0.1400 
     76 CB         -1.8019  -23.9045  -44.2926 C.3       13 UNK        -0.1800 
     77 C          -2.5703  -25.6744  -45.9409 C.2       13 UNK         0.5000 
     78 O          -3.6696  -26.2122  -45.8062 O.2       13 UNK        -0.5000 
     79 N          -1.4711  -26.3205  -46.3588 N.am      14 UNK        -0.5000 
     80 CA         -1.4402  -27.7313  -46.7478 C.3       14 UNK         0.1400 
     81 CB          0.0165  -28.2127  -46.8236 C.3       14 UNK        -0.1800 
     82 C          -2.1683  -27.9981  -48.0779 C.2       14 UNK         0.5000 
     83 O          -2.8976  -28.9849  -48.1821 O.2       14 UNK        -0.5000 
     84 N          -1.9666  -27.1153  -49.0665 N.am      15 UNK        -0.5000 
     85 CA         -2.5670  -27.2148  -50.4008 C.3       15 UNK         0.1400 
     86 CB         -1.7663  -26.3318  -51.3710 C.3       15 UNK        -0.1800 
     87 C          -4.0603  -26.8324  -50.4523 C.2       15 UNK         0.5000 
     88 O          -4.7127  -27.1167  -51.4572 O.2       15 UNK        -0.5000 
     89 N          -4.5581  -26.1662  -49.3995 N.am      16 UNK        -0.5000 
     90 CA         -5.8759  -25.5274  -49.2863 C.3       16 UNK         0.1400 
     91 CB         -7.0202  -26.5573  -49.3867 C.3       16 UNK        -0.1800 
     92 C          -6.0419  -24.3322  -50.2530 C.2       16 UNK         0.5000 
     93 O          -7.1579  -24.0088  -50.6618 O.2       16 UNK        -0.5000 
     94 N          -4.9180  -23.6785  -50.5737 N.am      17 UNK        -0.5000 
     95 CA         -4.8270  -22.4764  -51.4009 C.3       17 UNK         0.1400 
     96 CB         -3.5269  -22.5268  -52.2180 C.3       17 UNK        -0.1800 
     97 C          -4.8873  -21.1887  -50.5592 C.2       17 UNK         0.5000 
     98 O          -4.9165  -20.0990  -51.1295 O.2       17 UNK        -0.5000 
     99 N          -4.9171  -21.3117  -49.2234 N.am      18 UNK        -0.5000 
    100 CA        -5.0336  -20.1968  -48.2786 C.3       18 UNK         0.1400 
    101 CB        -4.9583  -20.7393  -46.8448 C.3       18 UNK        -0.1800 
    102 C         -6.3184  -19.3701  -48.4829 C.2       18 UNK         0.5000 
    103 O         -6.2770  -18.1418  -48.4172 O.2       18 UNK        -0.5000 
    104 N         -7.4199  -20.0658  -48.7985 N.am      19 UNK        -0.5000 
    105 CA        -8.7144  -19.4833  -49.1609 C.3       19 UNK         0.1400 
    106 CB        -9.7905  -20.5738  -49.0440 C.3       19 UNK        -0.1800 
    107 C         -8.7334  -18.8579  -50.5724 C.2       19 UNK         0.5000 
    108 O         -9.6428  -18.0863  -50.8771 O.2       19 UNK        -0.5000 
    109 N         -7.7335  -19.1883  -51.3999 N.am      20 UNK        -0.5000 
    110 CA        -7.5275  -18.6798  -52.7555 C.3       20 UNK         0.1400 
    111 CB        -7.2538  -19.8696  -53.6937 C.3       20 UNK        -0.1800 
    112 C         -6.3865  -17.6418  -52.7887 C.2       20 UNK         0.5000 
    113 O         -5.7275  -17.4902  -53.8190 O.2       20 UNK        -0.5000 
    114 N         -6.1593  -16.9569  -51.6560 N.am      21 UNK        -0.5000 
    115 CA        -5.1923  -15.8725  -51.4530 C.3       21 UNK         0.1400 
    116 CB        -5.6253  -14.6201  -52.2434 C.3       21 UNK        -0.1800 
    117 C         -3.7319  -16.2858  -51.7342 C.2       21 UNK         0.5000 
    118 O         -2.9597  -15.4923  -52.2740 O.2       21 UNK        -0.5000 
    119 N         -3.3854  -17.5235  -51.3560 N.am      22 UNK        -0.5000 
    120 CA        -2.0773  -18.1676  -51.5663 C.3       22 UNK         0.1400 
    121 C         -1.8698  -18.7264  -53.0073 C.2       22 UNK         0.5000 
    122 N         -2.8653  -18.6993  -53.8873 N.am      22 UNK        -0.7600 
    123 O         -0.7953  -19.2219  -53.3322 O.2       22 UNK        -0.5000 
    124 C124       -0.8741  -17.3086  -51.0600 C.3       23 UNK        -0.0398 
    125 S125        0.3182  -18.2302  -50.0338 S.3       23 UNK        -0.2404 
    126 C126        1.7657  -18.3526  -51.1314 C.3       23 UNK        -0.0205 
    127 H127        7.1775  -13.5469  -47.8934 H         1 UNK         0.0600 
    128 H128        7.5023  -12.2687  -46.7194 H         1 UNK         0.0600 
    129 H129        6.8278  -11.8650  -48.3017 H         1 UNK         0.0600 
    130 H130        5.3640  -14.7070  -47.3639 H         1 UNK         0.3000 
    131 H131        3.4356  -13.9617  -45.4698 H         1 UNK         0.0600 
    132 H132        2.7516  -16.0936  -47.5236 H         1 UNK         0.0800 
    133 H133        2.3997  -16.0253  -45.8422 H         1 UNK         0.0800 
    134 H134        5.4390  -16.1859  -48.3600 H         1 UNK         0.0800 
    135 H135        6.4288  -17.4240  -47.6538 H         1 UNK         0.0800 
    136 H136        3.1938  -16.8325  -49.4420 H         1 UNK         0.1150 
    137 H137        3.1412  -20.7301  -51.1819 H         1 UNK         0.1150 
    138 H138        6.1604  -19.7176  -48.3075 H         1 UNK         0.1150 
    139 H139        5.2021  -22.0686  -51.0194 H         1 UNK         0.0800 
    140 H140        6.4983  -21.5618  -49.9759 H         1 UNK         0.0800 
    141 H141        3.3565  -23.9199  -50.3246 H         1 UNK         0.0800 
    142 H142        2.7768  -22.4768  -49.5402 H         1 UNK         0.0800 
    143 H143        2.8330  -25.3286  -48.4333 H         1 UNK         0.0600 
    144 H144        3.2676  -23.0815  -46.8438 H         1 UNK         0.3000 
    145 H145        1.4756  -23.8116  -43.9138 H         1 UNK         0.0600 
    146 H146        3.7301  -23.7566  -42.8908 H         1 UNK         0.0600 
    147 H147        3.4822  -25.2914  -43.7077 H         1 UNK         0.0600 
    148 H148        4.4830  -24.0538  -44.4585 H         1 UNK         0.0600 
    149 H149        3.3385  -21.7946  -44.3579 H         1 UNK         0.3000 
    150 H150        3.0001  -19.7617  -45.1300 H         1 UNK         0.0600 
    151 H151        2.2655  -19.8472  -47.5067 H         1 UNK         0.0600 
    152 H152        1.9128  -18.2744  -46.8141 H         1 UNK         0.0600 
    153 H153        0.6215  -19.4363  -47.0409 H         1 UNK         0.0600 
    154 H154        0.4034  -18.5868  -44.7304 H         1 UNK         0.3000 
    155 H155        0.0420  -19.1564  -41.2987 H         1 UNK         0.0600 
    156 H156        1.1713  -16.5801  -42.4983 H         1 UNK         0.0600 
    157 H157        1.6439  -17.3541  -40.9975 H         1 UNK         0.0600 
    158 H158        0.0519  -16.6221  -41.1328 H         1 UNK         0.0600 
    159 H159       -1.0543  -17.4535  -43.4427 H         1 UNK         0.3000 
    160 H160       -3.5089  -19.7590  -44.4022 H         1 UNK         0.0600 
    161 H161       -4.1373  -17.4803  -42.4503 H         1 UNK         0.0600 
    162 H162       -4.6385  -19.1569  -42.2664 H         1 UNK         0.0600 
    163 H163       -5.2688  -18.2002  -43.5972 H         1 UNK         0.0600 
    164 H164       -3.1882  -16.8642  -44.6252 H         1 UNK         0.3000 
    165 H165       -0.9807  -16.9573  -47.3616 H         1 UNK         0.0600 
    166 H166       -2.7406  -15.7339  -48.6097 H         1 UNK         0.0600 
    167 H167       -3.0962  -17.4498  -48.5786 H         1 UNK         0.0600 
    168 H168       -3.9856  -16.3549  -47.5261 H         1 UNK         0.0600 
    169 H169       -2.4261  -14.7770  -46.3258 H         1 UNK         0.3000 
    170 H170       -1.7820  -14.0466  -43.6983 H         1 UNK         0.0600 
    171 H171        0.4207  -14.3822  -42.7430 H         1 UNK         0.0600 
    172 H172        1.2267  -13.7632  -44.1777 H         1 UNK         0.0600 
    173 H173        0.2905  -12.6821  -43.1485 H         1 UNK         0.0600 
    174 H174       -0.4952  -12.8656  -46.1227 H         1 UNK         0.3000 
    175 H175       -3.2426  -10.5849  -46.4505 H         1 UNK         0.0600 
    176 H176       -0.2263  -10.1158  -46.1564 H         1 UNK         0.0600 
    177 H177       -1.3832   -9.0138  -46.9046 H         1 UNK         0.0600 
    178 H178       -1.4727   -9.3449  -45.1824 H         1 UNK         0.0600 
    179 H179       -1.1328  -11.1330  -48.2274 H         1 UNK         0.3000 
    180 H180       -2.4305  -13.8686  -49.9966 H         1 UNK         0.0600 
    181 H181       -2.7183  -10.9125  -50.7577 H         1 UNK         0.0600 
    182 H182       -4.0472  -12.0588  -50.6810 H         1 UNK         0.0600 
    183 H183       -2.7604  -12.2943  -51.8550 H         1 UNK         0.0600 
    184 H184       -0.4892  -11.7550  -50.4800 H         1 UNK         0.3000 
    185 H185        2.0064  -13.2221  -50.5976 H         1 UNK         0.0600 
    186 H186        1.2761  -10.8786  -50.4008 H         1 UNK         0.0600 
    187 H187        1.3170  -10.9590  -48.6398 H         1 UNK         0.0600 
    188 H188        2.8068  -11.0469  -49.5703 H         1 UNK         0.0600 
    189 H189        3.3306  -13.9999  -49.0126 H         1 UNK         0.3000 
    190 H190        0.8725  -22.3447  -48.1495 H         1 UNK         0.3000 
    191 H191       -1.1918  -23.2868  -49.9457 H         1 UNK         0.0600 
    192 H192       -0.5630  -20.9410  -49.9506 H         1 UNK         0.0600 
    193 H193       -2.2141  -21.0522  -49.3748 H         1 UNK         0.0600 
    194 H194       -0.9149  -20.7754  -48.2282 H         1 UNK         0.0600 
    195 H195       -0.7695  -23.0618  -46.4136 H         1 UNK         0.3000 
    196 H196       -3.4306  -23.7269  -45.6735 H         1 UNK         0.0600 
    197 H197       -2.4100  -24.3396  -43.4988 H         1 UNK         0.0600 
    198 H198       -1.7178  -22.8359  -44.0914 H         1 UNK         0.0600 
    199 H199       -0.8056  -24.3391  -44.2184 H         1 UNK         0.0600 
    200 H200       -0.5890  -25.8198  -46.4044 H         1 UNK         0.3000 
    201 H201       -1.9451  -28.3091  -45.9706 H         1 UNK         0.0600 
    202 H202        0.5151  -28.1096  -45.8597 H         1 UNK         0.0600 
    203 H203        0.5905  -27.6462  -47.5581 H         1 UNK         0.0600 
    204 H204        0.0676  -29.2651  -47.1054 H         1 UNK         0.0600 
    205 H205       -1.2978  -26.3654  -48.9247 H         1 UNK         0.3000 
    206 H206       -2.4846  -28.2498  -50.7393 H         1 UNK         0.0600 
    207 H207       -0.7165  -26.6241  -51.3969 H         1 UNK         0.0600 
    208 H208       -2.1505  -26.4162  -52.3884 H         1 UNK         0.0600 
    209 H209       -1.8158  -25.2801  -51.0894 H         1 UNK         0.0600 
    210 H210       -3.9159  -25.9525  -48.6472 H         1 UNK         0.3000 
    211 H211       -5.9098  -25.1026  -48.2820 H         1 UNK         0.0600 
    212 H212       -7.1192  -26.9613  -50.3942 H         1 UNK         0.0600 
    213 H213       -7.9763  -26.1029  -49.1249 H         1 UNK         0.0600 
    214 H214       -6.8605  -27.3914  -48.7034 H         1 UNK         0.0600 
    215 H215       -4.0689  -23.9652  -50.0977 H         1 UNK         0.3000 
    216 H216       -5.6658  -22.4501  -52.0991 H         1 UNK         0.0600 
    217 H217       -3.4642  -21.6804  -52.9036 H         1 UNK         0.0600 
    218 H218       -3.4733  -23.4350  -52.8186 H         1 UNK         0.0600 
    219 H219       -2.6449  -22.4936  -51.5802 H         1 UNK         0.0600 
    220 H220       -4.8342  -22.2379  -48.8277 H         1 UNK         0.3000 
    221 H221       -4.1820  -19.5338  -48.4385 H         1 UNK         0.0600 
    222 H222       -5.7233  -21.4929  -46.6550 H         1 UNK         0.0600 
    223 H223       -3.9848  -21.1888  -46.6458 H         1 UNK         0.0600 
    224 H224       -5.1012  -19.9370  -46.1205 H         1 UNK         0.0600 
    225 H225       -7.3533  -21.0723  -48.8421 H         1 UNK         0.3000 
    226 H226       -8.9489  -18.6904  -48.4475 H         1 UNK         0.0600 
    227 H227       -9.8346  -20.9779  -48.0324 H         1 UNK         0.0600 
    228 H228      -10.7792  -20.1756  -49.2760 H         1 UNK         0.0600 
    229 H229       -9.6005  -21.4014  -49.7289 H         1 UNK         0.0600 
    230 H230       -6.9826  -19.7662  -51.0443 H         1 UNK         0.3000 
    231 H231       -8.4277  -18.1738  -53.1093 H         1 UNK         0.0600 
    232 H232       -8.0466  -20.6148  -53.6282 H         1 UNK         0.0600 
    233 H233       -6.3099  -20.3616  -53.4578 H         1 UNK         0.0600 
    234 H234       -7.2016  -19.5446  -54.7334 H         1 UNK         0.0600 
    235 H235       -6.7179  -17.1961  -50.8485 H         1 UNK         0.3000 
    236 H236       -5.2320  -15.6223  -50.3916 H         1 UNK         0.0600 
    237 H237       -4.9814  -13.7708  -52.0197 H         1 UNK         0.0600 
    238 H238       -5.5803  -14.7857  -53.3202 H         1 UNK         0.0600 
    239 H239       -6.6445  -14.3274  -51.9912 H         1 UNK         0.0600 
    240 H240       -4.1112  -18.1426  -51.0131 H         1 UNK         0.3000 
    241 H241       -2.1365  -19.0591  -50.9422 H         1 UNK         0.0600 
    242 H242       -2.7140  -19.0729  -54.8102 H         1 UNK         0.3800 
    243 H243       -3.7607  -18.2864  -53.6569 H         1 UNK         0.3800 
    244 H244       -1.2270  -16.5013  -50.4186 H         1 UNK         0.0800 
    245 H245       -0.3649  -16.8062  -51.8839 H         1 UNK         0.0800 
    246 H246        1.9452  -17.3915  -51.6150 H         1 UNK         0.0800 
    247 H247        1.5570  -19.0701  -51.9261 H         1 UNK         0.0800 
@<TRIPOS>BOND
     1    1    2 1    
     2    1  127 1    
     3    1  128 1    
     4    1  129 1    
     5    2    3 2    
     6    2    4 am   BACKBONE|DICT|INTERRES
     7    4    5 1    
     8    4  130 1    
     9    5    6 1    
    10    5   65 1    
    11    5  131 1    
    12    6    7 1    
    13    6  132 1    
    14    6  133 1    
    15    7    8 1    
    16    8    9 1    
    17    8  134 1    
    18    8  135 1    
    19    9   10 ar   
    20    9   14 ar   
    21   10   11 ar   
    22   10  136 1    
    23   11   12 ar   
    24   11  126 1    
    25   12   13 ar   
    26   12  137 1    
    27   13   14 ar   
    28   13   15 1    
    29   14  138 1    
    30   15   16 1    
    31   15  139 1    
    32   15  140 1    
    33   16   17 1    
    34   17   18 1    
    35   17  141 1    
    36   17  142 1    
    37   18   19 1    
    38   18   67 1    
    39   18  143 1    
    40   19   20 am   BACKBONE|DICT|INTERRES
    41   19  144 1    
    42   20   21 2    
    43   20   22 1    
    44   22   23 1    
    45   22   24 1    
    46   22  145 1    
    47   23  146 1    
    48   23  147 1    
    49   23  148 1    
    50   24   25 am   BACKBONE|DICT|INTERRES
    51   24  149 1    
    52   25   26 2    
    53   25   27 1    
    54   27   28 1    
    55   27   29 1    
    56   27  150 1    
    57   28  151 1    
    58   28  152 1    
    59   28  153 1    
    60   29   30 am   BACKBONE|DICT|INTERRES
    61   29  154 1    
    62   30   31 2    
    63   30   32 1    
    64   32   33 1    
    65   32   34 1    
    66   32  155 1    
    67   33  156 1    
    68   33  157 1    
    69   33  158 1    
    70   34   35 am   BACKBONE|DICT|INTERRES
    71   34  159 1    
    72   35   36 2    
    73   35   37 1    
    74   37   38 1    
    75   37   39 1    
    76   37  160 1    
    77   38  161 1    
    78   38  162 1    
    79   38  163 1    
    80   39   40 am   BACKBONE|DICT|INTERRES
    81   39  164 1    
    82   40   41 2    
    83   40   42 1    
    84   42   43 1    
    85   42   44 1    
    86   42  165 1    
    87   43  166 1    
    88   43  167 1    
    89   43  168 1    
    90   44   45 am   BACKBONE|DICT|INTERRES
    91   44  169 1    
    92   45   46 2    
    93   45   47 1    
    94   47   48 1    
    95   47   49 1    
    96   47  170 1    
    97   48  171 1    
    98   48  172 1    
    99   48  173 1    
   100   49   50 am   BACKBONE|DICT|INTERRES
   101   49  174 1    
   102   50   51 2    
   103   50   52 1    
   104   52   53 1    
   105   52   54 1    
   106   52  175 1    
   107   53  176 1    
   108   53  177 1    
   109   53  178 1    
   110   54   55 am   BACKBONE|DICT|INTERRES
   111   54  179 1    
   112   55   56 2    
   113   55   57 1    
   114   57   58 1    
   115   57   59 1    
   116   57  180 1    
   117   58  181 1    
   118   58  182 1    
   119   58  183 1    
   120   59   60 am   BACKBONE|DICT|INTERRES
   121   59  184 1    
   122   60   61 2    
   123   60   62 1    
   124   62   63 1    
   125   62   64 1    
   126   62  185 1    
   127   63  186 1    
   128   63  187 1    
   129   63  188 1    
   130   64   65 am   BACKBONE|DICT|INTERRES
   131   64  189 1    
   132   65   66 2    
   133   67   68 2    
   134   67   69 am   BACKBONE|DICT|INTERRES
   135   69   70 1    
   136   69  190 1    
   137   70   71 1    
   138   70   72 1    
   139   70  191 1    
   140   71  192 1    
   141   71  193 1    
   142   71  194 1    
   143   72   73 2    
   144   72   74 am   BACKBONE|DICT|INTERRES
   145   74   75 1    
   146   74  195 1    
   147   75   76 1    
   148   75   77 1    
   149   75  196 1    
   150   76  197 1    
   151   76  198 1    
   152   76  199 1    
   153   77   78 2    
   154   77   79 am   BACKBONE|DICT|INTERRES
   155   79   80 1    
   156   79  200 1    
   157   80   81 1    
   158   80   82 1    
   159   80  201 1    
   160   81  202 1    
   161   81  203 1    
   162   81  204 1    
   163   82   83 2    
   164   82   84 am   BACKBONE|DICT|INTERRES
   165   84   85 1    
   166   84  205 1    
   167   85   86 1    
   168   85   87 1    
   169   85  206 1    
   170   86  207 1    
   171   86  208 1    
   172   86  209 1    
   173   87   88 2    
   174   87   89 am   BACKBONE|DICT|INTERRES
   175   89   90 1    
   176   89  210 1    
   177   90   91 1    
   178   90   92 1    
   179   90  211 1    
   180   91  212 1    
   181   91  213 1    
   182   91  214 1    
   183   92   93 2    
   184   92   94 am   BACKBONE|DICT|INTERRES
   185   94   95 1    
   186   94  215 1    
   187   95   96 1    
   188   95   97 1    
   189   95  216 1    
   190   96  217 1    
   191   96  218 1    
   192   96  219 1    
   193   97   98 2    
   194   97   99 am   BACKBONE|DICT|INTERRES
   195   99  100 1    
   196   99  220 1    
   197  100  101 1    
   198  100  102 1    
   199  100  221 1    
   200  101  222 1    
   201  101  223 1    
   202  101  224 1    
   203  102  103 2    
   204  102  104 am   BACKBONE|DICT|INTERRES
   205  104  105 1    
   206  104  225 1    
   207  105  106 1    
   208  105  107 1    
   209  105  226 1    
   210  106  227 1    
   211  106  228 1    
   212  106  229 1    
   213  107  108 2    
   214  107  109 am   BACKBONE|DICT|INTERRES
   215  109  110 1    
   216  109  230 1    
   217  110  111 1    
   218  110  112 1    
   219  110  231 1    
   220  111  232 1    
   221  111  233 1    
   222  111  234 1    
   223  112  113 2    
   224  112  114 am   BACKBONE|DICT|INTERRES
   225  114  115 1    
   226  114  235 1    
   227  115  116 1    
   228  115  117 1    
   229  115  236 1    
   230  116  237 1    
   231  116  238 1    
   232  116  239 1    
   233  117  118 2    
   234  117  119 am   BACKBONE|DICT|INTERRES
   235  119  120 1    
   236  119  240 1    
   237  120  121 1    
   238  120  124 1    
   239  120  241 1    
   240  121  122 am   BACKBONE|DICT|INTERRES
   241  121  123 2    
   242  122  242 1    
   243  122  243 1    
   244  124  125 1    
   245  124  244 1    
   246  124  245 1    
   247  125  126 1    
   248  126  246 1    
   249  126  247 1    
@<TRIPOS>SUBSTRUCTURE
     1 UNK         1 GROUP             0       ****    0 ROOT    
