@<TRIPOS>MOLECULE
3R540
247   249    1
SMALL
USER_CHARGES


@<TRIPOS>ATOM
      1 CA         -3.7347  -14.7960  -43.3995 C.3       0 UNK        -0.1800 
      2 C          -2.3198  -14.2384  -43.3579 C.2       0 UNK         0.5000 
      3 O          -2.0156  -13.3866  -42.5233 O.2       0 UNK        -0.5000 
      4 N          -1.4382  -14.7331  -44.2358 N.am      1 UNK        -0.5000 
      5 CA         -0.0504  -14.2784  -44.4036 C.3       1 UNK         0.1400 
      6 C6          0.5552  -14.6948  -45.7679 C.3       23 UNK        -0.0398 
      7 S7          0.2142  -16.4093  -46.2958 S.3       23 UNK        -0.2404 
      8 C8          0.4722  -16.1930  -48.0860 C.3       23 UNK        -0.0205 
      9 C9          0.3891  -17.4844  -48.8899 C.ar      23 UNK        -0.0193 
     10 C10        -0.5052  -17.5836  -49.9600 C.ar      23 UNK        -0.1150 
     11 C11        -0.4940  -18.7030  -50.7968 C.ar      23 UNK        -0.0193 
     12 C12         0.4009  -19.7458  -50.5397 C.ar      23 UNK        -0.1150 
     13 C13         1.2968  -19.6641  -49.4693 C.ar      23 UNK        -0.0193 
     14 C14         1.2796  -18.5340  -48.6455 C.ar      23 UNK        -0.1150 
     15 C15         2.3433  -20.7508  -49.2542 C.3       23 UNK        -0.0205 
     16 S16         1.6509  -22.3068  -48.6118 S.3       23 UNK        -0.2404 
     17 C17         1.0617  -21.8015  -46.9598 C.3       23 UNK        -0.0398 
     18 CA         -0.3701  -22.3025  -46.6617 C.3       11 UNK         0.1400 
     19 N          -0.7079  -22.1678  -45.2436 N.am      11 UNK        -0.5000 
     20 C          -1.7248  -22.8060  -44.6453 C.2       10 UNK         0.5000 
     21 O          -2.4598  -23.6050  -45.2216 O.2       10 UNK        -0.5000 
     22 CA         -2.0031  -22.4603  -43.1703 C.3       10 UNK         0.1400 
     23 CB         -1.1580  -23.3438  -42.2411 C.3       10 UNK        -0.1800 
     24 N          -1.7488  -21.0541  -42.8617 N.am      10 UNK        -0.5000 
     25 C          -2.3974  -20.0210  -43.4173 C.2       9 UNK         0.5000 
     26 O          -3.3498  -20.1479  -44.1847 O.2       9 UNK        -0.5000 
     27 CA         -1.8561  -18.6131  -43.1085 C.3       9 UNK         0.1400 
     28 CB         -2.6561  -17.9720  -41.9655 C.3       9 UNK        -0.1800 
     29 N          -0.4299  -18.5920  -42.7682 N.am      9 UNK        -0.5000 
     30 C           0.5650  -18.9592  -43.5864 C.2       8 UNK         0.5000 
     31 O           0.3924  -19.4125  -44.7197 O.2       8 UNK        -0.5000 
     32 CA          1.9859  -18.8541  -43.0265 C.3       8 UNK         0.1400 
     33 CB          2.5404  -20.2470  -42.6878 C.3       8 UNK        -0.1800 
     34 N           2.8338  -18.2169  -44.0249 N.am      8 UNK        -0.5000 
     35 C           3.7681  -17.2964  -43.7622 C.2       7 UNK         0.5000 
     36 O           4.0324  -16.9009  -42.6250 O.2       7 UNK        -0.5000 
     37 CA          4.5413  -16.6993  -44.9498 C.3       7 UNK         0.1400 
     38 CB          4.0513  -17.1628  -46.3394 C.3       7 UNK        -0.1800 
     39 N           4.4846  -15.2465  -44.8323 N.am      7 UNK        -0.5000 
     40 C           5.2831  -14.3768  -45.4620 C.2       6 UNK         0.5000 
     41 O           6.1664  -14.7034  -46.2556 O.2       6 UNK        -0.5000 
     42 CA          5.0704  -12.8882  -45.1430 C.3       6 UNK         0.1400 
     43 CB          4.0669  -12.2580  -46.1214 C.3       6 UNK        -0.1800 
     44 N           4.5859  -12.6907  -43.7795 N.am      6 UNK        -0.5000 
     45 C           5.3647  -12.5326  -42.7020 C.2       5 UNK         0.5000 
     46 O           6.5963  -12.5476  -42.7427 O.2       5 UNK        -0.5000 
     47 CA          4.6332  -12.3162  -41.3590 C.3       5 UNK         0.1400 
     48 CB          5.4813  -11.5491  -40.3239 C.3       5 UNK        -0.1800 
     49 N           3.3142  -11.6943  -41.5235 N.am      5 UNK        -0.5000 
     50 C           3.0267  -10.4838  -42.0300 C.2       4 UNK         0.5000 
     51 O           3.8740   -9.6556  -42.3646 O.2       4 UNK        -0.5000 
     52 CA          1.5333  -10.1569  -42.2373 C.3       4 UNK         0.1400 
     53 CB          1.1714  -10.2761  -43.7266 C.3       4 UNK        -0.1800 
     54 N           0.6490  -11.0356  -41.4699 N.am      4 UNK        -0.5000 
     55 C           0.4478  -10.9512  -40.1479 C.2       3 UNK         0.5000 
     56 O           0.8993  -10.0512  -39.4394 O.2       3 UNK        -0.5000 
     57 CA         -0.3579  -12.0958  -39.5103 C.3       3 UNK         0.1400 
     58 CB         -1.8583  -11.7665  -39.5006 C.3       3 UNK        -0.1800 
     59 N          -0.1390  -13.3725  -40.1974 N.am      3 UNK        -0.5000 
     60 C           0.9811  -14.1045  -40.0884 C.2       2 UNK         0.5000 
     61 O           1.9511  -13.7682  -39.4105 O.2       2 UNK        -0.5000 
     62 CA          1.0380  -15.4232  -40.8818 C.3       2 UNK         0.1400 
     63 CB          0.3618  -16.5361  -40.0631 C.3       2 UNK        -0.1800 
     64 N           0.4065  -15.3085  -42.1993 N.am      2 UNK        -0.5000 
     65 C           0.8899  -14.5706  -43.2104 C.2       1 UNK         0.5000 
     66 O           2.0147  -14.0647  -43.2039 O.2       1 UNK        -0.5000 
     67 C          -1.4315  -21.6203  -47.5476 C.2       11 UNK         0.5000 
     68 O          -1.8510  -22.2073  -48.5448 O.2       11 UNK        -0.5000 
     69 N          -1.8952  -20.4312  -47.1347 N.am      12 UNK        -0.5000 
     70 CA         -2.9778  -19.7050  -47.8013 C.3       12 UNK         0.1400 
     71 CB         -3.1148  -18.2991  -47.1991 C.3       12 UNK        -0.1800 
     72 C          -4.3208  -20.4603  -47.7536 C.2       12 UNK         0.5000 
     73 O          -5.0562  -20.4592  -48.7406 O.2       12 UNK        -0.5000 
     74 N          -4.6038  -21.1088  -46.6155 N.am      13 UNK        -0.5000 
     75 CA         -5.7777  -21.9543  -46.4091 C.3       13 UNK         0.1400 
     76 CB         -5.9368  -22.2494  -44.9096 C.3       13 UNK        -0.1800 
     77 C          -5.7210  -23.2617  -47.2216 C.2       13 UNK         0.5000 
     78 O          -6.7227  -23.6356  -47.8329 O.2       13 UNK        -0.5000 
     79 N          -4.5620  -23.9359  -47.2100 N.am      14 UNK        -0.5000 
     80 CA         -4.3383  -25.2030  -47.9102 C.3       14 UNK         0.1400 
     81 CB         -3.0684  -25.8725  -47.3626 C.3       14 UNK        -0.1800 
     82 C          -4.2388  -25.0557  -49.4393 C.2       14 UNK         0.5000 
     83 O          -4.6407  -25.9801  -50.1465 O.2       14 UNK        -0.5000 
     84 N          -3.7064  -23.9114  -49.8954 N.am      15 UNK        -0.5000 
     85 CA         -3.3259  -23.5472  -51.2619 C.3       15 UNK         0.1400 
     86 CB         -4.4952  -23.6746  -52.2579 C.3       15 UNK        -0.1800 
     87 C          -2.0863  -24.3256  -51.7363 C.2       15 UNK         0.5000 
     88 O          -2.1136  -25.5549  -51.8088 O.2       15 UNK        -0.5000 
     89 N          -1.0245  -23.5955  -52.0984 N.am      16 UNK        -0.5000 
     90 CA          0.2195  -24.1497  -52.6406 C.3       16 UNK         0.1400 
     91 CB          1.2781  -23.0402  -52.7245 C.3       16 UNK        -0.1800 
     92 C           0.0245  -24.8242  -54.0125 C.2       16 UNK         0.5000 
     93 O           0.6339  -25.8612  -54.2755 O.2       16 UNK        -0.5000 
     94 N          -0.8527  -24.2436  -54.8410 N.am      17 UNK        -0.5000 
     95 CA         -1.2714  -24.7809  -56.1367 C.3       17 UNK         0.1400 
     96 CB         -1.6221  -23.6056  -57.0645 C.3       17 UNK        -0.1800 
     97 C          -2.4670  -25.7501  -56.0274 C.2       17 UNK         0.5000 
     98 O          -2.9415  -26.2246  -57.0596 O.2       17 UNK        -0.5000 
     99 N          -2.9730  -25.9873  -54.8065 N.am      18 UNK        -0.5000 
    100 CA        -4.1436  -26.7918  -54.4182 C.3       18 UNK         0.1400 
    101 CB        -3.9820  -28.2620  -54.8489 C.3       18 UNK        -0.1800 
    102 C         -5.5082  -26.2256  -54.8709 C.2       18 UNK         0.5000 
    103 O         -6.5007  -26.4127  -54.1660 O.2       18 UNK        -0.5000 
    104 N         -5.5427  -25.5435  -56.0203 N.am      19 UNK        -0.5000 
    105 CA        -6.6966  -24.8373  -56.5702 C.3       19 UNK         0.1400 
    106 CB        -6.3755  -24.4542  -58.0241 C.3       19 UNK        -0.1800 
    107 C         -7.0578  -23.5782  -55.7592 C.2       19 UNK         0.5000 
    108 O         -6.2114  -23.0249  -55.0528 O.2       19 UNK        -0.5000 
    109 N         -8.2968  -23.1000  -55.9416 N.am      20 UNK        -0.5000 
    110 CA        -8.8582  -21.8994  -55.3060 C.3       20 UNK         0.1400 
    111 CB       -10.3445  -21.7914  -55.6806 C.3       20 UNK        -0.1800 
    112 C         -8.1208  -20.5835  -55.6401 C.2       20 UNK         0.5000 
    113 O         -8.2773  -19.6000  -54.9161 O.2       20 UNK        -0.5000 
    114 N         -7.3083  -20.5963  -56.7058 N.am      21 UNK        -0.5000 
    115 CA        -6.3821  -19.5296  -57.0899 C.3       21 UNK         0.1400 
    116 CB        -5.8990  -19.8012  -58.5238 C.3       21 UNK        -0.1800 
    117 C         -5.1755  -19.3749  -56.1361 C.2       21 UNK         0.5000 
    118 O         -4.4319  -18.4017  -56.2686 O.2       21 UNK        -0.5000 
    119 N         -4.9796  -20.3302  -55.2156 N.am      22 UNK        -0.5000 
    120 CA        -3.9094  -20.4060  -54.2085 C.3       22 UNK         0.1400 
    121 C         -2.5176  -20.7748  -54.7892 C.2       22 UNK         0.5000 
    122 N         -2.0930  -20.1794  -55.8945 N.am      22 UNK        -0.7600 
    123 O         -1.8278  -21.6279  -54.2392 O.2       22 UNK        -0.5000 
    124 C124       -3.8482  -19.1618  -53.2833 C.3       23 UNK        -0.0398 
    125 S125       -3.0096  -19.4781  -51.6918 S.3       23 UNK        -0.2404 
    126 C126       -1.3840  -18.7383  -52.0290 C.3       23 UNK        -0.0205 
    127 H127       -4.0422  -15.1181  -42.4048 H         1 UNK         0.0600 
    128 H128       -3.8139  -15.6495  -44.0734 H         1 UNK         0.0600 
    129 H129       -4.4286  -14.0268  -43.7380 H         1 UNK         0.0600 
    130 H130       -1.7311  -15.4419  -44.8940 H         1 UNK         0.3000 
    131 H131       -0.1027  -13.1881  -44.4267 H         1 UNK         0.0600 
    132 H132        1.6338  -14.5355  -45.7967 H         1 UNK         0.0800 
    133 H133        0.1489  -14.0286  -46.5302 H         1 UNK         0.0800 
    134 H134       -0.2565  -15.4702  -48.4563 H         1 UNK         0.0800 
    135 H135        1.4548  -15.7495  -48.2532 H         1 UNK         0.0800 
    136 H136       -1.1797  -16.7667  -50.1749 H         1 UNK         0.1150 
    137 H137        0.4244  -20.6047  -51.1940 H         1 UNK         0.1150 
    138 H138        1.9860  -18.4530  -47.8339 H         1 UNK         0.1150 
    139 H139        2.8380  -20.9568  -50.2043 H         1 UNK         0.0800 
    140 H140        3.1263  -20.4050  -48.5774 H         1 UNK         0.0800 
    141 H141        1.1236  -20.7193  -46.8482 H         1 UNK         0.0800 
    142 H142        1.7573  -22.2160  -46.2290 H         1 UNK         0.0800 
    143 H143       -0.3966  -23.3697  -46.8944 H         1 UNK         0.0600 
    144 H144       -0.2013  -21.4573  -44.7307 H         1 UNK         0.3000 
    145 H145       -3.0577  -22.6632  -42.9731 H         1 UNK         0.0600 
    146 H146       -0.0903  -23.1647  -42.3746 H         1 UNK         0.0600 
    147 H147       -1.4014  -23.1615  -41.1942 H         1 UNK         0.0600 
    148 H148       -1.3407  -24.4014  -42.4365 H         1 UNK         0.0600 
    149 H149       -0.9858  -20.8576  -42.2319 H         1 UNK         0.3000 
    150 H150       -1.9914  -18.0071  -44.0068 H         1 UNK         0.0600 
    151 H151       -2.5475  -18.5309  -41.0352 H         1 UNK         0.0600 
    152 H152       -3.7199  -17.9381  -42.2053 H         1 UNK         0.0600 
    153 H153       -2.3353  -16.9483  -41.7796 H         1 UNK         0.0600 
    154 H154       -0.2018  -18.2767  -41.8378 H         1 UNK         0.3000 
    155 H155        1.9634  -18.2531  -42.1169 H         1 UNK         0.0600 
    156 H156        2.5865  -20.8881  -43.5693 H         1 UNK         0.0600 
    157 H157        1.9167  -20.7486  -41.9469 H         1 UNK         0.0600 
    158 H158        3.5461  -20.1782  -42.2728 H         1 UNK         0.0600 
    159 H159        2.6106  -18.4475  -44.9838 H         1 UNK         0.3000 
    160 H160        5.5795  -17.0146  -44.8292 H         1 UNK         0.0600 
    161 H161        3.0422  -16.8109  -46.5405 H         1 UNK         0.0600 
    162 H162        4.0615  -18.2497  -46.4278 H         1 UNK         0.0600 
    163 H163        4.6920  -16.7820  -47.1342 H         1 UNK         0.0600 
    164 H164        3.8237  -14.8965  -44.1472 H         1 UNK         0.3000 
    165 H165        6.0285  -12.3789  -45.2682 H         1 UNK         0.0600 
    166 H166        3.9753  -11.1852  -45.9506 H         1 UNK         0.0600 
    167 H167        4.3876  -12.3966  -47.1548 H         1 UNK         0.0600 
    168 H168        3.0740  -12.6956  -46.0226 H         1 UNK         0.0600 
    169 H169        3.5846  -12.7433  -43.6352 H         1 UNK         0.3000 
    170 H170        4.4463  -13.3132  -40.9571 H         1 UNK         0.0600 
    171 H171        6.3955  -12.0941  -40.0866 H         1 UNK         0.0600 
    172 H172        5.7741  -10.5640  -40.6880 H         1 UNK         0.0600 
    173 H173        4.9343  -11.4139  -39.3908 H         1 UNK         0.0600 
    174 H174        2.5349  -12.2892  -41.2810 H         1 UNK         0.3000 
    175 H175        1.3673   -9.1251  -41.9208 H         1 UNK         0.0600 
    176 H176        1.7573   -9.5784  -44.3264 H         1 UNK         0.0600 
    177 H177        1.3677  -11.2776  -44.1102 H         1 UNK         0.0600 
    178 H178        0.1195  -10.0477  -43.8993 H         1 UNK         0.0600 
    179 H179        0.2057  -11.7923  -41.9699 H         1 UNK         0.3000 
    180 H180       -0.0280  -12.2001  -38.4743 H         1 UNK         0.0600 
    181 H181       -2.2473  -11.6183  -40.5084 H         1 UNK         0.0600 
    182 H182       -2.0517  -10.8521  -38.9383 H         1 UNK         0.0600 
    183 H183       -2.4347  -12.5643  -39.0321 H         1 UNK         0.0600 
    184 H184       -0.8745  -13.6717  -40.8281 H         1 UNK         0.3000 
    185 H185        2.0892  -15.6850  -41.0211 H         1 UNK         0.0600 
    186 H186        0.5283  -17.5192  -40.4939 H         1 UNK         0.0600 
    187 H187        0.7662  -16.5714  -39.0504 H         1 UNK         0.0600 
    188 H188       -0.7136  -16.3783  -39.9745 H         1 UNK         0.0600 
    189 H189       -0.5350  -15.6569  -42.2913 H         1 UNK         0.3000 
    190 H190       -1.4980  -20.0111  -46.3060 H         1 UNK         0.3000 
    191 H191       -2.6959  -19.5937  -48.8481 H         1 UNK         0.0600 
    192 H192       -2.1895  -17.7365  -47.3077 H         1 UNK         0.0600 
    193 H193       -3.8965  -17.7342  -47.7082 H         1 UNK         0.0600 
    194 H194       -3.3698  -18.3307  -46.1404 H         1 UNK         0.0600 
    195 H195       -3.9839  -20.9845  -45.8206 H         1 UNK         0.3000 
    196 H196       -6.6569  -21.3958  -46.7369 H         1 UNK         0.0600 
    197 H197       -6.8241  -22.8555  -44.7229 H         1 UNK         0.0600 
    198 H198       -6.0445  -21.3284  -44.3363 H         1 UNK         0.0600 
    199 H199       -5.0787  -22.7914  -44.5117 H         1 UNK         0.0600 
    200 H200       -3.7964  -23.5979  -46.6341 H         1 UNK         0.3000 
    201 H201       -5.1829  -25.8616  -47.6968 H         1 UNK         0.0600 
    202 H202       -2.8836  -26.8266  -47.8578 H         1 UNK         0.0600 
    203 H203       -3.1572  -26.0732  -46.2948 H         1 UNK         0.0600 
    204 H204       -2.1880  -25.2469  -47.5157 H         1 UNK         0.0600 
    205 H205       -3.3499  -23.2654  -49.1966 H         1 UNK         0.3000 
    206 H206       -3.0553  -22.4914  -51.2170 H         1 UNK         0.0600 
    207 H207       -5.2915  -22.9683  -52.0235 H         1 UNK         0.0600 
    208 H208       -4.1610  -23.4715  -53.2754 H         1 UNK         0.0600 
    209 H209       -4.9304  -24.6716  -52.2727 H         1 UNK         0.0600 
    210 H210       -1.0954  -22.5875  -52.0834 H         1 UNK         0.3000 
    211 H211        0.5797  -24.9115  -51.9460 H         1 UNK         0.0600 
    212 H212        0.9409  -22.2066  -53.3423 H         1 UNK         0.0600 
    213 H213        2.2064  -23.4162  -53.1565 H         1 UNK         0.0600 
    214 H214        1.5182  -22.6532  -51.7349 H         1 UNK         0.0600 
    215 H215       -1.2733  -23.3598  -54.5577 H         1 UNK         0.3000 
    216 H216       -0.4423  -25.3315  -56.5855 H         1 UNK         0.0600 
    217 H217       -1.8231  -23.9526  -58.0788 H         1 UNK         0.0600 
    218 H218       -0.8024  -22.8896  -57.1247 H         1 UNK         0.0600 
    219 H219       -2.5100  -23.0739  -56.7207 H         1 UNK         0.0600 
    220 H220       -2.4964  -25.5541  -54.0261 H         1 UNK         0.3000 
    221 H221       -4.1546  -26.7762  -53.3272 H         1 UNK         0.0600 
    222 H222       -4.0001  -28.3758  -55.9330 H         1 UNK         0.0600 
    223 H223       -3.0444  -28.6792  -54.4817 H         1 UNK         0.0600 
    224 H224       -4.7898  -28.8741  -54.4461 H         1 UNK         0.0600 
    225 H225       -4.6797  -25.4903  -56.5493 H         1 UNK         0.3000 
    226 H226       -7.5519  -25.5160  -56.5602 H         1 UNK         0.0600 
    227 H227       -6.1372  -25.3358  -58.6198 H         1 UNK         0.0600 
    228 H228       -7.2238  -23.9629  -58.5021 H         1 UNK         0.0600 
    229 H229       -5.5250  -23.7732  -58.0814 H         1 UNK         0.0600 
    230 H230       -8.9206  -23.6018  -56.5575 H         1 UNK         0.3000 
    231 H231       -8.7871  -22.0378  -54.2253 H         1 UNK         0.0600 
    232 H232      -10.4801  -21.6785  -56.7570 H         1 UNK         0.0600 
    233 H233      -10.8089  -20.9295  -55.1993 H         1 UNK         0.0600 
    234 H234      -10.8979  -22.6749  -55.3619 H         1 UNK         0.0600 
    235 H235       -7.2552  -21.4489  -57.2423 H         1 UNK         0.3000 
    236 H236       -6.9264  -18.5831  -57.0822 H         1 UNK         0.0600 
    237 H237       -6.7364  -19.8521  -59.2199 H         1 UNK         0.0600 
    238 H238       -5.2379  -19.0068  -58.8727 H         1 UNK         0.0600 
    239 H239       -5.3476  -20.7401  -58.5908 H         1 UNK         0.0600 
    240 H240       -5.5978  -21.1355  -55.2261 H         1 UNK         0.3000 
    241 H241       -4.2079  -21.2425  -53.5810 H         1 UNK         0.0600 
    242 H242       -1.1930  -20.4133  -56.2800 H         1 UNK         0.3800 
    243 H243       -2.6668  -19.4642  -56.3244 H         1 UNK         0.3800 
    244 H244       -3.3869  -18.3145  -53.7927 H         1 UNK         0.0800 
    245 H245       -4.8623  -18.8414  -53.0407 H         1 UNK         0.0800 
    246 H246       -0.8884  -19.2960  -52.8247 H         1 UNK         0.0800 
    247 H247       -1.5191  -17.7239  -52.4076 H         1 UNK         0.0800 
@<TRIPOS>BOND
     1    1    2 1    
     2    1  127 1    
     3    1  128 1    
     4    1  129 1    
     5    2    3 2    
     6    2    4 am   BACKBONE|DICT|INTERRES
     7    4    5 1    
     8    4  130 1    
     9    5    6 1    
    10    5   65 1    
    11    5  131 1    
    12    6    7 1    
    13    6  132 1    
    14    6  133 1    
    15    7    8 1    
    16    8    9 1    
    17    8  134 1    
    18    8  135 1    
    19    9   10 ar   
    20    9   14 ar   
    21   10   11 ar   
    22   10  136 1    
    23   11   12 ar   
    24   11  126 1    
    25   12   13 ar   
    26   12  137 1    
    27   13   14 ar   
    28   13   15 1    
    29   14  138 1    
    30   15   16 1    
    31   15  139 1    
    32   15  140 1    
    33   16   17 1    
    34   17   18 1    
    35   17  141 1    
    36   17  142 1    
    37   18   19 1    
    38   18   67 1    
    39   18  143 1    
    40   19   20 am   BACKBONE|DICT|INTERRES
    41   19  144 1    
    42   20   21 2    
    43   20   22 1    
    44   22   23 1    
    45   22   24 1    
    46   22  145 1    
    47   23  146 1    
    48   23  147 1    
    49   23  148 1    
    50   24   25 am   BACKBONE|DICT|INTERRES
    51   24  149 1    
    52   25   26 2    
    53   25   27 1    
    54   27   28 1    
    55   27   29 1    
    56   27  150 1    
    57   28  151 1    
    58   28  152 1    
    59   28  153 1    
    60   29   30 am   BACKBONE|DICT|INTERRES
    61   29  154 1    
    62   30   31 2    
    63   30   32 1    
    64   32   33 1    
    65   32   34 1    
    66   32  155 1    
    67   33  156 1    
    68   33  157 1    
    69   33  158 1    
    70   34   35 am   BACKBONE|DICT|INTERRES
    71   34  159 1    
    72   35   36 2    
    73   35   37 1    
    74   37   38 1    
    75   37   39 1    
    76   37  160 1    
    77   38  161 1    
    78   38  162 1    
    79   38  163 1    
    80   39   40 am   BACKBONE|DICT|INTERRES
    81   39  164 1    
    82   40   41 2    
    83   40   42 1    
    84   42   43 1    
    85   42   44 1    
    86   42  165 1    
    87   43  166 1    
    88   43  167 1    
    89   43  168 1    
    90   44   45 am   BACKBONE|DICT|INTERRES
    91   44  169 1    
    92   45   46 2    
    93   45   47 1    
    94   47   48 1    
    95   47   49 1    
    96   47  170 1    
    97   48  171 1    
    98   48  172 1    
    99   48  173 1    
   100   49   50 am   BACKBONE|DICT|INTERRES
   101   49  174 1    
   102   50   51 2    
   103   50   52 1    
   104   52   53 1    
   105   52   54 1    
   106   52  175 1    
   107   53  176 1    
   108   53  177 1    
   109   53  178 1    
   110   54   55 am   BACKBONE|DICT|INTERRES
   111   54  179 1    
   112   55   56 2    
   113   55   57 1    
   114   57   58 1    
   115   57   59 1    
   116   57  180 1    
   117   58  181 1    
   118   58  182 1    
   119   58  183 1    
   120   59   60 am   BACKBONE|DICT|INTERRES
   121   59  184 1    
   122   60   61 2    
   123   60   62 1    
   124   62   63 1    
   125   62   64 1    
   126   62  185 1    
   127   63  186 1    
   128   63  187 1    
   129   63  188 1    
   130   64   65 am   BACKBONE|DICT|INTERRES
   131   64  189 1    
   132   65   66 2    
   133   67   68 2    
   134   67   69 am   BACKBONE|DICT|INTERRES
   135   69   70 1    
   136   69  190 1    
   137   70   71 1    
   138   70   72 1    
   139   70  191 1    
   140   71  192 1    
   141   71  193 1    
   142   71  194 1    
   143   72   73 2    
   144   72   74 am   BACKBONE|DICT|INTERRES
   145   74   75 1    
   146   74  195 1    
   147   75   76 1    
   148   75   77 1    
   149   75  196 1    
   150   76  197 1    
   151   76  198 1    
   152   76  199 1    
   153   77   78 2    
   154   77   79 am   BACKBONE|DICT|INTERRES
   155   79   80 1    
   156   79  200 1    
   157   80   81 1    
   158   80   82 1    
   159   80  201 1    
   160   81  202 1    
   161   81  203 1    
   162   81  204 1    
   163   82   83 2    
   164   82   84 am   BACKBONE|DICT|INTERRES
   165   84   85 1    
   166   84  205 1    
   167   85   86 1    
   168   85   87 1    
   169   85  206 1    
   170   86  207 1    
   171   86  208 1    
   172   86  209 1    
   173   87   88 2    
   174   87   89 am   BACKBONE|DICT|INTERRES
   175   89   90 1    
   176   89  210 1    
   177   90   91 1    
   178   90   92 1    
   179   90  211 1    
   180   91  212 1    
   181   91  213 1    
   182   91  214 1    
   183   92   93 2    
   184   92   94 am   BACKBONE|DICT|INTERRES
   185   94   95 1    
   186   94  215 1    
   187   95   96 1    
   188   95   97 1    
   189   95  216 1    
   190   96  217 1    
   191   96  218 1    
   192   96  219 1    
   193   97   98 2    
   194   97   99 am   BACKBONE|DICT|INTERRES
   195   99  100 1    
   196   99  220 1    
   197  100  101 1    
   198  100  102 1    
   199  100  221 1    
   200  101  222 1    
   201  101  223 1    
   202  101  224 1    
   203  102  103 2    
   204  102  104 am   BACKBONE|DICT|INTERRES
   205  104  105 1    
   206  104  225 1    
   207  105  106 1    
   208  105  107 1    
   209  105  226 1    
   210  106  227 1    
   211  106  228 1    
   212  106  229 1    
   213  107  108 2    
   214  107  109 am   BACKBONE|DICT|INTERRES
   215  109  110 1    
   216  109  230 1    
   217  110  111 1    
   218  110  112 1    
   219  110  231 1    
   220  111  232 1    
   221  111  233 1    
   222  111  234 1    
   223  112  113 2    
   224  112  114 am   BACKBONE|DICT|INTERRES
   225  114  115 1    
   226  114  235 1    
   227  115  116 1    
   228  115  117 1    
   229  115  236 1    
   230  116  237 1    
   231  116  238 1    
   232  116  239 1    
   233  117  118 2    
   234  117  119 am   BACKBONE|DICT|INTERRES
   235  119  120 1    
   236  119  240 1    
   237  120  121 1    
   238  120  124 1    
   239  120  241 1    
   240  121  122 am   BACKBONE|DICT|INTERRES
   241  121  123 2    
   242  122  242 1    
   243  122  243 1    
   244  124  125 1    
   245  124  244 1    
   246  124  245 1    
   247  125  126 1    
   248  126  246 1    
   249  126  247 1    
@<TRIPOS>SUBSTRUCTURE
     1 UNK         1 GROUP             0       ****    0 ROOT    
