@<TRIPOS>MOLECULE
3R540
247   249    1
SMALL
USER_CHARGES


@<TRIPOS>ATOM
      1 CA          0.8695  -17.0289  -49.2641 C.3       0 UNK        -0.1800 
      2 C           0.9196  -15.7629  -48.4202 C.2       0 UNK         0.5000 
      3 O           1.8936  -15.0169  -48.5199 O.2       0 UNK        -0.5000 
      4 N          -0.1224  -15.5404  -47.6008 N.am      1 UNK        -0.5000 
      5 CA         -0.3640  -14.4060  -46.6926 C.3       1 UNK         0.1400 
      6 C6         -1.3188  -13.3177  -47.2626 C.3       23 UNK        -0.0398 
      7 S7         -0.9330  -12.7301  -48.9506 S.3       23 UNK        -0.2404 
      8 C8         -2.4551  -13.1701  -49.8517 C.3       23 UNK        -0.0205 
      9 C9         -2.6182  -14.6739  -50.0274 C.ar      23 UNK        -0.0193 
     10 C10        -1.9922  -15.3268  -51.0923 C.ar      23 UNK        -0.1150 
     11 C11        -2.1776  -16.6979  -51.2926 C.ar      23 UNK        -0.0193 
     12 C12        -2.9594  -17.4263  -50.3910 C.ar      23 UNK        -0.1150 
     13 C13        -3.5878  -16.7863  -49.3192 C.ar      23 UNK        -0.0193 
     14 C14        -3.4256  -15.4083  -49.1528 C.ar      23 UNK        -0.1150 
     15 C15        -4.4750  -17.5731  -48.3643 C.3       23 UNK        -0.0205 
     16 S16        -3.8146  -17.6357  -46.6698 S.3       23 UNK        -0.2404 
     17 C17        -2.2700  -18.5826  -46.8946 C.3       23 UNK        -0.0398 
     18 CA         -2.3933  -20.1142  -47.1209 C.3       11 UNK         0.1400 
     19 N          -1.0559  -20.7112  -47.1310 N.am      11 UNK        -0.5000 
     20 C          -0.7273  -22.0086  -47.1987 C.2       10 UNK         0.5000 
     21 O          -1.5297  -22.9169  -47.4155 O.2       10 UNK        -0.5000 
     22 CA          0.7504  -22.3522  -46.9105 C.3       10 UNK         0.1400 
     23 CB          1.5111  -22.6231  -48.2152 C.3       10 UNK        -0.1800 
     24 N           1.4693  -21.3195  -46.1514 N.am      10 UNK        -0.5000 
     25 C           1.1289  -20.8676  -44.9366 C.2       9 UNK         0.5000 
     26 O           0.1429  -21.2692  -44.3118 O.2       9 UNK        -0.5000 
     27 CA          1.9870  -19.7224  -44.3801 C.3       9 UNK         0.1400 
     28 CB          1.6293  -18.3968  -45.0780 C.3       9 UNK        -0.1800 
     29 N           1.7568  -19.5809  -42.9464 N.am      9 UNK        -0.5000 
     30 C           2.4494  -20.2224  -41.9960 C.2       8 UNK         0.5000 
     31 O           3.4173  -20.9461  -42.2357 O.2       8 UNK        -0.5000 
     32 CA          1.9944  -20.0373  -40.5355 C.3       8 UNK         0.1400 
     33 CB          3.1297  -19.4983  -39.6486 C.3       8 UNK        -0.1800 
     34 N           0.8431  -19.1387  -40.4295 N.am      8 UNK        -0.5000 
     35 C          -0.4052  -19.5402  -40.1585 C.2       7 UNK         0.5000 
     36 O          -0.7136  -20.7077  -39.9167 O.2       7 UNK        -0.5000 
     37 CA         -1.5049  -18.4631  -40.1578 C.3       7 UNK         0.1400 
     38 CB         -1.6567  -17.8553  -38.7553 C.3       7 UNK        -0.1800 
     39 N          -1.3011  -17.3809  -41.1207 N.am      7 UNK        -0.5000 
     40 C          -1.2342  -17.4980  -42.4515 C.2       6 UNK         0.5000 
     41 O          -1.2183  -18.5735  -43.0469 O.2       6 UNK        -0.5000 
     42 CA         -1.1565  -16.1937  -43.2645 C.3       6 UNK         0.1400 
     43 CB         -2.5196  -15.4794  -43.3140 C.3       6 UNK        -0.1800 
     44 N          -0.0823  -15.2847  -42.8507 N.am      6 UNK        -0.5000 
     45 C           0.0921  -14.6376  -41.6905 C.2       5 UNK         0.5000 
     46 O          -0.7203  -14.6643  -40.7635 O.2       5 UNK        -0.5000 
     47 CA          1.4130  -13.8475  -41.5404 C.3       5 UNK         0.1400 
     48 CB          1.7752  -13.5911  -40.0630 C.3       5 UNK        -0.1800 
     49 N           2.5663  -14.4390  -42.2379 N.am      5 UNK        -0.5000 
     50 C           3.0463  -15.6855  -42.1061 C.2       4 UNK         0.5000 
     51 O           2.4953  -16.5653  -41.4412 O.2       4 UNK        -0.5000 
     52 CA          4.3571  -15.9823  -42.8579 C.3       4 UNK         0.1400 
     53 CB          4.7834  -17.4642  -42.7916 C.3       4 UNK        -0.1800 
     54 N           4.2862  -15.5167  -44.2459 N.am      4 UNK        -0.5000 
     55 C           5.3528  -15.3329  -45.0394 C.2       3 UNK         0.5000 
     56 O           6.5144  -15.5323  -44.6810 O.2       3 UNK        -0.5000 
     57 CA          5.0950  -14.8267  -46.4739 C.3       3 UNK         0.1400 
     58 CB          4.8557  -16.0141  -47.4189 C.3       3 UNK        -0.1800 
     59 N           3.9723  -13.8944  -46.5789 N.am      3 UNK        -0.5000 
     60 C           3.8796  -12.7225  -45.9330 C.2       2 UNK         0.5000 
     61 O           4.7872  -12.2528  -45.2456 O.2       2 UNK        -0.5000 
     62 CA          2.5514  -11.9441  -46.0371 C.3       2 UNK         0.1400 
     63 CB          2.7251  -10.7024  -46.9254 C.3       2 UNK        -0.1800 
     64 N           1.4025  -12.7082  -46.5289 N.am      2 UNK        -0.5000 
     65 C           0.9046  -13.8415  -46.0175 C.2       1 UNK         0.5000 
     66 O           1.4104  -14.4528  -45.0732 O.2       1 UNK        -0.5000 
     67 C          -3.3334  -20.7988  -46.1025 C.2       11 UNK         0.5000 
     68 O          -4.4413  -21.1848  -46.4768 O.2       11 UNK        -0.5000 
     69 N          -2.8611  -20.9717  -44.8602 N.am      12 UNK        -0.5000 
     70 CA         -3.6043  -21.6396  -43.7928 C.3       12 UNK         0.1400 
     71 CB         -3.4896  -20.8146  -42.5038 C.3       12 UNK        -0.1800 
     72 C          -3.0911  -23.0662  -43.5473 C.2       12 UNK         0.5000 
     73 O          -3.8972  -23.9510  -43.2592 O.2       12 UNK        -0.5000 
     74 N          -1.7690  -23.2696  -43.6432 N.am      13 UNK        -0.5000 
     75 CA         -1.1061  -24.5188  -43.2649 C.3       13 UNK         0.1400 
     76 CB          0.3997  -24.2643  -43.0940 C.3       13 UNK        -0.1800 
     77 C          -1.3502  -25.6816  -44.2433 C.2       13 UNK         0.5000 
     78 O          -1.3458  -26.8342  -43.8086 O.2       13 UNK        -0.5000 
     79 N          -1.5451  -25.3708  -45.5317 N.am      14 UNK        -0.5000 
     80 CA         -1.7283  -26.3580  -46.5994 C.3       14 UNK         0.1400 
     81 CB         -0.4932  -26.3186  -47.5156 C.3       14 UNK        -0.1800 
     82 C          -3.0130  -26.1300  -47.4158 C.2       14 UNK         0.5000 
     83 O          -3.3603  -26.9945  -48.2214 O.2       14 UNK        -0.5000 
     84 N          -3.6772  -24.9781  -47.2236 N.am      15 UNK        -0.5000 
     85 CA         -4.7947  -24.4604  -48.0251 C.3       15 UNK         0.1400 
     86 CB         -6.0599  -25.3237  -47.8407 C.3       15 UNK        -0.1800 
     87 C          -4.3979  -24.2648  -49.5057 C.2       15 UNK         0.5000 
     88 O          -5.1761  -24.5685  -50.4120 O.2       15 UNK        -0.5000 
     89 N          -3.1670  -23.7777  -49.7204 N.am      16 UNK        -0.5000 
     90 CA         -2.4923  -23.7173  -51.0192 C.3       16 UNK         0.1400 
     91 CB         -0.9950  -23.4732  -50.7903 C.3       16 UNK        -0.1800 
     92 C          -3.0581  -22.6861  -52.0116 C.2       16 UNK         0.5000 
     93 O          -2.6285  -22.6812  -53.1645 O.2       16 UNK        -0.5000 
     94 N          -4.0092  -21.8458  -51.5807 N.am      17 UNK        -0.5000 
     95 CA         -4.6529  -20.8066  -52.3902 C.3       17 UNK         0.1400 
     96 CB         -5.6807  -20.0583  -51.5307 C.3       17 UNK        -0.1800 
     97 C          -5.3227  -21.3222  -53.6781 C.2       17 UNK         0.5000 
     98 O          -5.3494  -20.5965  -54.6723 O.2       17 UNK        -0.5000 
     99 N          -5.8262  -22.5630  -53.6484 N.am      18 UNK        -0.5000 
    100 CA        -6.4147  -23.2404  -54.8038 C.3       18 UNK         0.1400 
    101 CB        -7.2162  -24.4568  -54.3167 C.3       18 UNK        -0.1800 
    102 C         -5.3640  -23.6687  -55.8470 C.2       18 UNK         0.5000 
    103 O         -5.6539  -23.6419  -57.0431 O.2       18 UNK        -0.5000 
    104 N         -4.1665  -24.0482  -55.3806 N.am      19 UNK        -0.5000 
    105 CA        -3.0427  -24.4694  -56.2188 C.3       19 UNK         0.1400 
    106 CB        -2.1284  -25.4028  -55.4094 C.3       19 UNK        -0.1800 
    107 C         -2.2527  -23.2636  -56.7536 C.2       19 UNK         0.5000 
    108 O         -1.8485  -23.2626  -57.9166 O.2       19 UNK        -0.5000 
    109 N         -2.0679  -22.2507  -55.8971 N.am      20 UNK        -0.5000 
    110 CA        -1.3878  -20.9916  -56.2037 C.3       20 UNK         0.1400 
    111 CB        -1.0321  -20.3014  -54.8779 C.3       20 UNK        -0.1800 
    112 C         -2.2172  -20.0427  -57.0922 C.2       20 UNK         0.5000 
    113 O         -1.6576  -19.0890  -57.6339 O.2       20 UNK        -0.5000 
    114 N         -3.5272  -20.3105  -57.2058 N.am      21 UNK        -0.5000 
    115 CA        -4.5491  -19.5125  -57.8921 C.3       21 UNK         0.1400 
    116 CB        -4.2630  -19.4044  -59.4046 C.3       21 UNK        -0.1800 
    117 C         -4.7941  -18.1467  -57.2146 C.2       21 UNK         0.5000 
    118 O         -5.1647  -17.1783  -57.8810 O.2       21 UNK        -0.5000 
    119 N         -4.6045  -18.1093  -55.8909 N.am      22 UNK        -0.5000 
    120 CA        -4.9546  -16.9822  -55.0165 C.3       22 UNK         0.1400 
    121 C         -6.4619  -16.9679  -54.6323 C.2       22 UNK         0.5000 
    122 N         -7.1723  -18.0886  -54.7067 N.am      22 UNK        -0.7600 
    123 O         -6.9944  -15.9237  -54.2674 O.2       22 UNK        -0.5000 
    124 C124       -4.0834  -16.9482  -53.7365 C.3       23 UNK        -0.0398 
    125 S125       -2.2946  -16.7998  -54.0736 S.3       23 UNK        -0.2404 
    126 C126       -1.5663  -17.3863  -52.5049 C.3       23 UNK        -0.0205 
    127 H127       -0.1146  -17.4940  -49.2481 H         1 UNK         0.0600 
    128 H128        1.5994  -17.7518  -48.8999 H         1 UNK         0.0600 
    129 H129        1.1086  -16.7944  -50.3014 H         1 UNK         0.0600 
    130 H130       -0.8819  -16.2021  -47.6302 H         1 UNK         0.3000 
    131 H131       -0.9156  -14.8498  -45.8659 H         1 UNK         0.0600 
    132 H132       -2.3347  -13.7076  -47.2488 H         1 UNK         0.0800 
    133 H133       -1.3616  -12.4512  -46.6001 H         1 UNK         0.0800 
    134 H134       -2.4292  -12.6929  -50.8324 H         1 UNK         0.0800 
    135 H135       -3.3196  -12.7485  -49.3365 H         1 UNK         0.0800 
    136 H136       -1.3847  -14.7622  -51.7857 H         1 UNK         0.1150 
    137 H137       -3.0965  -18.4879  -50.5382 H         1 UNK         0.1150 
    138 H138       -3.9353  -14.9114  -48.3399 H         1 UNK         0.1150 
    139 H139       -5.4629  -17.1111  -48.3390 H         1 UNK         0.0800 
    140 H140       -4.6262  -18.5933  -48.7148 H         1 UNK         0.0800 
    141 H141       -1.6723  -18.3961  -46.0012 H         1 UNK         0.0800 
    142 H142       -1.7142  -18.1404  -47.7188 H         1 UNK         0.0800 
    143 H143       -2.8196  -20.2784  -48.1125 H         1 UNK         0.0600 
    144 H144       -0.2950  -20.0747  -46.9538 H         1 UNK         0.3000 
    145 H145        0.7593  -23.2667  -46.3154 H         1 UNK         0.0600 
    146 H146        2.5551  -22.8690  -48.0207 H         1 UNK         0.0600 
    147 H147        1.0819  -23.4702  -48.7480 H         1 UNK         0.0600 
    148 H148        1.4870  -21.7621  -48.8846 H         1 UNK         0.0600 
    149 H149        2.2879  -20.9336  -46.5999 H         1 UNK         0.3000 
    150 H150        3.0390  -19.9461  -44.5683 H         1 UNK         0.0600 
    151 H151        1.9265  -18.4109  -46.1270 H         1 UNK         0.0600 
    152 H152        2.1324  -17.5495  -44.6135 H         1 UNK         0.0600 
    153 H153        0.5590  -18.2003  -45.0461 H         1 UNK         0.0600 
    154 H154        0.8994  -19.1142  -42.6811 H         1 UNK         0.3000 
    155 H155        1.7395  -21.0334  -40.1686 H         1 UNK         0.0600 
    156 H156        3.4300  -18.4925  -39.9379 H         1 UNK         0.0600 
    157 H157        4.0132  -20.1351  -39.7058 H         1 UNK         0.0600 
    158 H158        2.8241  -19.4640  -38.6028 H         1 UNK         0.0600 
    159 H159        1.0226  -18.1614  -40.6295 H         1 UNK         0.3000 
    160 H160       -2.4441  -18.9551  -40.4164 H         1 UNK         0.0600 
    161 H161       -0.7615  -17.3081  -38.4568 H         1 UNK         0.0600 
    162 H162       -1.8338  -18.6306  -38.0086 H         1 UNK         0.0600 
    163 H163       -2.5002  -17.1659  -38.7134 H         1 UNK         0.0600 
    164 H164       -1.2451  -16.4374  -40.7443 H         1 UNK         0.3000 
    165 H165       -0.9110  -16.4902  -44.2838 H         1 UNK         0.0600 
    166 H166       -2.8558  -15.1687  -42.3246 H         1 UNK         0.0600 
    167 H167       -2.4796  -14.5924  -43.9458 H         1 UNK         0.0600 
    168 H168       -3.2861  -16.1373  -43.7259 H         1 UNK         0.0600 
    169 H169        0.6489  -15.1524  -43.5456 H         1 UNK         0.3000 
    170 H170        1.2359  -12.8796  -42.0112 H         1 UNK         0.0600 
    171 H171        0.9884  -13.0327  -39.5543 H         1 UNK         0.0600 
    172 H172        1.9209  -14.5244  -39.5177 H         1 UNK         0.0600 
    173 H173        2.6910  -13.0064  -39.9770 H         1 UNK         0.0600 
    174 H174        3.0732  -13.8069  -42.8408 H         1 UNK         0.3000 
    175 H175        5.1232  -15.3973  -42.3450 H         1 UNK         0.0600 
    176 H176        4.1164  -18.0968  -43.3714 H         1 UNK         0.0600 
    177 H177        5.7916  -17.6105  -43.1773 H         1 UNK         0.0600 
    178 H178        4.7866  -17.8328  -41.7661 H         1 UNK         0.0600 
    179 H179        3.3620  -15.2999  -44.6047 H         1 UNK         0.3000 
    180 H180        5.9922  -14.3002  -46.8054 H         1 UNK         0.0600 
    181 H181        3.9543  -16.5661  -47.1490 H         1 UNK         0.0600 
    182 H182        5.6918  -16.7140  -47.3888 H         1 UNK         0.0600 
    183 H183        4.7472  -15.6813  -48.4514 H         1 UNK         0.0600 
    184 H184        3.1836  -14.1988  -47.1419 H         1 UNK         0.3000 
    185 H185        2.3040  -11.6095  -45.0280 H         1 UNK         0.0600 
    186 H186        2.9389  -10.9773  -47.9591 H         1 UNK         0.0600 
    187 H187        1.8272  -10.0840  -46.9208 H         1 UNK         0.0600 
    188 H188        3.5481  -10.0784  -46.5742 H         1 UNK         0.0600 
    189 H189        0.9493  -12.3381  -47.3537 H         1 UNK         0.3000 
    190 H190       -1.9257  -20.6557  -44.6295 H         1 UNK         0.3000 
    191 H191       -4.6642  -21.7060  -44.0476 H         1 UNK         0.0600 
    192 H192       -4.0868  -21.2525  -41.7031 H         1 UNK         0.0600 
    193 H193       -3.8402  -19.7934  -42.6541 H         1 UNK         0.0600 
    194 H194       -2.4580  -20.7683  -42.1547 H         1 UNK         0.0600 
    195 H195       -1.1571  -22.4887  -43.8704 H         1 UNK         0.3000 
    196 H196       -1.5014  -24.8241  -42.2936 H         1 UNK         0.0600 
    197 H197        0.8703  -23.9745  -44.0331 H         1 UNK         0.0600 
    198 H198        0.5868  -23.4722  -42.3683 H         1 UNK         0.0600 
    199 H199        0.9088  -25.1601  -42.7363 H         1 UNK         0.0600 
    200 H200       -1.5225  -24.3997  -45.8138 H         1 UNK         0.3000 
    201 H201       -1.8088  -27.3649  -46.1853 H         1 UNK         0.0600 
    202 H202       -0.3708  -25.3414  -47.9814 H         1 UNK         0.0600 
    203 H203       -0.5719  -27.0558  -48.3156 H         1 UNK         0.0600 
    204 H204        0.4173  -26.5405  -46.9589 H         1 UNK         0.0600 
    205 H205       -3.2941  -24.3262  -46.5555 H         1 UNK         0.3000 
    206 H206       -5.0194  -23.4673  -47.6375 H         1 UNK         0.0600 
    207 H207       -6.3075  -25.4381  -46.7855 H         1 UNK         0.0600 
    208 H208       -6.9198  -24.8620  -48.3272 H         1 UNK         0.0600 
    209 H209       -5.9408  -26.3197  -48.2678 H         1 UNK         0.0600 
    210 H210       -2.6024  -23.5353  -48.9107 H         1 UNK         0.3000 
    211 H211       -2.6017  -24.6946  -51.4937 H         1 UNK         0.0600 
    212 H212       -0.4477  -23.4477  -51.7336 H         1 UNK         0.0600 
    213 H213       -0.5610  -24.2724  -50.1910 H         1 UNK         0.0600 
    214 H214       -0.8165  -22.5256  -50.2813 H         1 UNK         0.0600 
    215 H215       -4.3192  -21.9383  -50.6251 H         1 UNK         0.3000 
    216 H216       -3.8722  -20.1057  -52.6888 H         1 UNK         0.0600 
    217 H217       -6.4780  -20.7205  -51.1907 H         1 UNK         0.0600 
    218 H218       -6.1458  -19.2455  -52.0902 H         1 UNK         0.0600 
    219 H219       -5.2156  -19.6196  -50.6514 H         1 UNK         0.0600 
    220 H220       -5.7666  -23.0891  -52.7875 H         1 UNK         0.3000 
    221 H221       -7.1063  -22.5506  -55.2927 H         1 UNK         0.0600 
    222 H222       -8.0133  -24.1564  -53.6364 H         1 UNK         0.0600 
    223 H223       -6.5822  -25.1745  -53.7942 H         1 UNK         0.0600 
    224 H224       -7.6831  -24.9781  -55.1534 H         1 UNK         0.0600 
    225 H225       -3.9843  -23.9702  -54.3897 H         1 UNK         0.3000 
    226 H226       -3.4242  -25.0302  -57.0749 H         1 UNK         0.0600 
    227 H227       -1.7118  -24.9045  -54.5332 H         1 UNK         0.0600 
    228 H228       -2.6704  -26.2844  -55.0670 H         1 UNK         0.0600 
    229 H229       -1.2921  -25.7511  -56.0168 H         1 UNK         0.0600 
    230 H230       -2.3820  -22.3681  -54.9357 H         1 UNK         0.3000 
    231 H231       -0.4616  -21.2181  -56.7356 H         1 UNK         0.0600 
    232 H232       -1.9274  -20.0603  -54.3046 H         1 UNK         0.0600 
    233 H233       -0.4909  -19.3702  -55.0506 H         1 UNK         0.0600 
    234 H234       -0.3991  -20.9365  -54.2578 H         1 UNK         0.0600 
    235 H235       -3.8777  -21.1056  -56.6900 H         1 UNK         0.3000 
    236 H236       -5.4807  -20.0688  -57.7785 H         1 UNK         0.0600 
    237 H237       -4.0858  -20.3864  -59.8433 H         1 UNK         0.0600 
    238 H238       -5.1105  -18.9633  -59.9304 H         1 UNK         0.0600 
    239 H239       -3.3931  -18.7810  -59.6119 H         1 UNK         0.0600 
    240 H240       -4.3809  -18.9810  -55.4273 H         1 UNK         0.3000 
    241 H241       -4.7661  -16.0561  -55.5630 H         1 UNK         0.0600 
    242 H242       -6.7276  -18.9591  -54.9667 H         1 UNK         0.3800 
    243 H243       -8.1508  -18.0741  -54.4665 H         1 UNK         0.3800 
    244 H244       -4.3682  -16.1019  -53.1083 H         1 UNK         0.0800 
    245 H245       -4.2579  -17.8420  -53.1387 H         1 UNK         0.0800 
    246 H246       -0.4914  -17.2017  -52.5208 H         1 UNK         0.0800 
    247 H247       -1.6903  -18.4678  -52.4370 H         1 UNK         0.0800 
@<TRIPOS>BOND
     1    1    2 1    
     2    1  127 1    
     3    1  128 1    
     4    1  129 1    
     5    2    3 2    
     6    2    4 am   BACKBONE|DICT|INTERRES
     7    4    5 1    
     8    4  130 1    
     9    5    6 1    
    10    5   65 1    
    11    5  131 1    
    12    6    7 1    
    13    6  132 1    
    14    6  133 1    
    15    7    8 1    
    16    8    9 1    
    17    8  134 1    
    18    8  135 1    
    19    9   10 ar   
    20    9   14 ar   
    21   10   11 ar   
    22   10  136 1    
    23   11   12 ar   
    24   11  126 1    
    25   12   13 ar   
    26   12  137 1    
    27   13   14 ar   
    28   13   15 1    
    29   14  138 1    
    30   15   16 1    
    31   15  139 1    
    32   15  140 1    
    33   16   17 1    
    34   17   18 1    
    35   17  141 1    
    36   17  142 1    
    37   18   19 1    
    38   18   67 1    
    39   18  143 1    
    40   19   20 am   BACKBONE|DICT|INTERRES
    41   19  144 1    
    42   20   21 2    
    43   20   22 1    
    44   22   23 1    
    45   22   24 1    
    46   22  145 1    
    47   23  146 1    
    48   23  147 1    
    49   23  148 1    
    50   24   25 am   BACKBONE|DICT|INTERRES
    51   24  149 1    
    52   25   26 2    
    53   25   27 1    
    54   27   28 1    
    55   27   29 1    
    56   27  150 1    
    57   28  151 1    
    58   28  152 1    
    59   28  153 1    
    60   29   30 am   BACKBONE|DICT|INTERRES
    61   29  154 1    
    62   30   31 2    
    63   30   32 1    
    64   32   33 1    
    65   32   34 1    
    66   32  155 1    
    67   33  156 1    
    68   33  157 1    
    69   33  158 1    
    70   34   35 am   BACKBONE|DICT|INTERRES
    71   34  159 1    
    72   35   36 2    
    73   35   37 1    
    74   37   38 1    
    75   37   39 1    
    76   37  160 1    
    77   38  161 1    
    78   38  162 1    
    79   38  163 1    
    80   39   40 am   BACKBONE|DICT|INTERRES
    81   39  164 1    
    82   40   41 2    
    83   40   42 1    
    84   42   43 1    
    85   42   44 1    
    86   42  165 1    
    87   43  166 1    
    88   43  167 1    
    89   43  168 1    
    90   44   45 am   BACKBONE|DICT|INTERRES
    91   44  169 1    
    92   45   46 2    
    93   45   47 1    
    94   47   48 1    
    95   47   49 1    
    96   47  170 1    
    97   48  171 1    
    98   48  172 1    
    99   48  173 1    
   100   49   50 am   BACKBONE|DICT|INTERRES
   101   49  174 1    
   102   50   51 2    
   103   50   52 1    
   104   52   53 1    
   105   52   54 1    
   106   52  175 1    
   107   53  176 1    
   108   53  177 1    
   109   53  178 1    
   110   54   55 am   BACKBONE|DICT|INTERRES
   111   54  179 1    
   112   55   56 2    
   113   55   57 1    
   114   57   58 1    
   115   57   59 1    
   116   57  180 1    
   117   58  181 1    
   118   58  182 1    
   119   58  183 1    
   120   59   60 am   BACKBONE|DICT|INTERRES
   121   59  184 1    
   122   60   61 2    
   123   60   62 1    
   124   62   63 1    
   125   62   64 1    
   126   62  185 1    
   127   63  186 1    
   128   63  187 1    
   129   63  188 1    
   130   64   65 am   BACKBONE|DICT|INTERRES
   131   64  189 1    
   132   65   66 2    
   133   67   68 2    
   134   67   69 am   BACKBONE|DICT|INTERRES
   135   69   70 1    
   136   69  190 1    
   137   70   71 1    
   138   70   72 1    
   139   70  191 1    
   140   71  192 1    
   141   71  193 1    
   142   71  194 1    
   143   72   73 2    
   144   72   74 am   BACKBONE|DICT|INTERRES
   145   74   75 1    
   146   74  195 1    
   147   75   76 1    
   148   75   77 1    
   149   75  196 1    
   150   76  197 1    
   151   76  198 1    
   152   76  199 1    
   153   77   78 2    
   154   77   79 am   BACKBONE|DICT|INTERRES
   155   79   80 1    
   156   79  200 1    
   157   80   81 1    
   158   80   82 1    
   159   80  201 1    
   160   81  202 1    
   161   81  203 1    
   162   81  204 1    
   163   82   83 2    
   164   82   84 am   BACKBONE|DICT|INTERRES
   165   84   85 1    
   166   84  205 1    
   167   85   86 1    
   168   85   87 1    
   169   85  206 1    
   170   86  207 1    
   171   86  208 1    
   172   86  209 1    
   173   87   88 2    
   174   87   89 am   BACKBONE|DICT|INTERRES
   175   89   90 1    
   176   89  210 1    
   177   90   91 1    
   178   90   92 1    
   179   90  211 1    
   180   91  212 1    
   181   91  213 1    
   182   91  214 1    
   183   92   93 2    
   184   92   94 am   BACKBONE|DICT|INTERRES
   185   94   95 1    
   186   94  215 1    
   187   95   96 1    
   188   95   97 1    
   189   95  216 1    
   190   96  217 1    
   191   96  218 1    
   192   96  219 1    
   193   97   98 2    
   194   97   99 am   BACKBONE|DICT|INTERRES
   195   99  100 1    
   196   99  220 1    
   197  100  101 1    
   198  100  102 1    
   199  100  221 1    
   200  101  222 1    
   201  101  223 1    
   202  101  224 1    
   203  102  103 2    
   204  102  104 am   BACKBONE|DICT|INTERRES
   205  104  105 1    
   206  104  225 1    
   207  105  106 1    
   208  105  107 1    
   209  105  226 1    
   210  106  227 1    
   211  106  228 1    
   212  106  229 1    
   213  107  108 2    
   214  107  109 am   BACKBONE|DICT|INTERRES
   215  109  110 1    
   216  109  230 1    
   217  110  111 1    
   218  110  112 1    
   219  110  231 1    
   220  111  232 1    
   221  111  233 1    
   222  111  234 1    
   223  112  113 2    
   224  112  114 am   BACKBONE|DICT|INTERRES
   225  114  115 1    
   226  114  235 1    
   227  115  116 1    
   228  115  117 1    
   229  115  236 1    
   230  116  237 1    
   231  116  238 1    
   232  116  239 1    
   233  117  118 2    
   234  117  119 am   BACKBONE|DICT|INTERRES
   235  119  120 1    
   236  119  240 1    
   237  120  121 1    
   238  120  124 1    
   239  120  241 1    
   240  121  122 am   BACKBONE|DICT|INTERRES
   241  121  123 2    
   242  122  242 1    
   243  122  243 1    
   244  124  125 1    
   245  124  244 1    
   246  124  245 1    
   247  125  126 1    
   248  126  246 1    
   249  126  247 1    
@<TRIPOS>SUBSTRUCTURE
     1 UNK         1 GROUP             0       ****    0 ROOT    
