@<TRIPOS>MOLECULE
3R540
247   249    1
SMALL
USER_CHARGES


@<TRIPOS>ATOM
      1 CA          4.8495   -9.0822  -50.7509 C.3       0 UNK        -0.1800 
      2 C           4.2314  -10.4654  -50.6042 C.2       0 UNK         0.5000 
      3 O           4.9421  -11.4662  -50.6960 O.2       0 UNK        -0.5000 
      4 N           2.9121  -10.5245  -50.3771 N.am      1 UNK        -0.5000 
      5 CA          2.1463  -11.7653  -50.1939 C.3       1 UNK         0.1400 
      6 C6          0.6268  -11.5154  -50.3857 C.3       23 UNK        -0.0398 
      7 S7         -0.2760  -12.9977  -50.9481 S.3       23 UNK        -0.2404 
      8 C8         -1.1075  -13.4984  -49.4096 C.3       23 UNK        -0.0205 
      9 C9         -1.7582  -14.8630  -49.5519 C.ar      23 UNK        -0.0193 
     10 C10        -3.1471  -14.9826  -49.6537 C.ar      23 UNK        -0.1150 
     11 C11        -3.7435  -16.2418  -49.7720 C.ar      23 UNK        -0.0193 
     12 C12        -2.9392  -17.3833  -49.7989 C.ar      23 UNK        -0.1150 
     13 C13        -1.5494  -17.2757  -49.6974 C.ar      23 UNK        -0.0193 
     14 C14        -0.9655  -16.0132  -49.5675 C.ar      23 UNK        -0.1150 
     15 C15        -0.6721  -18.5159  -49.7395 C.3       23 UNK        -0.0205 
     16 S16        -0.1426  -19.0197  -48.0781 S.3       23 UNK        -0.2404 
     17 C17        -1.6744  -19.7395  -47.3919 C.3       23 UNK        -0.0398 
     18 CA         -1.4742  -21.2311  -47.0523 C.3       11 UNK         0.1400 
     19 N          -0.4697  -21.4335  -46.0034 N.am      11 UNK        -0.5000 
     20 C           0.1980  -22.5809  -45.8312 C.2       10 UNK         0.5000 
     21 O          -0.0011  -23.5904  -46.5066 O.2       10 UNK        -0.5000 
     22 CA          1.2247  -22.6211  -44.6873 C.3       10 UNK         0.1400 
     23 CB          2.4774  -21.8104  -45.0525 C.3       10 UNK        -0.1800 
     24 N           0.6890  -22.1340  -43.4169 N.am      10 UNK        -0.5000 
     25 C          -0.3575  -22.6438  -42.7568 C.2       9 UNK         0.5000 
     26 O          -1.0227  -23.5913  -43.1736 O.2       9 UNK        -0.5000 
     27 CA         -0.7609  -21.9724  -41.4277 C.3       9 UNK         0.1400 
     28 CB          0.0565  -22.5320  -40.2483 C.3       9 UNK        -0.1800 
     29 N          -0.7385  -20.5028  -41.4626 N.am      9 UNK        -0.5000 
     30 C           0.3132  -19.6818  -41.5852 C.2       8 UNK         0.5000 
     31 O           1.4875  -20.0567  -41.6191 O.2       8 UNK        -0.5000 
     32 CA         -0.0145  -18.1870  -41.7445 C.3       8 UNK         0.1400 
     33 CB          0.3239  -17.4147  -40.4611 C.3       8 UNK        -0.1800 
     34 N           0.6906  -17.5910  -42.8806 N.am      8 UNK        -0.5000 
     35 C           0.5584  -17.9843  -44.1582 C.2       7 UNK         0.5000 
     36 O          -0.1665  -18.9172  -44.5113 O.2       7 UNK        -0.5000 
     37 CA          1.3477  -17.2044  -45.2294 C.3       7 UNK         0.1400 
     38 CB          0.4385  -16.1552  -45.8823 C.3       7 UNK        -0.1800 
     39 N           2.5447  -16.5417  -44.7096 N.am      7 UNK        -0.5000 
     40 C           3.6445  -17.1935  -44.3074 C.2       6 UNK         0.5000 
     41 O           3.7834  -18.4128  -44.4094 O.2       6 UNK        -0.5000 
     42 CA          4.7861  -16.3682  -43.6785 C.3       6 UNK         0.1400 
     43 CB          5.9260  -16.1738  -44.6908 C.3       6 UNK        -0.1800 
     44 N           4.4098  -15.0589  -43.1351 N.am      6 UNK        -0.5000 
     45 C           3.5017  -14.8279  -42.1772 C.2       5 UNK         0.5000 
     46 O           2.7696  -15.6991  -41.7083 O.2       5 UNK        -0.5000 
     47 CA          3.3865  -13.3914  -41.6423 C.3       5 UNK         0.1400 
     48 CB          4.4932  -12.4331  -42.1290 C.3       5 UNK        -0.1800 
     49 N           2.0891  -12.8474  -42.0242 N.am      5 UNK        -0.5000 
     50 C           1.2185  -12.2633  -41.1915 C.2       4 UNK         0.5000 
     51 O           1.4042  -12.1634  -39.9774 O.2       4 UNK        -0.5000 
     52 CA         -0.0614  -11.6569  -41.8041 C.3       4 UNK         0.1400 
     53 CB         -0.2270  -10.1858  -41.3843 C.3       4 UNK        -0.1800 
     54 N          -0.0690  -11.7168  -43.2671 N.am      4 UNK        -0.5000 
     55 C          -0.7132  -12.6338  -43.9979 C.2       3 UNK         0.5000 
     56 O          -1.3873  -13.5467  -43.5211 O.2       3 UNK        -0.5000 
     57 CA         -0.5691  -12.5101  -45.5272 C.3       3 UNK         0.1400 
     58 CB         -1.6345  -11.5491  -46.0774 C.3       3 UNK        -0.1800 
     59 N           0.7512  -12.0649  -45.9883 N.am      3 UNK        -0.5000 
     60 C           1.9348  -12.6334  -45.7091 C.2       2 UNK         0.5000 
     61 O           2.0819  -13.5579  -44.9070 O.2       2 UNK        -0.5000 
     62 CA          3.1558  -12.0503  -46.4528 C.3       2 UNK         0.1400 
     63 CB          4.3836  -12.9841  -46.4152 C.3       2 UNK        -0.1800 
     64 N           2.8442  -11.6504  -47.8323 N.am      2 UNK        -0.5000 
     65 C           2.4444  -12.4488  -48.8378 C.2       1 UNK         0.5000 
     66 O           2.3081  -13.6677  -48.7324 O.2       1 UNK        -0.5000 
     67 C          -2.8110  -21.9243  -46.7181 C.2       11 UNK         0.5000 
     68 O          -3.5594  -22.2547  -47.6379 O.2       11 UNK        -0.5000 
     69 N          -3.0716  -22.1699  -45.4249 N.am      12 UNK        -0.5000 
     70 CA         -4.2093  -22.9590  -44.9508 C.3       12 UNK         0.1400 
     71 CB         -4.4423  -22.6965  -43.4553 C.3       12 UNK        -0.1800 
     72 C          -4.0097  -24.4595  -45.2295 C.2       12 UNK         0.5000 
     73 O          -4.9440  -25.1227  -45.6768 O.2       12 UNK        -0.5000 
     74 N          -2.7850  -24.9620  -45.0143 N.am      13 UNK        -0.5000 
     75 CA         -2.3733  -26.3226  -45.3700 C.3       13 UNK         0.1400 
     76 CB         -0.9897  -26.6118  -44.7694 C.3       13 UNK        -0.1800 
     77 C          -2.3714  -26.5591  -46.8934 C.2       13 UNK         0.5000 
     78 O          -2.7011  -27.6571  -47.3425 O.2       13 UNK        -0.5000 
     79 N          -2.0516  -25.5090  -47.6619 N.am      14 UNK        -0.5000 
     80 CA         -2.0712  -25.4876  -49.1246 C.3       14 UNK         0.1400 
     81 CB         -1.2024  -24.3242  -49.6301 C.3       14 UNK        -0.1800 
     82 C          -3.4823  -25.4122  -49.7441 C.2       14 UNK         0.5000 
     83 O          -3.5775  -25.2908  -50.9651 O.2       14 UNK        -0.5000 
     84 N          -4.5596  -25.4827  -48.9453 N.am      15 UNK        -0.5000 
     85 CA         -5.9551  -25.4550  -49.4088 C.3       15 UNK         0.1400 
     86 CB         -6.9035  -25.5126  -48.2043 C.3       15 UNK        -0.1800 
     87 C          -6.3067  -26.5618  -50.4253 C.2       15 UNK         0.5000 
     88 O          -7.1421  -26.3371  -51.3012 O.2       15 UNK        -0.5000 
     89 N          -5.6161  -27.7080  -50.3350 N.am      16 UNK        -0.5000 
     90 CA         -5.6754  -28.8103  -51.3003 C.3       16 UNK         0.1400 
     91 CB         -4.9380  -30.0220  -50.7102 C.3       16 UNK        -0.1800 
     92 C          -5.0976  -28.4522  -52.6880 C.2       16 UNK         0.5000 
     93 O          -5.4511  -29.0984  -53.6745 O.2       16 UNK        -0.5000 
     94 N          -4.2440  -27.4220  -52.7423 N.am      17 UNK        -0.5000 
     95 CA         -3.6614  -26.8323  -53.9465 C.3       17 UNK         0.1400 
     96 CB         -2.1305  -26.7931  -53.7847 C.3       17 UNK        -0.1800 
     97 C          -4.2590  -25.4307  -54.1930 C.2       17 UNK         0.5000 
     98 O          -3.5555  -24.5319  -54.6572 O.2       17 UNK        -0.5000 
     99 N          -5.5450  -25.2623  -53.8454 N.am      18 UNK        -0.5000 
    100 CA        -6.3707  -24.0588  -54.0052 C.3       18 UNK         0.1400 
    101 CB        -6.5888  -23.7475  -55.5009 C.3       18 UNK        -0.1800 
    102 C         -5.8698  -22.8323  -53.2114 C.2       18 UNK         0.5000 
    103 O         -6.1635  -21.7003  -53.5948 O.2       18 UNK        -0.5000 
    104 N         -5.1347  -23.0784  -52.1167 N.am      19 UNK        -0.5000 
    105 CA        -4.4888  -22.0904  -51.2468 C.3       19 UNK         0.1400 
    106 CB        -5.5169  -21.1679  -50.5585 C.3       19 UNK        -0.1800 
    107 C         -3.3465  -21.3356  -51.9540 C.2       19 UNK         0.5000 
    108 O         -3.1264  -20.1569  -51.6760 O.2       19 UNK        -0.5000 
    109 N         -2.6266  -22.0442  -52.8389 N.am      20 UNK        -0.5000 
    110 CA        -1.4103  -21.6285  -53.5425 C.3       20 UNK         0.1400 
    111 CB        -0.2079  -21.6591  -52.5734 C.3       20 UNK        -0.1800 
    112 C         -1.5774  -20.2854  -54.2832 C.2       20 UNK         0.5000 
    113 O         -2.2150  -20.2545  -55.3367 O.2       20 UNK        -0.5000 
    114 N         -1.0298  -19.2007  -53.7153 N.am      21 UNK        -0.5000 
    115 CA        -1.0985  -17.8330  -54.2380 C.3       21 UNK         0.1400 
    116 CB        -0.2361  -16.9139  -53.3598 C.3       21 UNK        -0.1800 
    117 C         -2.5298  -17.2717  -54.3637 C.2       21 UNK         0.5000 
    118 O         -2.7559  -16.4016  -55.2060 O.2       21 UNK        -0.5000 
    119 N         -3.4684  -17.7916  -53.5613 N.am      22 UNK        -0.5000 
    120 CA        -4.9093  -17.5233  -53.6933 C.3       22 UNK         0.1400 
    121 C         -5.6083  -18.3267  -54.8339 C.2       22 UNK         0.5000 
    122 N         -4.9395  -19.2258  -55.5465 N.am      22 UNK        -0.7600 
    123 O         -6.7866  -18.1057  -55.1013 O.2       22 UNK        -0.5000 
    124 C124       -5.6481  -17.6708  -52.3321 C.3       23 UNK        -0.0398 
    125 S125       -5.9005  -16.0600  -51.5108 S.3       23 UNK        -0.2404 
    126 C126       -5.2575  -16.3661  -49.8371 C.3       23 UNK        -0.0205 
    127 H127        4.1053   -8.2918  -50.6502 H         1 UNK         0.0600 
    128 H128        5.6128   -8.9296  -49.9878 H         1 UNK         0.0600 
    129 H129        5.3197   -8.9833  -51.7293 H         1 UNK         0.0600 
    130 H130        2.3836   -9.6648  -50.3247 H         1 UNK         0.3000 
    131 H131        2.4761  -12.4544  -50.9750 H         1 UNK         0.0600 
    132 H132        0.4730  -10.7640  -51.1617 H         1 UNK         0.0800 
    133 H133        0.1669  -11.1020  -49.4861 H         1 UNK         0.0800 
    134 H134       -1.8519  -12.7460  -49.1470 H         1 UNK         0.0800 
    135 H135       -0.3904  -13.5314  -48.5888 H         1 UNK         0.0800 
    136 H136       -3.7674  -14.0975  -49.6359 H         1 UNK         0.1150 
    137 H137       -3.3978  -18.3564  -49.8924 H         1 UNK         0.1150 
    138 H138        0.1091  -15.9231  -49.4846 H         1 UNK         0.1150 
    139 H139       -1.1903  -19.3441  -50.2198 H         1 UNK         0.0800 
    140 H140        0.2127  -18.3147  -50.3448 H         1 UNK         0.0800 
    141 H141       -2.4843  -19.6222  -48.1123 H         1 UNK         0.0800 
    142 H142       -1.9675  -19.1714  -46.5079 H         1 UNK         0.0800 
    143 H143       -1.1023  -21.7107  -47.9591 H         1 UNK         0.0600 
    144 H144       -0.2630  -20.6307  -45.4138 H         1 UNK         0.3000 
    145 H145        1.5198  -23.6625  -44.5436 H         1 UNK         0.0600 
    146 H146        3.2470  -21.9067  -44.2864 H         1 UNK         0.0600 
    147 H147        2.9083  -22.1569  -45.9927 H         1 UNK         0.0600 
    148 H148        2.2522  -20.7488  -45.1651 H         1 UNK         0.0600 
    149 H149        1.1694  -21.3496  -42.9850 H         1 UNK         0.3000 
    150 H150       -1.8033  -22.2417  -41.2506 H         1 UNK         0.0600 
    151 H151       -0.0759  -23.6114  -40.1647 H         1 UNK         0.0600 
    152 H152       -0.2619  -22.0914  -39.3035 H         1 UNK         0.0600 
    153 H153        1.1246  -22.3463  -40.3628 H         1 UNK         0.0600 
    154 H154       -1.6551  -20.0773  -41.4703 H         1 UNK         0.3000 
    155 H155       -1.0837  -18.0757  -41.9356 H         1 UNK         0.0600 
    156 H156        1.3815  -17.5011  -40.2087 H         1 UNK         0.0600 
    157 H157       -0.2471  -17.7964  -39.6140 H         1 UNK         0.0600 
    158 H158        0.0892  -16.3548  -40.5628 H         1 UNK         0.0600 
    159 H159        1.3596  -16.8609  -42.6598 H         1 UNK         0.3000 
    160 H160        1.6603  -17.9156  -45.9958 H         1 UNK         0.0600 
    161 H161        0.9577  -15.6088  -46.6704 H         1 UNK         0.0600 
    162 H162        0.0873  -15.4387  -45.1414 H         1 UNK         0.0600 
    163 H163       -0.4424  -16.6161  -46.3303 H         1 UNK         0.0600 
    164 H164        2.5040  -15.5315  -44.6171 H         1 UNK         0.3000 
    165 H165        5.1736  -16.9566  -42.8445 H         1 UNK         0.0600 
    166 H166        6.7811  -15.6740  -44.2353 H         1 UNK         0.0600 
    167 H167        6.2786  -17.1333  -45.0714 H         1 UNK         0.0600 
    168 H168        5.6053  -15.5813  -45.5478 H         1 UNK         0.0600 
    169 H169        4.9451  -14.2733  -43.4718 H         1 UNK         0.3000 
    170 H170        3.4668  -13.4713  -40.5564 H         1 UNK         0.0600 
    171 H171        4.4065  -11.4649  -41.6354 H         1 UNK         0.0600 
    172 H172        5.4865  -12.8195  -41.8967 H         1 UNK         0.0600 
    173 H173        4.4380  -12.2552  -43.2028 H         1 UNK         0.0600 
    174 H174        1.8365  -12.9683  -42.9995 H         1 UNK         0.3000 
    175 H175       -0.9062  -12.2187  -41.4005 H         1 UNK         0.0600 
    176 H176       -1.1408   -9.7590  -41.7984 H         1 UNK         0.0600 
    177 H177       -0.2905  -10.0892  -40.2997 H         1 UNK         0.0600 
    178 H178        0.6114   -9.5746  -41.7205 H         1 UNK         0.0600 
    179 H179        0.4705  -11.0125  -43.7493 H         1 UNK         0.3000 
    180 H180       -0.7523  -13.4924  -45.9632 H         1 UNK         0.0600 
    181 H181       -1.5157  -10.5430  -45.6732 H         1 UNK         0.0600 
    182 H182       -2.6380  -11.8900  -45.8190 H         1 UNK         0.0600 
    183 H183       -1.5866  -11.4777  -47.1630 H         1 UNK         0.0600 
    184 H184        0.7513  -11.2951  -46.6403 H         1 UNK         0.3000 
    185 H185        3.4243  -11.1363  -45.9214 H         1 UNK         0.0600 
    186 H186        4.1610  -13.9639  -46.8388 H         1 UNK         0.0600 
    187 H187        5.2192  -12.5602  -46.9720 H         1 UNK         0.0600 
    188 H188        4.7249  -13.1427  -45.3934 H         1 UNK         0.0600 
    189 H189        2.9436  -10.6654  -48.0343 H         1 UNK         0.3000 
    190 H190       -2.3866  -21.8930  -44.7376 H         1 UNK         0.3000 
    191 H191       -5.1014  -22.6345  -45.4911 H         1 UNK         0.0600 
    192 H192       -4.5991  -21.6356  -43.2600 H         1 UNK         0.0600 
    193 H193       -3.6032  -23.0306  -42.8462 H         1 UNK         0.0600 
    194 H194       -5.3290  -23.2258  -43.1042 H         1 UNK         0.0600 
    195 H195       -2.0806  -24.3758  -44.5749 H         1 UNK         0.3000 
    196 H196       -3.0891  -27.0182  -44.9272 H         1 UNK         0.0600 
    197 H197       -0.6698  -27.6295  -44.9965 H         1 UNK         0.0600 
    198 H198       -1.0025  -26.5085  -43.6842 H         1 UNK         0.0600 
    199 H199       -0.2303  -25.9335  -45.1593 H         1 UNK         0.0600 
    200 H200       -1.7286  -24.6658  -47.2026 H         1 UNK         0.3000 
    201 H201       -1.6206  -26.4164  -49.4799 H         1 UNK         0.0600 
    202 H202       -0.2120  -24.3354  -49.1750 H         1 UNK         0.0600 
    203 H203       -1.6640  -23.3605  -49.4203 H         1 UNK         0.0600 
    204 H204       -1.0611  -24.3851  -50.7098 H         1 UNK         0.0600 
    205 H205       -4.4195  -25.5513  -47.9460 H         1 UNK         0.3000 
    206 H206       -6.1140  -24.4983  -49.9083 H         1 UNK         0.0600 
    207 H207       -6.7816  -24.6355  -47.5687 H         1 UNK         0.0600 
    208 H208       -7.9462  -25.5336  -48.5240 H         1 UNK         0.0600 
    209 H209       -6.7269  -26.3995  -47.5946 H         1 UNK         0.0600 
    210 H210       -4.9500  -27.8032  -49.5814 H         1 UNK         0.3000 
    211 H211       -6.7239  -29.0805  -51.4415 H         1 UNK         0.0600 
    212 H212       -3.8853  -29.8019  -50.5276 H         1 UNK         0.0600 
    213 H213       -4.9827  -30.8757  -51.3878 H         1 UNK         0.0600 
    214 H214       -5.3848  -30.3347  -49.7662 H         1 UNK         0.0600 
    215 H215       -4.0488  -26.9052  -51.8906 H         1 UNK         0.3000 
    216 H216       -3.8969  -27.4391  -54.8227 H         1 UNK         0.0600 
    217 H217       -1.6488  -26.4185  -54.6886 H         1 UNK         0.0600 
    218 H218       -1.7298  -27.7887  -53.5941 H         1 UNK         0.0600 
    219 H219       -1.8297  -26.1473  -52.9587 H         1 UNK         0.0600 
    220 H220       -6.0166  -26.0464  -53.4141 H         1 UNK         0.3000 
    221 H221       -7.3432  -24.3077  -53.5782 H         1 UNK         0.0600 
    222 H222       -5.6680  -23.4178  -55.9833 H         1 UNK         0.0600 
    223 H223       -6.9548  -24.6228  -56.0374 H         1 UNK         0.0600 
    224 H224       -7.3274  -22.9562  -55.6339 H         1 UNK         0.0600 
    225 H225       -4.8916  -24.0420  -51.9153 H         1 UNK         0.3000 
    226 H226       -4.0040  -22.6547  -50.4512 H         1 UNK         0.0600 
    227 H227       -6.2656  -21.7498  -50.0214 H         1 UNK         0.0600 
    228 H228       -5.0307  -20.5194  -49.8286 H         1 UNK         0.0600 
    229 H229       -6.0367  -20.5278  -51.2700 H         1 UNK         0.0600 
    230 H230       -2.9527  -22.9749  -53.0685 H         1 UNK         0.3000 
    231 H231       -1.2296  -22.3793  -54.3134 H         1 UNK         0.0600 
    232 H232       -0.0350  -22.6702  -52.2055 H         1 UNK         0.0600 
    233 H233       -0.3574  -21.0184  -51.7048 H         1 UNK         0.0600 
    234 H234        0.7092  -21.3411  -53.0711 H         1 UNK         0.0600 
    235 H235       -0.5593  -19.3183  -52.8311 H         1 UNK         0.3000 
    236 H236       -0.6673  -17.8473  -55.2409 H         1 UNK         0.0600 
    237 H237       -0.2074  -15.9015  -53.7649 H         1 UNK         0.0600 
    238 H238       -0.6304  -16.8451  -52.3470 H         1 UNK         0.0600 
    239 H239        0.7928  -17.2688  -53.2998 H         1 UNK         0.0600 
    240 H240       -3.2058  -18.5214  -52.9063 H         1 UNK         0.3000 
    241 H241       -5.0156  -16.4862  -54.0172 H         1 UNK         0.0600 
    242 H242       -5.4246  -19.7292  -56.2709 H         1 UNK         0.3800 
    243 H243       -3.9670  -19.4460  -55.3566 H         1 UNK         0.3800 
    244 H244       -6.6382  -18.1154  -52.4473 H         1 UNK         0.0800 
    245 H245       -5.1086  -18.3478  -51.6709 H         1 UNK         0.0800 
    246 H246       -5.5831  -17.3470  -49.4870 H         1 UNK         0.0800 
    247 H247       -5.7051  -15.6413  -49.1556 H         1 UNK         0.0800 
@<TRIPOS>BOND
     1    1    2 1    
     2    1  127 1    
     3    1  128 1    
     4    1  129 1    
     5    2    3 2    
     6    2    4 am   BACKBONE|DICT|INTERRES
     7    4    5 1    
     8    4  130 1    
     9    5    6 1    
    10    5   65 1    
    11    5  131 1    
    12    6    7 1    
    13    6  132 1    
    14    6  133 1    
    15    7    8 1    
    16    8    9 1    
    17    8  134 1    
    18    8  135 1    
    19    9   10 ar   
    20    9   14 ar   
    21   10   11 ar   
    22   10  136 1    
    23   11   12 ar   
    24   11  126 1    
    25   12   13 ar   
    26   12  137 1    
    27   13   14 ar   
    28   13   15 1    
    29   14  138 1    
    30   15   16 1    
    31   15  139 1    
    32   15  140 1    
    33   16   17 1    
    34   17   18 1    
    35   17  141 1    
    36   17  142 1    
    37   18   19 1    
    38   18   67 1    
    39   18  143 1    
    40   19   20 am   BACKBONE|DICT|INTERRES
    41   19  144 1    
    42   20   21 2    
    43   20   22 1    
    44   22   23 1    
    45   22   24 1    
    46   22  145 1    
    47   23  146 1    
    48   23  147 1    
    49   23  148 1    
    50   24   25 am   BACKBONE|DICT|INTERRES
    51   24  149 1    
    52   25   26 2    
    53   25   27 1    
    54   27   28 1    
    55   27   29 1    
    56   27  150 1    
    57   28  151 1    
    58   28  152 1    
    59   28  153 1    
    60   29   30 am   BACKBONE|DICT|INTERRES
    61   29  154 1    
    62   30   31 2    
    63   30   32 1    
    64   32   33 1    
    65   32   34 1    
    66   32  155 1    
    67   33  156 1    
    68   33  157 1    
    69   33  158 1    
    70   34   35 am   BACKBONE|DICT|INTERRES
    71   34  159 1    
    72   35   36 2    
    73   35   37 1    
    74   37   38 1    
    75   37   39 1    
    76   37  160 1    
    77   38  161 1    
    78   38  162 1    
    79   38  163 1    
    80   39   40 am   BACKBONE|DICT|INTERRES
    81   39  164 1    
    82   40   41 2    
    83   40   42 1    
    84   42   43 1    
    85   42   44 1    
    86   42  165 1    
    87   43  166 1    
    88   43  167 1    
    89   43  168 1    
    90   44   45 am   BACKBONE|DICT|INTERRES
    91   44  169 1    
    92   45   46 2    
    93   45   47 1    
    94   47   48 1    
    95   47   49 1    
    96   47  170 1    
    97   48  171 1    
    98   48  172 1    
    99   48  173 1    
   100   49   50 am   BACKBONE|DICT|INTERRES
   101   49  174 1    
   102   50   51 2    
   103   50   52 1    
   104   52   53 1    
   105   52   54 1    
   106   52  175 1    
   107   53  176 1    
   108   53  177 1    
   109   53  178 1    
   110   54   55 am   BACKBONE|DICT|INTERRES
   111   54  179 1    
   112   55   56 2    
   113   55   57 1    
   114   57   58 1    
   115   57   59 1    
   116   57  180 1    
   117   58  181 1    
   118   58  182 1    
   119   58  183 1    
   120   59   60 am   BACKBONE|DICT|INTERRES
   121   59  184 1    
   122   60   61 2    
   123   60   62 1    
   124   62   63 1    
   125   62   64 1    
   126   62  185 1    
   127   63  186 1    
   128   63  187 1    
   129   63  188 1    
   130   64   65 am   BACKBONE|DICT|INTERRES
   131   64  189 1    
   132   65   66 2    
   133   67   68 2    
   134   67   69 am   BACKBONE|DICT|INTERRES
   135   69   70 1    
   136   69  190 1    
   137   70   71 1    
   138   70   72 1    
   139   70  191 1    
   140   71  192 1    
   141   71  193 1    
   142   71  194 1    
   143   72   73 2    
   144   72   74 am   BACKBONE|DICT|INTERRES
   145   74   75 1    
   146   74  195 1    
   147   75   76 1    
   148   75   77 1    
   149   75  196 1    
   150   76  197 1    
   151   76  198 1    
   152   76  199 1    
   153   77   78 2    
   154   77   79 am   BACKBONE|DICT|INTERRES
   155   79   80 1    
   156   79  200 1    
   157   80   81 1    
   158   80   82 1    
   159   80  201 1    
   160   81  202 1    
   161   81  203 1    
   162   81  204 1    
   163   82   83 2    
   164   82   84 am   BACKBONE|DICT|INTERRES
   165   84   85 1    
   166   84  205 1    
   167   85   86 1    
   168   85   87 1    
   169   85  206 1    
   170   86  207 1    
   171   86  208 1    
   172   86  209 1    
   173   87   88 2    
   174   87   89 am   BACKBONE|DICT|INTERRES
   175   89   90 1    
   176   89  210 1    
   177   90   91 1    
   178   90   92 1    
   179   90  211 1    
   180   91  212 1    
   181   91  213 1    
   182   91  214 1    
   183   92   93 2    
   184   92   94 am   BACKBONE|DICT|INTERRES
   185   94   95 1    
   186   94  215 1    
   187   95   96 1    
   188   95   97 1    
   189   95  216 1    
   190   96  217 1    
   191   96  218 1    
   192   96  219 1    
   193   97   98 2    
   194   97   99 am   BACKBONE|DICT|INTERRES
   195   99  100 1    
   196   99  220 1    
   197  100  101 1    
   198  100  102 1    
   199  100  221 1    
   200  101  222 1    
   201  101  223 1    
   202  101  224 1    
   203  102  103 2    
   204  102  104 am   BACKBONE|DICT|INTERRES
   205  104  105 1    
   206  104  225 1    
   207  105  106 1    
   208  105  107 1    
   209  105  226 1    
   210  106  227 1    
   211  106  228 1    
   212  106  229 1    
   213  107  108 2    
   214  107  109 am   BACKBONE|DICT|INTERRES
   215  109  110 1    
   216  109  230 1    
   217  110  111 1    
   218  110  112 1    
   219  110  231 1    
   220  111  232 1    
   221  111  233 1    
   222  111  234 1    
   223  112  113 2    
   224  112  114 am   BACKBONE|DICT|INTERRES
   225  114  115 1    
   226  114  235 1    
   227  115  116 1    
   228  115  117 1    
   229  115  236 1    
   230  116  237 1    
   231  116  238 1    
   232  116  239 1    
   233  117  118 2    
   234  117  119 am   BACKBONE|DICT|INTERRES
   235  119  120 1    
   236  119  240 1    
   237  120  121 1    
   238  120  124 1    
   239  120  241 1    
   240  121  122 am   BACKBONE|DICT|INTERRES
   241  121  123 2    
   242  122  242 1    
   243  122  243 1    
   244  124  125 1    
   245  124  244 1    
   246  124  245 1    
   247  125  126 1    
   248  126  246 1    
   249  126  247 1    
@<TRIPOS>SUBSTRUCTURE
     1 UNK         1 GROUP             0       ****    0 ROOT    
