@<TRIPOS>MOLECULE
3R540
247   249    1
SMALL
USER_CHARGES


@<TRIPOS>ATOM
      1 CA         -1.4755  -15.3860  -47.2433 C.3       0 UNK        -0.1800 
      2 C          -0.3877  -14.3224  -47.2447 C.2       0 UNK         0.5000 
      3 O           0.3864  -14.2304  -46.2950 O.2       0 UNK        -0.5000 
      4 N          -0.3334  -13.5204  -48.3139 N.am      1 UNK        -0.5000 
      5 CA          0.6585  -12.4752  -48.6102 C.3       1 UNK         0.1400 
      6 C6          2.1394  -12.9589  -48.6709 C.3       23 UNK        -0.0398 
      7 S7          2.4277  -14.5773  -49.4716 S.3       23 UNK        -0.2404 
      8 C8          1.8036  -14.3484  -51.1626 C.3       23 UNK        -0.0205 
      9 C9          1.0519  -15.5857  -51.6298 C.ar      23 UNK        -0.0193 
     10 C10         1.7436  -16.6498  -52.2170 C.ar      23 UNK        -0.1150 
     11 C11         1.0522  -17.7692  -52.6889 C.ar      23 UNK        -0.0193 
     12 C12        -0.3383  -17.8178  -52.5687 C.ar      23 UNK        -0.1150 
     13 C13        -1.0397  -16.7787  -51.9541 C.ar      23 UNK        -0.0193 
     14 C14        -0.3381  -15.6627  -51.4878 C.ar      23 UNK        -0.1150 
     15 C15        -2.5554  -16.8454  -51.8307 C.3       23 UNK        -0.0205 
     16 S16        -3.0941  -17.6380  -50.2801 S.3       23 UNK        -0.2404 
     17 C17        -2.8929  -19.4191  -50.6532 C.3       23 UNK        -0.0398 
     18 CA         -1.9882  -20.1847  -49.6571 C.3       11 UNK         0.1400 
     19 N          -0.6853  -19.5366  -49.4808 N.am      11 UNK        -0.5000 
     20 C           0.3552  -20.0692  -48.8276 C.2       10 UNK         0.5000 
     21 O           0.3513  -21.2161  -48.3742 O.2       10 UNK        -0.5000 
     22 CA          1.5808  -19.1507  -48.6353 C.3       10 UNK         0.1400 
     23 CB          1.1764  -17.7051  -48.2720 C.3       10 UNK        -0.1800 
     24 N           2.5361  -19.6670  -47.6490 N.am      10 UNK        -0.5000 
     25 C           2.3265  -19.8467  -46.3371 C.2       9 UNK         0.5000 
     26 O           1.2555  -19.6175  -45.7649 O.2       9 UNK        -0.5000 
     27 CA          3.5285  -20.3692  -45.5325 C.3       9 UNK         0.1400 
     28 CB          4.7826  -19.4902  -45.7155 C.3       9 UNK        -0.1800 
     29 N           3.1702  -20.4210  -44.1207 N.am      9 UNK        -0.5000 
     30 C           3.7115  -21.2254  -43.2001 C.2       8 UNK         0.5000 
     31 O           4.6176  -22.0239  -43.4426 O.2       8 UNK        -0.5000 
     32 CA          3.1570  -21.1292  -41.7668 C.3       8 UNK         0.1400 
     33 CB          4.1865  -20.4705  -40.8345 C.3       8 UNK        -0.1800 
     34 N           1.9107  -20.3644  -41.7007 N.am      8 UNK        -0.5000 
     35 C           0.6812  -20.8974  -41.7491 C.2       7 UNK         0.5000 
     36 O           0.4763  -22.1053  -41.8742 O.2       7 UNK        -0.5000 
     37 CA         -0.5189  -19.9266  -41.6501 C.3       7 UNK         0.1400 
     38 CB         -1.7432  -20.5544  -40.9552 C.3       7 UNK        -0.1800 
     39 N          -0.1852  -18.6278  -41.0554 N.am      7 UNK        -0.5000 
     40 C           0.3102  -18.3749  -39.8319 C.2       6 UNK         0.5000 
     41 O           0.4162  -19.2305  -38.9521 O.2       6 UNK        -0.5000 
     42 CA          0.8082  -16.9320  -39.5592 C.3       6 UNK         0.1400 
     43 CB          2.0137  -16.9030  -38.5971 C.3       6 UNK        -0.1800 
     44 N           1.1121  -16.1640  -40.7754 N.am      6 UNK        -0.5000 
     45 C           1.9650  -16.4965  -41.7604 C.2       5 UNK         0.5000 
     46 O           2.7114  -17.4756  -41.7088 O.2       5 UNK        -0.5000 
     47 CA          1.9057  -15.6419  -43.0491 C.3       5 UNK         0.1400 
     48 CB          2.3365  -16.4384  -44.2974 C.3       5 UNK        -0.1800 
     49 N           0.5973  -15.0156  -43.2818 N.am      5 UNK        -0.5000 
     50 C          -0.6022  -15.6213  -43.3187 C.2       4 UNK         0.5000 
     51 O          -0.7434  -16.8361  -43.1871 O.2       4 UNK        -0.5000 
     52 CA         -1.8574  -14.7293  -43.4609 C.3       4 UNK         0.1400 
     53 CB         -3.0717  -15.3093  -42.7065 C.3       4 UNK        -0.1800 
     54 N          -1.6414  -13.3287  -43.0805 N.am      4 UNK        -0.5000 
     55 C          -1.1956  -12.8541  -41.9061 C.2       3 UNK         0.5000 
     56 O          -0.9912  -13.5611  -40.9166 O.2       3 UNK        -0.5000 
     57 CA         -0.8674  -11.3419  -41.8648 C.3       3 UNK         0.1400 
     58 CB          0.2321  -11.0119  -40.8340 C.3       3 UNK        -0.1800 
     59 N          -0.5198  -10.7687  -43.1780 N.am      3 UNK        -0.5000 
     60 C           0.4566  -11.1773  -44.0031 C.2       2 UNK         0.5000 
     61 O           1.2088  -12.1257  -43.7644 O.2       2 UNK        -0.5000 
     62 CA          0.5936  -10.4286  -45.3343 C.3       2 UNK         0.1400 
     63 CB          1.8208   -9.4999  -45.3238 C.3       2 UNK        -0.1800 
     64 N           0.7118  -11.4263  -46.3904 N.am      2 UNK        -0.5000 
     65 C           0.5109  -11.2373  -47.6978 C.2       1 UNK         0.5000 
     66 O           0.2063  -10.1503  -48.1911 O.2       1 UNK        -0.5000 
     67 C          -2.7192  -20.4463  -48.3207 C.2       11 UNK         0.5000 
     68 O          -3.5389  -21.3618  -48.2520 O.2       11 UNK        -0.5000 
     69 N          -2.3956  -19.6681  -47.2782 N.am      12 UNK        -0.5000 
     70 CA         -2.9234  -19.8146  -45.9232 C.3       12 UNK         0.1400 
     71 CB         -2.4545  -18.6307  -45.0726 C.3       12 UNK        -0.1800 
     72 C          -2.5334  -21.1488  -45.2620 C.2       12 UNK         0.5000 
     73 O          -3.3707  -21.7512  -44.5908 O.2       12 UNK        -0.5000 
     74 N          -1.3030  -21.6236  -45.5081 N.am      13 UNK        -0.5000 
     75 CA         -0.8242  -22.9344  -45.0546 C.3       13 UNK         0.1400 
     76 CB          0.6921  -23.0314  -45.2681 C.3       13 UNK        -0.1800 
     77 C          -1.5422  -24.1130  -45.7411 C.2       13 UNK         0.5000 
     78 O          -1.6598  -25.1835  -45.1447 O.2       13 UNK        -0.5000 
     79 N          -2.0386  -23.8845  -46.9639 N.am      14 UNK        -0.5000 
     80 CA         -2.8728  -24.8167  -47.7226 C.3       14 UNK         0.1400 
     81 CB         -2.6164  -24.5977  -49.2238 C.3       14 UNK        -0.1800 
     82 C          -4.3742  -24.6692  -47.3982 C.2       14 UNK         0.5000 
     83 O          -5.1849  -25.3632  -48.0100 O.2       14 UNK        -0.5000 
     84 N          -4.7355  -23.7520  -46.4852 N.am      15 UNK        -0.5000 
     85 CA         -6.1024  -23.3746  -46.1022 C.3       15 UNK         0.1400 
     86 CB         -6.7921  -24.5260  -45.3415 C.3       15 UNK        -0.1800 
     87 C          -6.9368  -22.8519  -47.2935 C.2       15 UNK         0.5000 
     88 O          -8.1447  -23.0854  -47.3560 O.2       15 UNK        -0.5000 
     89 N          -6.2558  -22.1725  -48.2282 N.am      16 UNK        -0.5000 
     90 CA         -6.7468  -21.6298  -49.4968 C.3       16 UNK         0.1400 
     91 CB         -7.8246  -20.5517  -49.2640 C.3       16 UNK        -0.1800 
     92 C          -7.1812  -22.6922  -50.5306 C.2       16 UNK         0.5000 
     93 O          -7.7862  -22.3278  -51.5410 O.2       16 UNK        -0.5000 
     94 N          -6.8469  -23.9729  -50.3068 N.am      17 UNK        -0.5000 
     95 CA         -7.0690  -25.0546  -51.2655 C.3       17 UNK         0.1400 
     96 CB         -6.8966  -26.4149  -50.5718 C.3       17 UNK        -0.1800 
     97 C          -6.1016  -24.9001  -52.4509 C.2       17 UNK         0.5000 
     98 O          -4.8910  -25.0456  -52.2671 O.2       17 UNK        -0.5000 
     99 N          -6.6588  -24.5600  -53.6228 N.am      18 UNK        -0.5000 
    100 CA        -5.9553  -24.2152  -54.8632 C.3       18 UNK         0.1400 
    101 CB        -5.2599  -25.4549  -55.4638 C.3       18 UNK        -0.1800 
    102 C         -4.9959  -23.0240  -54.6641 C.2       18 UNK         0.5000 
    103 O         -3.8168  -23.1123  -55.0108 O.2       18 UNK        -0.5000 
    104 N         -5.5136  -21.9353  -54.0738 N.am      19 UNK        -0.5000 
    105 CA        -4.7597  -20.7456  -53.6593 C.3       19 UNK         0.1400 
    106 CB        -5.7236  -19.7138  -53.0545 C.3       19 UNK        -0.1800 
    107 C         -3.9107  -20.0925  -54.7667 C.2       19 UNK         0.5000 
    108 O         -2.8118  -19.6185  -54.4812 O.2       19 UNK        -0.5000 
    109 N         -4.4010  -20.1357  -56.0133 N.am      20 UNK        -0.5000 
    110 CA        -3.6976  -19.6648  -57.2111 C.3       20 UNK         0.1400 
    111 CB        -4.6744  -19.6780  -58.3967 C.3       20 UNK        -0.1800 
    112 C         -2.4282  -20.4761  -57.5506 C.2       20 UNK         0.5000 
    113 O         -1.5335  -19.9482  -58.2115 O.2       20 UNK        -0.5000 
    114 N         -2.3657  -21.7282  -57.0801 N.am      21 UNK        -0.5000 
    115 CA        -1.2180  -22.6296  -57.1802 C.3       21 UNK         0.1400 
    116 CB        -1.7175  -24.0006  -57.6693 C.3       21 UNK        -0.1800 
    117 C         -0.4770  -22.7505  -55.8308 C.2       21 UNK         0.5000 
    118 O          0.3597  -23.6419  -55.6792 O.2       21 UNK        -0.5000 
    119 N         -0.7873  -21.8600  -54.8771 N.am      22 UNK        -0.5000 
    120 CA        -0.2602  -21.8306  -53.5045 C.3       22 UNK         0.1400 
    121 C         -0.8250  -22.9391  -52.5644 C.2       22 UNK         0.5000 
    122 N         -1.9435  -23.5750  -52.8914 N.am      22 UNK        -0.7600 
    123 O         -0.2653  -23.2073  -51.5065 O.2       22 UNK        -0.5000 
    124 C124        1.2921  -21.6824  -53.4554 C.3       23 UNK        -0.0398 
    125 S125        1.8354  -20.3914  -52.2872 S.3       23 UNK        -0.2404 
    126 C126        1.7930  -18.9164  -53.3565 C.3       23 UNK        -0.0205 
    127 H127       -2.4329  -14.9532  -46.9545 H         1 UNK         0.0600 
    128 H128       -1.2288  -16.1794  -46.5383 H         1 UNK         0.0600 
    129 H129       -1.5816  -15.8341  -48.2313 H         1 UNK         0.0600 
    130 H130       -1.0412  -13.6327  -49.0245 H         1 UNK         0.3000 
    131 H131        0.3961  -12.1275  -49.6095 H         1 UNK         0.0600 
    132 H132        2.7540  -12.2130  -49.1773 H         1 UNK         0.0800 
    133 H133        2.5511  -13.0475  -47.6641 H         1 UNK         0.0800 
    134 H134        2.6450  -14.1471  -51.8271 H         1 UNK         0.0800 
    135 H135        1.1539  -13.4772  -51.2300 H         1 UNK         0.0800 
    136 H136        2.8187  -16.5983  -52.3173 H         1 UNK         0.1150 
    137 H137       -0.8742  -18.6672  -52.9620 H         1 UNK         0.1150 
    138 H138       -0.8763  -14.8468  -51.0278 H         1 UNK         0.1150 
    139 H139       -2.9678  -15.8360  -51.8639 H         1 UNK         0.0800 
    140 H140       -2.9844  -17.3705  -52.6857 H         1 UNK         0.0800 
    141 H141       -2.4899  -19.5349  -51.6576 H         1 UNK         0.0800 
    142 H142       -3.8847  -19.8710  -50.6930 H         1 UNK         0.0800 
    143 H143       -1.7946  -21.1695  -50.0879 H         1 UNK         0.0600 
    144 H144       -0.6113  -18.5963  -49.8432 H         1 UNK         0.3000 
    145 H145        2.1099  -19.1220  -49.5881 H         1 UNK         0.0600 
    146 H146        2.0512  -17.1081  -48.0164 H         1 UNK         0.0600 
    147 H147        0.6803  -17.2052  -49.1037 H         1 UNK         0.0600 
    148 H148        0.5016  -17.6739  -47.4166 H         1 UNK         0.0600 
    149 H149        3.4363  -19.9269  -48.0251 H         1 UNK         0.3000 
    150 H150        3.7390  -21.3813  -45.8842 H         1 UNK         0.0600 
    151 H151        5.1274  -19.4942  -46.7497 H         1 UNK         0.0600 
    152 H152        5.6112  -19.8488  -45.1048 H         1 UNK         0.0600 
    153 H153        4.5892  -18.4542  -45.4372 H         1 UNK         0.0600 
    154 H154        2.3801  -19.8413  -43.8690 H         1 UNK         0.3000 
    155 H155        2.9856  -22.1473  -41.4113 H         1 UNK         0.0600 
    156 H156        4.4480  -19.4657  -41.1678 H         1 UNK         0.0600 
    157 H157        5.1081  -21.0527  -40.7967 H         1 UNK         0.0600 
    158 H158        3.8059  -20.3970  -39.8155 H         1 UNK         0.0600 
    159 H159        2.0126  -19.3578  -41.6091 H         1 UNK         0.3000 
    160 H160       -0.8042  -19.7127  -42.6809 H         1 UNK         0.0600 
    161 H161       -1.5151  -20.8647  -39.9353 H         1 UNK         0.0600 
    162 H162       -2.0906  -21.4353  -41.4966 H         1 UNK         0.0600 
    163 H163       -2.5759  -19.8522  -40.9161 H         1 UNK         0.0600 
    164 H164       -0.2569  -17.8501  -41.7089 H         1 UNK         0.3000 
    165 H165       -0.0193  -16.4138  -39.0730 H         1 UNK         0.0600 
    166 H166        2.8592  -17.4677  -38.9916 H         1 UNK         0.0600 
    167 H167        2.3480  -15.8818  -38.4144 H         1 UNK         0.0600 
    168 H168        1.7553  -17.3353  -37.6298 H         1 UNK         0.0600 
    169 H169        0.5235  -15.3534  -40.9285 H         1 UNK         0.3000 
    170 H170        2.6163  -14.8264  -42.9094 H         1 UNK         0.0600 
    171 H171        3.3489  -16.8266  -44.1866 H         1 UNK         0.0600 
    172 H172        1.6751  -17.2853  -44.4792 H         1 UNK         0.0600 
    173 H173        2.3273  -15.8120  -45.1892 H         1 UNK         0.0600 
    174 H174        0.6285  -14.0107  -43.4260 H         1 UNK         0.3000 
    175 H175       -2.1029  -14.7212  -44.5219 H         1 UNK         0.0600 
    176 H176       -3.3379  -16.2954  -43.0886 H         1 UNK         0.0600 
    177 H177       -2.8713  -15.4162  -41.6401 H         1 UNK         0.0600 
    178 H178       -3.9487  -14.6725  -42.8214 H         1 UNK         0.0600 
    179 H179       -1.7570  -12.6583  -43.8267 H         1 UNK         0.3000 
    180 H180       -1.7834  -10.8444  -41.5431 H         1 UNK         0.0600 
    181 H181        1.1652  -11.5295  -41.0592 H         1 UNK         0.0600 
    182 H182       -0.0703  -11.3054  -39.8280 H         1 UNK         0.0600 
    183 H183        0.4401   -9.9422  -40.8081 H         1 UNK         0.0600 
    184 H184       -1.0951   -9.9900  -43.4697 H         1 UNK         0.3000 
    185 H185       -0.3070   -9.8359  -45.5075 H         1 UNK         0.0600 
    186 H186        1.7535   -8.7747  -44.5119 H         1 UNK         0.0600 
    187 H187        2.7462  -10.0611  -45.1884 H         1 UNK         0.0600 
    188 H188        1.9034   -8.9376  -46.2539 H         1 UNK         0.0600 
    189 H189        0.8834  -12.3771  -46.0663 H         1 UNK         0.3000 
    190 H190       -1.7073  -18.9446  -47.4195 H         1 UNK         0.3000 
    191 H191       -4.0134  -19.7825  -45.9828 H         1 UNK         0.0600 
    192 H192       -2.7963  -18.7249  -44.0410 H         1 UNK         0.0600 
    193 H193       -2.8438  -17.6882  -45.4566 H         1 UNK         0.0600 
    194 H194       -1.3658  -18.5646  -45.0549 H         1 UNK         0.0600 
    195 H195       -0.6608  -21.0729  -46.0658 H         1 UNK         0.3000 
    196 H196       -1.0219  -23.0135  -43.9838 H         1 UNK         0.0600 
    197 H197        0.9637  -22.9030  -46.3162 H         1 UNK         0.0600 
    198 H198        1.2110  -22.2719  -44.6874 H         1 UNK         0.0600 
    199 H199        1.0737  -24.0001  -44.9431 H         1 UNK         0.0600 
    200 H200       -1.9052  -22.9701  -47.3734 H         1 UNK         0.3000 
    201 H201       -2.5874  -25.8418  -47.4783 H         1 UNK         0.0600 
    202 H202       -2.9225  -23.6037  -49.5498 H         1 UNK         0.0600 
    203 H203       -3.1680  -25.3202  -49.8270 H         1 UNK         0.0600 
    204 H204       -1.5599  -24.7167  -49.4646 H         1 UNK         0.0600 
    205 H205       -4.0040  -23.2176  -46.0331 H         1 UNK         0.3000 
    206 H206       -6.0042  -22.5358  -45.4119 H         1 UNK         0.0600 
    207 H207       -6.1814  -24.8663  -44.5053 H         1 UNK         0.0600 
    208 H208       -7.7507  -24.2055  -44.9321 H         1 UNK         0.0600 
    209 H209       -6.9833  -25.3827  -45.9883 H         1 UNK         0.0600 
    210 H210       -5.2572  -22.0382  -48.0796 H         1 UNK         0.3000 
    211 H211       -5.8862  -21.1310  -49.9428 H         1 UNK         0.0600 
    212 H212       -8.0638  -20.0297  -50.1911 H         1 UNK         0.0600 
    213 H213       -7.4835  -19.8011  -48.5511 H         1 UNK         0.0600 
    214 H214       -8.7524  -20.9802  -48.8845 H         1 UNK         0.0600 
    215 H215       -6.3257  -24.2135  -49.4720 H         1 UNK         0.3000 
    216 H216       -8.0988  -24.9926  -51.6241 H         1 UNK         0.0600 
    217 H217       -5.8694  -26.5766  -50.2437 H         1 UNK         0.0600 
    218 H218       -7.1525  -27.2296  -51.2499 H         1 UNK         0.0600 
    219 H219       -7.5442  -26.4994  -49.6989 H         1 UNK         0.0600 
    220 H220       -7.6613  -24.4339  -53.6471 H         1 UNK         0.3000 
    221 H221       -6.7141  -23.8853  -55.5740 H         1 UNK         0.0600 
    222 H222       -5.9656  -26.2735  -55.6043 H         1 UNK         0.0600 
    223 H223       -4.4498  -25.8156  -54.8292 H         1 UNK         0.0600 
    224 H224       -4.8309  -25.2253  -56.4399 H         1 UNK         0.0600 
    225 H225       -6.4833  -21.9664  -53.7892 H         1 UNK         0.3000 
    226 H226       -4.0699  -21.0713  -52.8789 H         1 UNK         0.0600 
    227 H227       -6.4781  -19.3989  -53.7763 H         1 UNK         0.0600 
    228 H228       -6.2419  -20.1148  -52.1850 H         1 UNK         0.0600 
    229 H229       -5.1905  -18.8199  -52.7277 H         1 UNK         0.0600 
    230 H230       -5.3078  -20.5557  -56.1559 H         1 UNK         0.3000 
    231 H231       -3.3871  -18.6331  -57.0335 H         1 UNK         0.0600 
    232 H232       -5.0362  -20.6851  -58.6082 H         1 UNK         0.0600 
    233 H233       -4.1951  -19.3044  -59.3026 H         1 UNK         0.0600 
    234 H234       -5.5392  -19.0430  -58.2033 H         1 UNK         0.0600 
    235 H235       -3.1251  -22.0737  -56.5011 H         1 UNK         0.3000 
    236 H236       -0.4991  -22.2499  -57.9086 H         1 UNK         0.0600 
    237 H237       -2.2538  -23.9106  -58.6140 H         1 UNK         0.0600 
    238 H238       -0.8860  -24.6867  -57.8341 H         1 UNK         0.0600 
    239 H239       -2.3881  -24.4654  -56.9458 H         1 UNK         0.0600 
    240 H240       -1.4893  -21.1595  -55.0815 H         1 UNK         0.3000 
    241 H241       -0.6939  -20.9199  -53.0950 H         1 UNK         0.0600 
    242 H242       -2.3178  -24.2771  -52.2732 H         1 UNK         0.3800 
    243 H243       -2.4391  -23.3701  -53.7541 H         1 UNK         0.3800 
    244 H244        1.6977  -21.4341  -54.4368 H         1 UNK         0.0800 
    245 H245        1.7716  -22.6253  -53.1874 H         1 UNK         0.0800 
    246 H246        1.3009  -19.1402  -54.3042 H         1 UNK         0.0800 
    247 H247        2.8156  -18.6281  -53.6041 H         1 UNK         0.0800 
@<TRIPOS>BOND
     1    1    2 1    
     2    1  127 1    
     3    1  128 1    
     4    1  129 1    
     5    2    3 2    
     6    2    4 am   BACKBONE|DICT|INTERRES
     7    4    5 1    
     8    4  130 1    
     9    5    6 1    
    10    5   65 1    
    11    5  131 1    
    12    6    7 1    
    13    6  132 1    
    14    6  133 1    
    15    7    8 1    
    16    8    9 1    
    17    8  134 1    
    18    8  135 1    
    19    9   10 ar   
    20    9   14 ar   
    21   10   11 ar   
    22   10  136 1    
    23   11   12 ar   
    24   11  126 1    
    25   12   13 ar   
    26   12  137 1    
    27   13   14 ar   
    28   13   15 1    
    29   14  138 1    
    30   15   16 1    
    31   15  139 1    
    32   15  140 1    
    33   16   17 1    
    34   17   18 1    
    35   17  141 1    
    36   17  142 1    
    37   18   19 1    
    38   18   67 1    
    39   18  143 1    
    40   19   20 am   BACKBONE|DICT|INTERRES
    41   19  144 1    
    42   20   21 2    
    43   20   22 1    
    44   22   23 1    
    45   22   24 1    
    46   22  145 1    
    47   23  146 1    
    48   23  147 1    
    49   23  148 1    
    50   24   25 am   BACKBONE|DICT|INTERRES
    51   24  149 1    
    52   25   26 2    
    53   25   27 1    
    54   27   28 1    
    55   27   29 1    
    56   27  150 1    
    57   28  151 1    
    58   28  152 1    
    59   28  153 1    
    60   29   30 am   BACKBONE|DICT|INTERRES
    61   29  154 1    
    62   30   31 2    
    63   30   32 1    
    64   32   33 1    
    65   32   34 1    
    66   32  155 1    
    67   33  156 1    
    68   33  157 1    
    69   33  158 1    
    70   34   35 am   BACKBONE|DICT|INTERRES
    71   34  159 1    
    72   35   36 2    
    73   35   37 1    
    74   37   38 1    
    75   37   39 1    
    76   37  160 1    
    77   38  161 1    
    78   38  162 1    
    79   38  163 1    
    80   39   40 am   BACKBONE|DICT|INTERRES
    81   39  164 1    
    82   40   41 2    
    83   40   42 1    
    84   42   43 1    
    85   42   44 1    
    86   42  165 1    
    87   43  166 1    
    88   43  167 1    
    89   43  168 1    
    90   44   45 am   BACKBONE|DICT|INTERRES
    91   44  169 1    
    92   45   46 2    
    93   45   47 1    
    94   47   48 1    
    95   47   49 1    
    96   47  170 1    
    97   48  171 1    
    98   48  172 1    
    99   48  173 1    
   100   49   50 am   BACKBONE|DICT|INTERRES
   101   49  174 1    
   102   50   51 2    
   103   50   52 1    
   104   52   53 1    
   105   52   54 1    
   106   52  175 1    
   107   53  176 1    
   108   53  177 1    
   109   53  178 1    
   110   54   55 am   BACKBONE|DICT|INTERRES
   111   54  179 1    
   112   55   56 2    
   113   55   57 1    
   114   57   58 1    
   115   57   59 1    
   116   57  180 1    
   117   58  181 1    
   118   58  182 1    
   119   58  183 1    
   120   59   60 am   BACKBONE|DICT|INTERRES
   121   59  184 1    
   122   60   61 2    
   123   60   62 1    
   124   62   63 1    
   125   62   64 1    
   126   62  185 1    
   127   63  186 1    
   128   63  187 1    
   129   63  188 1    
   130   64   65 am   BACKBONE|DICT|INTERRES
   131   64  189 1    
   132   65   66 2    
   133   67   68 2    
   134   67   69 am   BACKBONE|DICT|INTERRES
   135   69   70 1    
   136   69  190 1    
   137   70   71 1    
   138   70   72 1    
   139   70  191 1    
   140   71  192 1    
   141   71  193 1    
   142   71  194 1    
   143   72   73 2    
   144   72   74 am   BACKBONE|DICT|INTERRES
   145   74   75 1    
   146   74  195 1    
   147   75   76 1    
   148   75   77 1    
   149   75  196 1    
   150   76  197 1    
   151   76  198 1    
   152   76  199 1    
   153   77   78 2    
   154   77   79 am   BACKBONE|DICT|INTERRES
   155   79   80 1    
   156   79  200 1    
   157   80   81 1    
   158   80   82 1    
   159   80  201 1    
   160   81  202 1    
   161   81  203 1    
   162   81  204 1    
   163   82   83 2    
   164   82   84 am   BACKBONE|DICT|INTERRES
   165   84   85 1    
   166   84  205 1    
   167   85   86 1    
   168   85   87 1    
   169   85  206 1    
   170   86  207 1    
   171   86  208 1    
   172   86  209 1    
   173   87   88 2    
   174   87   89 am   BACKBONE|DICT|INTERRES
   175   89   90 1    
   176   89  210 1    
   177   90   91 1    
   178   90   92 1    
   179   90  211 1    
   180   91  212 1    
   181   91  213 1    
   182   91  214 1    
   183   92   93 2    
   184   92   94 am   BACKBONE|DICT|INTERRES
   185   94   95 1    
   186   94  215 1    
   187   95   96 1    
   188   95   97 1    
   189   95  216 1    
   190   96  217 1    
   191   96  218 1    
   192   96  219 1    
   193   97   98 2    
   194   97   99 am   BACKBONE|DICT|INTERRES
   195   99  100 1    
   196   99  220 1    
   197  100  101 1    
   198  100  102 1    
   199  100  221 1    
   200  101  222 1    
   201  101  223 1    
   202  101  224 1    
   203  102  103 2    
   204  102  104 am   BACKBONE|DICT|INTERRES
   205  104  105 1    
   206  104  225 1    
   207  105  106 1    
   208  105  107 1    
   209  105  226 1    
   210  106  227 1    
   211  106  228 1    
   212  106  229 1    
   213  107  108 2    
   214  107  109 am   BACKBONE|DICT|INTERRES
   215  109  110 1    
   216  109  230 1    
   217  110  111 1    
   218  110  112 1    
   219  110  231 1    
   220  111  232 1    
   221  111  233 1    
   222  111  234 1    
   223  112  113 2    
   224  112  114 am   BACKBONE|DICT|INTERRES
   225  114  115 1    
   226  114  235 1    
   227  115  116 1    
   228  115  117 1    
   229  115  236 1    
   230  116  237 1    
   231  116  238 1    
   232  116  239 1    
   233  117  118 2    
   234  117  119 am   BACKBONE|DICT|INTERRES
   235  119  120 1    
   236  119  240 1    
   237  120  121 1    
   238  120  124 1    
   239  120  241 1    
   240  121  122 am   BACKBONE|DICT|INTERRES
   241  121  123 2    
   242  122  242 1    
   243  122  243 1    
   244  124  125 1    
   245  124  244 1    
   246  124  245 1    
   247  125  126 1    
   248  126  246 1    
   249  126  247 1    
@<TRIPOS>SUBSTRUCTURE
     1 UNK         1 GROUP             0       ****    0 ROOT    
