@<TRIPOS>MOLECULE
3R540
247   249    1
SMALL
USER_CHARGES


@<TRIPOS>ATOM
      1 CA         -6.9687  -18.8245  -46.6554 C.3       0 UNK        -0.1800 
      2 C          -6.3256  -17.4722  -46.9130 C.2       0 UNK         0.5000 
      3 O          -6.8647  -16.4559  -46.4757 O.2       0 UNK        -0.5000 
      4 N          -5.1685  -17.4378  -47.5890 N.am      1 UNK        -0.5000 
      5 CA         -4.4034  -16.2227  -47.9166 C.3       1 UNK         0.1400 
      6 C6         -3.5793  -16.3779  -49.2232 C.3       23 UNK        -0.0398 
      7 S7         -2.1556  -17.5267  -49.1600 S.3       23 UNK        -0.2404 
      8 C8         -0.8164  -16.3745  -49.5996 C.3       23 UNK        -0.0205 
      9 C9          0.5523  -17.0376  -49.6257 C.ar      23 UNK        -0.0193 
     10 C10         0.9760  -17.7373  -50.7602 C.ar      23 UNK        -0.1150 
     11 C11         2.2592  -18.2908  -50.8122 C.ar      23 UNK        -0.0193 
     12 C12         3.1141  -18.1521  -49.7159 C.ar      23 UNK        -0.1150 
     13 C13         2.7066  -17.4493  -48.5802 C.ar      23 UNK        -0.0193 
     14 C14         1.4230  -16.8949  -48.5409 C.ar      23 UNK        -0.1150 
     15 C15         3.6750  -17.2603  -47.4210 C.3       23 UNK        -0.0205 
     16 S16         3.6222  -18.6520  -46.2496 S.3       23 UNK        -0.2404 
     17 C17         2.0260  -18.3432  -45.4283 C.3       23 UNK        -0.0398 
     18 CA          0.9138  -19.2940  -45.9248 C.3       11 UNK         0.1400 
     19 N           1.2275  -20.6798  -45.5730 N.am      11 UNK        -0.5000 
     20 C           0.5698  -21.7746  -45.9714 C.2       10 UNK         0.5000 
     21 O          -0.4068  -21.7605  -46.7164 O.2       10 UNK        -0.5000 
     22 CA          1.0430  -23.1028  -45.3507 C.3       10 UNK         0.1400 
     23 CB          2.1658  -23.7205  -46.1965 C.3       10 UNK        -0.1800 
     24 N           1.5087  -22.9553  -43.9676 N.am      10 UNK        -0.5000 
     25 C           0.8166  -22.4246  -42.9505 C.2       9 UNK         0.5000 
     26 O          -0.3454  -22.0296  -43.0601 O.2       9 UNK        -0.5000 
     27 CA          1.5547  -22.2250  -41.6133 C.3       9 UNK         0.1400 
     28 CB          1.3787  -23.4462  -40.6923 C.3       9 UNK        -0.1800 
     29 N           2.9688  -21.8390  -41.7440 N.am      9 UNK        -0.5000 
     30 C           4.0106  -22.5664  -42.1822 C.2       8 UNK         0.5000 
     31 O           3.9053  -23.7136  -42.6168 O.2       8 UNK        -0.5000 
     32 CA          5.4030  -21.8993  -42.1745 C.3       8 UNK         0.1400 
     33 CB          5.7975  -21.4881  -43.6023 C.3       8 UNK        -0.1800 
     34 N           5.4907  -20.7208  -41.3114 N.am      8 UNK        -0.5000 
     35 C           5.3769  -20.7167  -39.9760 C.2       7 UNK         0.5000 
     36 O           5.3034  -21.7410  -39.2964 O.2       7 UNK        -0.5000 
     37 CA          5.3024  -19.3393  -39.2812 C.3       7 UNK         0.1400 
     38 CB          6.5974  -19.0605  -38.5020 C.3       7 UNK        -0.1800 
     39 N           5.0384  -18.2035  -40.1757 N.am      7 UNK        -0.5000 
     40 C           3.9462  -18.0279  -40.9317 C.2       6 UNK         0.5000 
     41 O           3.0254  -18.8476  -41.0176 O.2       6 UNK        -0.5000 
     42 CA          3.9108  -16.7437  -41.7715 C.3       6 UNK         0.1400 
     43 CB          4.8944  -16.8313  -42.9532 C.3       6 UNK        -0.1800 
     44 N           2.5564  -16.5503  -42.2734 N.am      6 UNK        -0.5000 
     45 C           2.0174  -15.3809  -42.6293 C.2       5 UNK         0.5000 
     46 O           2.6044  -14.2990  -42.5440 O.2       5 UNK        -0.5000 
     47 CA          0.5568  -15.4406  -43.1211 C.3       5 UNK         0.1400 
     48 CB         -0.3930  -15.4882  -41.9127 C.3       5 UNK        -0.1800 
     49 N           0.1869  -14.3229  -43.9985 N.am      5 UNK        -0.5000 
     50 C           0.7732  -14.0378  -45.1737 C.2       4 UNK         0.5000 
     51 O           1.6601  -14.7314  -45.6711 O.2       4 UNK        -0.5000 
     52 CA          0.2919  -12.7742  -45.9165 C.3       4 UNK         0.1400 
     53 CB          0.6451  -12.7939  -47.4151 C.3       4 UNK        -0.1800 
     54 N          -1.1524  -12.6167  -45.7751 N.am      4 UNK        -0.5000 
     55 C          -1.7793  -11.5543  -45.2499 C.2       3 UNK         0.5000 
     56 O          -1.2042  -10.5249  -44.8947 O.2       3 UNK        -0.5000 
     57 CA         -3.3084  -11.6715  -45.0539 C.3       3 UNK         0.1400 
     58 CB         -4.0539  -10.9988  -46.2164 C.3       3 UNK        -0.1800 
     59 N          -3.7633  -13.0593  -44.9381 N.am      3 UNK        -0.5000 
     60 C          -3.3751  -13.9096  -43.9787 C.2       2 UNK         0.5000 
     61 O          -2.7638  -13.5491  -42.9730 O.2       2 UNK        -0.5000 
     62 CA         -3.6403  -15.4129  -44.1985 C.3       2 UNK         0.1400 
     63 CB         -4.5620  -15.9752  -43.1052 C.3       2 UNK        -0.1800 
     64 N          -4.1892  -15.7768  -45.5058 N.am      2 UNK        -0.5000 
     65 C          -3.6187  -15.6359  -46.7114 C.2       1 UNK         0.5000 
     66 O          -2.5612  -15.0265  -46.8838 O.2       1 UNK        -0.5000 
     67 C          -0.4591  -18.8102  -45.4053 C.2       11 UNK         0.5000 
     68 O          -0.9641  -17.8126  -45.9136 O.2       11 UNK        -0.5000 
     69 N          -1.0281  -19.4875  -44.3994 N.am      12 UNK        -0.5000 
     70 CA         -2.3765  -19.2289  -43.8978 C.3       12 UNK         0.1400 
     71 CB         -2.3369  -19.1411  -42.3645 C.3       12 UNK        -0.1800 
     72 C          -3.3590  -20.3180  -44.3580 C.2       12 UNK         0.5000 
     73 O          -4.5221  -20.0073  -44.6122 O.2       12 UNK        -0.5000 
     74 N          -2.8867  -21.5700  -44.4455 N.am      13 UNK        -0.5000 
     75 CA         -3.6909  -22.7354  -44.8135 C.3       13 UNK         0.1400 
     76 CB         -2.9346  -24.0137  -44.4234 C.3       13 UNK        -0.1800 
     77 C          -4.0919  -22.7782  -46.3006 C.2       13 UNK         0.5000 
     78 O          -5.1627  -23.3020  -46.6107 O.2       13 UNK        -0.5000 
     79 N          -3.2389  -22.2530  -47.1929 N.am      14 UNK        -0.5000 
     80 CA         -3.4923  -22.1637  -48.6315 C.3       14 UNK         0.1400 
     81 CB         -2.2100  -21.7262  -49.3578 C.3       14 UNK        -0.1800 
     82 C          -4.6510  -21.1970  -48.9288 C.2       14 UNK         0.5000 
     83 O          -4.5177  -19.9980  -48.6837 O.2       14 UNK        -0.5000 
     84 N          -5.7642  -21.7387  -49.4306 N.am      15 UNK        -0.5000 
     85 CA         -6.9860  -21.0141  -49.7609 C.3       15 UNK         0.1400 
     86 CB         -8.0948  -21.4576  -48.7921 C.3       15 UNK        -0.1800 
     87 C          -7.3955  -21.3542  -51.1980 C.2       15 UNK         0.5000 
     88 O          -7.1542  -22.4789  -51.6449 O.2       15 UNK        -0.5000 
     89 N          -8.0370  -20.3923  -51.8761 N.am      16 UNK        -0.5000 
     90 CA         -8.6426  -20.5031  -53.2084 C.3       16 UNK         0.1400 
     91 CB         -9.9769  -21.2760  -53.1081 C.3       16 UNK        -0.1800 
     92 C          -7.6658  -21.0768  -54.2570 C.2       16 UNK         0.5000 
     93 O          -6.6776  -20.4180  -54.5833 O.2       16 UNK        -0.5000 
     94 N          -7.9298  -22.3008  -54.7328 N.am      17 UNK        -0.5000 
     95 CA         -7.1031  -23.0335  -55.6905 C.3       17 UNK         0.1400 
     96 CB         -7.8080  -24.3452  -56.0658 C.3       17 UNK        -0.1800 
     97 C          -5.6736  -23.3145  -55.1914 C.2       17 UNK         0.5000 
     98 O          -4.7471  -23.2944  -55.9996 O.2       17 UNK        -0.5000 
     99 N          -5.5021  -23.5363  -53.8797 N.am      18 UNK        -0.5000 
    100 CA        -4.1902  -23.7502  -53.2656 C.3       18 UNK         0.1400 
    101 CB        -4.3514  -24.3969  -51.8827 C.3       18 UNK        -0.1800 
    102 C         -3.3783  -22.4477  -53.1738 C.2       18 UNK         0.5000 
    103 O         -2.1645  -22.4779  -53.3710 O.2       18 UNK        -0.5000 
    104 N         -4.0602  -21.3210  -52.9218 N.am      19 UNK        -0.5000 
    105 CA        -3.4603  -19.9853  -52.9376 C.3       19 UNK         0.1400 
    106 CB        -4.4224  -18.9661  -52.3092 C.3       19 UNK        -0.1800 
    107 C         -3.0574  -19.5661  -54.3622 C.2       19 UNK         0.5000 
    108 O         -1.9644  -19.0320  -54.5522 O.2       19 UNK        -0.5000 
    109 N         -3.9224  -19.8676  -55.3416 N.am      20 UNK        -0.5000 
    110 CA        -3.6748  -19.6605  -56.7691 C.3       20 UNK         0.1400 
    111 CB        -4.9645  -19.9329  -57.5571 C.3       20 UNK        -0.1800 
    112 C         -2.5124  -20.5164  -57.3086 C.2       20 UNK         0.5000 
    113 O         -1.7310  -20.0246  -58.1232 O.2       20 UNK        -0.5000 
    114 N         -2.4037  -21.7659  -56.8323 N.am      21 UNK        -0.5000 
    115 CA        -1.2954  -22.6742  -57.1316 C.3       21 UNK         0.1400 
    116 CB        -1.6428  -24.0951  -56.6627 C.3       21 UNK        -0.1800 
    117 C          0.0350  -22.2073  -56.5132 C.2       21 UNK         0.5000 
    118 O          1.0745  -22.3283  -57.1632 O.2       21 UNK        -0.5000 
    119 N         -0.0208  -21.6731  -55.2847 N.am      22 UNK        -0.5000 
    120 CA         1.1130  -21.0249  -54.6106 C.3       22 UNK         0.1400 
    121 C          1.5695  -19.7254  -55.3327 C.2       22 UNK         0.5000 
    122 N          0.6620  -18.8010  -55.6209 N.am      22 UNK        -0.7600 
    123 O          2.7474  -19.5567  -55.6358 O.2       22 UNK        -0.5000 
    124 C124        0.8249  -20.7756  -53.1044 C.3       23 UNK        -0.0398 
    125 S125        2.3455  -20.7571  -52.0956 S.3       23 UNK        -0.2404 
    126 C126        2.7565  -18.9840  -52.0695 C.3       23 UNK        -0.0205 
    127 H127       -6.2744  -19.6446  -46.8309 H         1 UNK         0.0600 
    128 H128       -7.8372  -18.9514  -47.3003 H         1 UNK         0.0600 
    129 H129       -7.2994  -18.8910  -45.6189 H         1 UNK         0.0600 
    130 H130       -4.7658  -18.3132  -47.9228 H         1 UNK         0.3000 
    131 H131       -5.1432  -15.4528  -48.1462 H         1 UNK         0.0600 
    132 H132       -3.2374  -15.3944  -49.5492 H         1 UNK         0.0800 
    133 H133       -4.2383  -16.7243  -50.0201 H         1 UNK         0.0800 
    134 H134       -1.0247  -15.9365  -50.5768 H         1 UNK         0.0800 
    135 H135       -0.8155  -15.5495  -48.8870 H         1 UNK         0.0800 
    136 H136        0.3141  -17.8291  -51.6098 H         1 UNK         0.1150 
    137 H137        4.1090  -18.5733  -49.7547 H         1 UNK         0.1150 
    138 H138        1.1017  -16.3399  -47.6709 H         1 UNK         0.1150 
    139 H139        4.6915  -17.1696  -47.8064 H         1 UNK         0.0800 
    140 H140        3.4711  -16.3246  -46.8984 H         1 UNK         0.0800 
    141 H141        1.7480  -17.3013  -45.5822 H         1 UNK         0.0800 
    142 H142        2.1715  -18.4578  -44.3537 H         1 UNK         0.0800 
    143 H143        0.8658  -19.2409  -47.0144 H         1 UNK         0.0600 
    144 H144        2.0230  -20.8087  -44.9661 H         1 UNK         0.3000 
    145 H145        0.1991  -23.7924  -45.3464 H         1 UNK         0.0600 
    146 H146        2.4566  -24.6983  -45.8118 H         1 UNK         0.0600 
    147 H147        1.8450  -23.8601  -47.2298 H         1 UNK         0.0600 
    148 H148        3.0544  -23.0879  -46.2100 H         1 UNK         0.0600 
    149 H149        2.4453  -23.2885  -43.7579 H         1 UNK         0.3000 
    150 H150        1.0719  -21.3781  -41.1228 H         1 UNK         0.0600 
    151 H151        0.3219  -23.6394  -40.5037 H         1 UNK         0.0600 
    152 H152        1.8570  -23.2827  -39.7265 H         1 UNK         0.0600 
    153 H153        1.8005  -24.3525  -41.1272 H         1 UNK         0.0600 
    154 H154        3.1634  -20.8854  -41.4560 H         1 UNK         0.3000 
    155 H155        6.1201  -22.6396  -41.8143 H         1 UNK         0.0600 
    156 H156        5.1202  -20.7344  -44.0067 H         1 UNK         0.0600 
    157 H157        5.7755  -22.3444  -44.2779 H         1 UNK         0.0600 
    158 H158        6.8084  -21.0810  -43.6312 H         1 UNK         0.0600 
    159 H159        5.5599  -19.8285  -41.7766 H         1 UNK         0.3000 
    160 H160        4.4785  -19.3906  -38.5665 H         1 UNK         0.0600 
    161 H161        7.4559  -18.9721  -39.1690 H         1 UNK         0.0600 
    162 H162        6.8120  -19.8638  -37.7958 H         1 UNK         0.0600 
    163 H163        6.5217  -18.1379  -37.9261 H         1 UNK         0.0600 
    164 H164        5.7495  -17.4863  -40.1886 H         1 UNK         0.3000 
    165 H165        4.1817  -15.9060  -41.1253 H         1 UNK         0.0600 
    166 H166        4.8420  -15.9419  -43.5815 H         1 UNK         0.0600 
    167 H167        5.9241  -16.9187  -42.6054 H         1 UNK         0.0600 
    168 H168        4.6867  -17.6959  -43.5839 H         1 UNK         0.0600 
    169 H169        1.9945  -17.3918  -42.2532 H         1 UNK         0.3000 
    170 H170        0.4292  -16.3606  -43.6936 H         1 UNK         0.0600 
    171 H171       -0.4113  -14.5373  -41.3789 H         1 UNK         0.0600 
    172 H172       -1.4113  -15.7250  -42.2125 H         1 UNK         0.0600 
    173 H173       -0.0927  -16.2571  -41.1995 H         1 UNK         0.0600 
    174 H174       -0.5312  -13.7010  -43.6523 H         1 UNK         0.3000 
    175 H175        0.8154  -11.9336  -45.4573 H         1 UNK         0.0600 
    176 H176        0.1875  -13.6438  -47.9209 H         1 UNK         0.0600 
    177 H177        0.3044  -11.8854  -47.9116 H         1 UNK         0.0600 
    178 H178        1.7232  -12.8605  -47.5663 H         1 UNK         0.0600 
    179 H179       -1.7044  -13.4243  -46.0531 H         1 UNK         0.3000 
    180 H180       -3.5658  -11.1519  -44.1287 H         1 UNK         0.0600 
    181 H181       -5.1322  -11.0173  -46.0577 H         1 UNK         0.0600 
    182 H182       -3.8443  -11.4915  -47.1667 H         1 UNK         0.0600 
    183 H183       -3.7589   -9.9534  -46.3163 H         1 UNK         0.0600 
    184 H184       -4.2550  -13.4413  -45.7319 H         1 UNK         0.3000 
    185 H185       -2.6720  -15.9092  -44.1230 H         1 UNK         0.0600 
    186 H186       -4.6957  -17.0518  -43.2129 H         1 UNK         0.0600 
    187 H187       -4.1475  -15.7991  -42.1116 H         1 UNK         0.0600 
    188 H188       -5.5486  -15.5114  -43.1378 H         1 UNK         0.0600 
    189 H189       -5.1094  -16.2015  -45.4964 H         1 UNK         0.3000 
    190 H190       -0.5610  -20.3055  -44.0248 H         1 UNK         0.3000 
    191 H191       -2.7537  -18.2786  -44.2776 H         1 UNK         0.0600 
    192 H192       -3.3293  -18.9402  -41.9592 H         1 UNK         0.0600 
    193 H193       -1.6816  -18.3354  -42.0343 H         1 UNK         0.0600 
    194 H194       -1.9797  -20.0684  -41.9150 H         1 UNK         0.0600 
    195 H195       -1.9340  -21.7548  -44.1512 H         1 UNK         0.3000 
    196 H196       -4.6120  -22.7012  -44.2278 H         1 UNK         0.0600 
    197 H197       -2.0253  -24.1349  -45.0100 H         1 UNK         0.0600 
    198 H198       -2.6577  -24.0063  -43.3689 H         1 UNK         0.0600 
    199 H199       -3.5515  -24.8972  -44.5924 H         1 UNK         0.0600 
    200 H200       -2.3548  -21.8716  -46.8695 H         1 UNK         0.3000 
    201 H201       -3.7567  -23.1602  -48.9905 H         1 UNK         0.0600 
    202 H202       -1.8537  -20.7592  -48.9992 H         1 UNK         0.0600 
    203 H203       -2.3777  -21.6357  -50.4305 H         1 UNK         0.0600 
    204 H204       -1.4087  -22.4512  -49.2155 H         1 UNK         0.0600 
    205 H205       -5.7942  -22.7287  -49.6289 H         1 UNK         0.3000 
    206 H206       -6.8346  -19.9360  -49.6755 H         1 UNK         0.0600 
    207 H207       -8.9972  -20.8609  -48.9302 H         1 UNK         0.0600 
    208 H208       -8.3662  -22.5036  -48.9426 H         1 UNK         0.0600 
    209 H209       -7.7849  -21.3514  -47.7531 H         1 UNK         0.0600 
    210 H210       -8.1598  -19.4951  -51.4284 H         1 UNK         0.3000 
    211 H211       -8.8721  -19.4877  -53.5346 H         1 UNK         0.0600 
    212 H212      -10.4706  -21.3427  -54.0786 H         1 UNK         0.0600 
    213 H213      -10.6678  -20.7678  -52.4353 H         1 UNK         0.0600 
    214 H214       -9.8398  -22.2894  -52.7289 H         1 UNK         0.0600 
    215 H215       -8.7451  -22.7815  -54.3820 H         1 UNK         0.3000 
    216 H216       -7.0230  -22.4218  -56.5909 H         1 UNK         0.0600 
    217 H217       -7.9486  -24.9894  -55.1969 H         1 UNK         0.0600 
    218 H218       -7.2260  -24.9052  -56.7992 H         1 UNK         0.0600 
    219 H219       -8.7869  -24.1557  -56.5065 H         1 UNK         0.0600 
    220 H220       -6.2974  -23.4662  -53.2533 H         1 UNK         0.3000 
    221 H221       -3.6277  -24.4469  -53.8908 H         1 UNK         0.0600 
    222 H222       -4.8769  -25.3494  -51.9528 H         1 UNK         0.0600 
    223 H223       -4.9071  -23.7585  -51.1993 H         1 UNK         0.0600 
    224 H224       -3.3790  -24.5938  -51.4294 H         1 UNK         0.0600 
    225 H225       -5.0645  -21.3748  -52.8317 H         1 UNK         0.3000 
    226 H226       -2.5536  -20.0087  -52.3291 H         1 UNK         0.0600 
    227 H227       -5.3613  -18.8959  -52.8579 H         1 UNK         0.0600 
    228 H228       -4.6551  -19.2266  -51.2779 H         1 UNK         0.0600 
    229 H229       -3.9756  -17.9713  -52.2961 H         1 UNK         0.0600 
    230 H230       -4.8287  -20.2507  -55.0874 H         1 UNK         0.3000 
    231 H231       -3.4068  -18.6112  -56.9089 H         1 UNK         0.0600 
    232 H232       -5.2792  -20.9722  -57.4657 H         1 UNK         0.0600 
    233 H233       -4.8236  -19.7254  -58.6185 H         1 UNK         0.0600 
    234 H234       -5.7825  -19.3029  -57.2071 H         1 UNK         0.0600 
    235 H235       -3.1417  -22.1312  -56.2398 H         1 UNK         0.3000 
    236 H236       -1.1662  -22.7002  -58.2157 H         1 UNK         0.0600 
    237 H237       -2.5372  -24.4675  -57.1623 H         1 UNK         0.0600 
    238 H238       -0.8328  -24.7897  -56.8884 H         1 UNK         0.0600 
    239 H239       -1.8177  -24.1333  -55.5876 H         1 UNK         0.0600 
    240 H240       -0.9066  -21.6664  -54.7924 H         1 UNK         0.3000 
    241 H241        1.9415  -21.7335  -54.6750 H         1 UNK         0.0600 
    242 H242        0.9428  -17.9603  -56.0988 H         1 UNK         0.3800 
    243 H243       -0.3083  -18.9167  -55.3341 H         1 UNK         0.3800 
    244 H244        0.2162  -21.5876  -52.7060 H         1 UNK         0.0800 
    245 H245        0.2415  -19.8678  -52.9439 H         1 UNK         0.0800 
    246 H246        2.3581  -18.4771  -52.9479 H         1 UNK         0.0800 
    247 H247        3.8405  -18.8833  -52.1406 H         1 UNK         0.0800 
@<TRIPOS>BOND
     1    1    2 1    
     2    1  127 1    
     3    1  128 1    
     4    1  129 1    
     5    2    3 2    
     6    2    4 am   BACKBONE|DICT|INTERRES
     7    4    5 1    
     8    4  130 1    
     9    5    6 1    
    10    5   65 1    
    11    5  131 1    
    12    6    7 1    
    13    6  132 1    
    14    6  133 1    
    15    7    8 1    
    16    8    9 1    
    17    8  134 1    
    18    8  135 1    
    19    9   10 ar   
    20    9   14 ar   
    21   10   11 ar   
    22   10  136 1    
    23   11   12 ar   
    24   11  126 1    
    25   12   13 ar   
    26   12  137 1    
    27   13   14 ar   
    28   13   15 1    
    29   14  138 1    
    30   15   16 1    
    31   15  139 1    
    32   15  140 1    
    33   16   17 1    
    34   17   18 1    
    35   17  141 1    
    36   17  142 1    
    37   18   19 1    
    38   18   67 1    
    39   18  143 1    
    40   19   20 am   BACKBONE|DICT|INTERRES
    41   19  144 1    
    42   20   21 2    
    43   20   22 1    
    44   22   23 1    
    45   22   24 1    
    46   22  145 1    
    47   23  146 1    
    48   23  147 1    
    49   23  148 1    
    50   24   25 am   BACKBONE|DICT|INTERRES
    51   24  149 1    
    52   25   26 2    
    53   25   27 1    
    54   27   28 1    
    55   27   29 1    
    56   27  150 1    
    57   28  151 1    
    58   28  152 1    
    59   28  153 1    
    60   29   30 am   BACKBONE|DICT|INTERRES
    61   29  154 1    
    62   30   31 2    
    63   30   32 1    
    64   32   33 1    
    65   32   34 1    
    66   32  155 1    
    67   33  156 1    
    68   33  157 1    
    69   33  158 1    
    70   34   35 am   BACKBONE|DICT|INTERRES
    71   34  159 1    
    72   35   36 2    
    73   35   37 1    
    74   37   38 1    
    75   37   39 1    
    76   37  160 1    
    77   38  161 1    
    78   38  162 1    
    79   38  163 1    
    80   39   40 am   BACKBONE|DICT|INTERRES
    81   39  164 1    
    82   40   41 2    
    83   40   42 1    
    84   42   43 1    
    85   42   44 1    
    86   42  165 1    
    87   43  166 1    
    88   43  167 1    
    89   43  168 1    
    90   44   45 am   BACKBONE|DICT|INTERRES
    91   44  169 1    
    92   45   46 2    
    93   45   47 1    
    94   47   48 1    
    95   47   49 1    
    96   47  170 1    
    97   48  171 1    
    98   48  172 1    
    99   48  173 1    
   100   49   50 am   BACKBONE|DICT|INTERRES
   101   49  174 1    
   102   50   51 2    
   103   50   52 1    
   104   52   53 1    
   105   52   54 1    
   106   52  175 1    
   107   53  176 1    
   108   53  177 1    
   109   53  178 1    
   110   54   55 am   BACKBONE|DICT|INTERRES
   111   54  179 1    
   112   55   56 2    
   113   55   57 1    
   114   57   58 1    
   115   57   59 1    
   116   57  180 1    
   117   58  181 1    
   118   58  182 1    
   119   58  183 1    
   120   59   60 am   BACKBONE|DICT|INTERRES
   121   59  184 1    
   122   60   61 2    
   123   60   62 1    
   124   62   63 1    
   125   62   64 1    
   126   62  185 1    
   127   63  186 1    
   128   63  187 1    
   129   63  188 1    
   130   64   65 am   BACKBONE|DICT|INTERRES
   131   64  189 1    
   132   65   66 2    
   133   67   68 2    
   134   67   69 am   BACKBONE|DICT|INTERRES
   135   69   70 1    
   136   69  190 1    
   137   70   71 1    
   138   70   72 1    
   139   70  191 1    
   140   71  192 1    
   141   71  193 1    
   142   71  194 1    
   143   72   73 2    
   144   72   74 am   BACKBONE|DICT|INTERRES
   145   74   75 1    
   146   74  195 1    
   147   75   76 1    
   148   75   77 1    
   149   75  196 1    
   150   76  197 1    
   151   76  198 1    
   152   76  199 1    
   153   77   78 2    
   154   77   79 am   BACKBONE|DICT|INTERRES
   155   79   80 1    
   156   79  200 1    
   157   80   81 1    
   158   80   82 1    
   159   80  201 1    
   160   81  202 1    
   161   81  203 1    
   162   81  204 1    
   163   82   83 2    
   164   82   84 am   BACKBONE|DICT|INTERRES
   165   84   85 1    
   166   84  205 1    
   167   85   86 1    
   168   85   87 1    
   169   85  206 1    
   170   86  207 1    
   171   86  208 1    
   172   86  209 1    
   173   87   88 2    
   174   87   89 am   BACKBONE|DICT|INTERRES
   175   89   90 1    
   176   89  210 1    
   177   90   91 1    
   178   90   92 1    
   179   90  211 1    
   180   91  212 1    
   181   91  213 1    
   182   91  214 1    
   183   92   93 2    
   184   92   94 am   BACKBONE|DICT|INTERRES
   185   94   95 1    
   186   94  215 1    
   187   95   96 1    
   188   95   97 1    
   189   95  216 1    
   190   96  217 1    
   191   96  218 1    
   192   96  219 1    
   193   97   98 2    
   194   97   99 am   BACKBONE|DICT|INTERRES
   195   99  100 1    
   196   99  220 1    
   197  100  101 1    
   198  100  102 1    
   199  100  221 1    
   200  101  222 1    
   201  101  223 1    
   202  101  224 1    
   203  102  103 2    
   204  102  104 am   BACKBONE|DICT|INTERRES
   205  104  105 1    
   206  104  225 1    
   207  105  106 1    
   208  105  107 1    
   209  105  226 1    
   210  106  227 1    
   211  106  228 1    
   212  106  229 1    
   213  107  108 2    
   214  107  109 am   BACKBONE|DICT|INTERRES
   215  109  110 1    
   216  109  230 1    
   217  110  111 1    
   218  110  112 1    
   219  110  231 1    
   220  111  232 1    
   221  111  233 1    
   222  111  234 1    
   223  112  113 2    
   224  112  114 am   BACKBONE|DICT|INTERRES
   225  114  115 1    
   226  114  235 1    
   227  115  116 1    
   228  115  117 1    
   229  115  236 1    
   230  116  237 1    
   231  116  238 1    
   232  116  239 1    
   233  117  118 2    
   234  117  119 am   BACKBONE|DICT|INTERRES
   235  119  120 1    
   236  119  240 1    
   237  120  121 1    
   238  120  124 1    
   239  120  241 1    
   240  121  122 am   BACKBONE|DICT|INTERRES
   241  121  123 2    
   242  122  242 1    
   243  122  243 1    
   244  124  125 1    
   245  124  244 1    
   246  124  245 1    
   247  125  126 1    
   248  126  246 1    
   249  126  247 1    
@<TRIPOS>SUBSTRUCTURE
     1 UNK         1 GROUP             0       ****    0 ROOT    
