@<TRIPOS>MOLECULE
3R540
247   249    1
SMALL
USER_CHARGES


@<TRIPOS>ATOM
      1 CA         -6.0550  -17.4613  -46.6331 C.3       0 UNK        -0.1800 
      2 C          -5.1354  -16.8609  -47.6856 C.2       0 UNK         0.5000 
      3 O          -5.1312  -17.3180  -48.8276 O.2       0 UNK        -0.5000 
      4 N          -4.3465  -15.8488  -47.3133 N.am      1 UNK        -0.5000 
      5 CA         -3.4210  -15.1587  -48.2039 C.3       1 UNK         0.1400 
      6 C6         -2.0853  -15.9293  -48.3740 C.3       23 UNK        -0.0398 
      7 S7         -1.2623  -15.5098  -49.9433 S.3       23 UNK        -0.2404 
      8 C8         -1.8909  -16.8487  -51.0147 C.3       23 UNK        -0.0205 
      9 C9         -1.0708  -18.1399  -51.0435 C.ar      23 UNK        -0.0193 
     10 C10        -1.3165  -19.0614  -52.0674 C.ar      23 UNK        -0.1150 
     11 C11        -0.6353  -20.2815  -52.1189 C.ar      23 UNK        -0.0193 
     12 C12         0.3152  -20.5762  -51.1383 C.ar      23 UNK        -0.1150 
     13 C13         0.5822  -19.6646  -50.1152 C.ar      23 UNK        -0.0193 
     14 C14        -0.1134  -18.4537  -50.0707 C.ar      23 UNK        -0.1150 
     15 C15         1.6169  -19.9841  -49.0504 C.3       23 UNK        -0.0205 
     16 S16         0.8263  -20.6252  -47.5437 S.3       23 UNK        -0.2404 
     17 C17         1.5096  -22.3159  -47.4681 C.3       23 UNK        -0.0398 
     18 CA          0.8950  -23.1959  -46.3518 C.3       11 UNK         0.1400 
     19 N           1.0284  -22.5943  -45.0174 N.am      11 UNK        -0.5000 
     20 C           0.7581  -23.2183  -43.8599 C.2       10 UNK         0.5000 
     21 O           0.2813  -24.3528  -43.8035 O.2       10 UNK        -0.5000 
     22 CA          1.0464  -22.4441  -42.5564 C.3       10 UNK         0.1400 
     23 CB          1.3682  -23.3722  -41.3670 C.3       10 UNK        -0.1800 
     24 N           2.0705  -21.4061  -42.7083 N.am      10 UNK        -0.5000 
     25 C           3.3728  -21.5631  -42.9944 C.2       9 UNK         0.5000 
     26 O           3.9141  -22.6551  -43.1680 O.2       9 UNK        -0.5000 
     27 CA          4.2152  -20.2790  -43.1153 C.3       9 UNK         0.1400 
     28 CB          4.5764  -20.0059  -44.5858 C.3       9 UNK        -0.1800 
     29 N           3.5059  -19.1174  -42.5705 N.am      9 UNK        -0.5000 
     30 C           3.7164  -18.6015  -41.3528 C.2       8 UNK         0.5000 
     31 O           4.5893  -19.0008  -40.5810 O.2       8 UNK        -0.5000 
     32 CA          2.7916  -17.4527  -40.9111 C.3       8 UNK         0.1400 
     33 CB          3.2839  -16.1082  -41.4686 C.3       8 UNK        -0.1800 
     34 N           1.3852  -17.6453  -41.2737 N.am      8 UNK        -0.5000 
     35 C           0.5745  -18.5550  -40.7115 C.2       7 UNK         0.5000 
     36 O           0.9589  -19.4154  -39.9200 O.2       7 UNK        -0.5000 
     37 CA         -0.9164  -18.4900  -41.0831 C.3       7 UNK         0.1400 
     38 CB         -1.6034  -17.3282  -40.3478 C.3       7 UNK        -0.1800 
     39 N          -1.0916  -18.3139  -42.5214 N.am      7 UNK        -0.5000 
     40 C          -1.4836  -19.2743  -43.3694 C.2       6 UNK         0.5000 
     41 O          -1.8205  -20.4062  -43.0244 O.2       6 UNK        -0.5000 
     42 CA         -1.4701  -18.9272  -44.8712 C.3       6 UNK         0.1400 
     43 CB         -2.8488  -18.4217  -45.3172 C.3       6 UNK        -0.1800 
     44 N          -0.4652  -17.9320  -45.2444 N.am      6 UNK        -0.5000 
     45 C           0.8518  -18.0285  -45.0181 C.2       5 UNK         0.5000 
     46 O           1.3883  -19.0045  -44.4954 O.2       5 UNK        -0.5000 
     47 CA          1.6988  -16.7890  -45.3540 C.3       5 UNK         0.1400 
     48 CB          2.2698  -16.8942  -46.7736 C.3       5 UNK        -0.1800 
     49 N           0.9708  -15.5237  -45.2210 N.am      5 UNK        -0.5000 
     50 C           0.3738  -15.0629  -44.1109 C.2       4 UNK         0.5000 
     51 O           0.3240  -15.7021  -43.0581 O.2       4 UNK        -0.5000 
     52 CA         -0.3372  -13.6968  -44.2007 C.3       4 UNK         0.1400 
     53 CB          0.0465  -12.7697  -43.0302 C.3       4 UNK        -0.1800 
     54 N          -0.1928  -13.0258  -45.5014 N.am      4 UNK        -0.5000 
     55 C           0.9071  -12.4689  -46.0370 C.2       3 UNK         0.5000 
     56 O           1.9942  -12.4175  -45.4626 O.2       3 UNK        -0.5000 
     57 CA          0.8010  -11.9261  -47.4794 C.3       3 UNK         0.1400 
     58 CB          1.6786  -12.7597  -48.4285 C.3       3 UNK        -0.1800 
     59 N          -0.5646  -11.9265  -48.0052 N.am      3 UNK        -0.5000 
     60 C          -1.5243  -11.0507  -47.6772 C.2       2 UNK         0.5000 
     61 O          -1.3428  -10.0797  -46.9427 O.2       2 UNK        -0.5000 
     62 CA         -2.9331  -11.3329  -48.2379 C.3       2 UNK         0.1400 
     63 CB         -3.1904  -10.4894  -49.4957 C.3       2 UNK        -0.1800 
     64 N          -3.1657  -12.7471  -48.5565 N.am      2 UNK        -0.5000 
     65 C          -3.2016  -13.7414  -47.6587 C.2       1 UNK         0.5000 
     66 O          -3.0295  -13.5814  -46.4480 O.2       1 UNK        -0.5000 
     67 C          -0.5478  -23.6214  -46.6933 C.2       11 UNK         0.5000 
     68 O          -0.7362  -24.6033  -47.4129 O.2       11 UNK        -0.5000 
     69 N          -1.5395  -22.9203  -46.1257 N.am      12 UNK        -0.5000 
     70 CA         -2.9672  -23.1901  -46.2958 C.3       12 UNK         0.1400 
     71 CB         -3.7774  -22.0648  -45.6408 C.3       12 UNK        -0.1800 
     72 C          -3.4219  -24.5644  -45.7678 C.2       12 UNK         0.5000 
     73 O          -4.4615  -25.0555  -46.2048 O.2       12 UNK        -0.5000 
     74 N          -2.6331  -25.1835  -44.8776 N.am      13 UNK        -0.5000 
     75 CA         -2.8665  -26.5392  -44.3781 C.3       13 UNK         0.1400 
     76 CB         -1.9613  -26.7889  -43.1623 C.3       13 UNK        -0.1800 
     77 C          -2.6471  -27.6317  -45.4458 C.2       13 UNK         0.5000 
     78 O          -3.1881  -28.7278  -45.2932 O.2       13 UNK        -0.5000 
     79 N          -1.8646  -27.3254  -46.4910 N.am      14 UNK        -0.5000 
     80 CA         -1.5293  -28.2452  -47.5778 C.3       14 UNK         0.1400 
     81 CB         -0.0059  -28.4507  -47.6052 C.3       14 UNK        -0.1800 
     82 C          -2.0241  -27.7297  -48.9383 C.2       14 UNK         0.5000 
     83 O          -2.5796  -28.5086  -49.7137 O.2       14 UNK        -0.5000 
     84 N          -1.8037  -26.4385  -49.2158 N.am      15 UNK        -0.5000 
     85 CA         -2.0304  -25.8194  -50.5227 C.3       15 UNK         0.1400 
     86 CB         -0.8804  -24.8310  -50.7900 C.3       15 UNK        -0.1800 
     87 C          -3.3823  -25.0927  -50.6332 C.2       15 UNK         0.5000 
     88 O          -3.6650  -24.5352  -51.6934 O.2       15 UNK        -0.5000 
     89 N          -4.1605  -25.0333  -49.5404 N.am      16 UNK        -0.5000 
     90 CA         -5.4226  -24.2913  -49.3478 C.3       16 UNK         0.1400 
     91 CB         -6.4999  -24.7291  -50.3589 C.3       16 UNK        -0.1800 
     92 C          -5.2711  -22.7529  -49.3335 C.2       16 UNK         0.5000 
     93 O          -6.0612  -22.0750  -48.6760 O.2       16 UNK        -0.5000 
     94 N          -4.2487  -22.2412  -50.0289 N.am      17 UNK        -0.5000 
     95 CA         -3.8465  -20.8502  -50.2231 C.3       17 UNK         0.1400 
     96 CB         -3.4935  -20.1527  -48.8968 C.3       17 UNK        -0.1800 
     97 C          -4.8490  -20.0641  -51.0839 C.2       17 UNK         0.5000 
     98 O          -4.5215  -19.7191  -52.2190 O.2       17 UNK        -0.5000 
     99 N          -6.0519  -19.8237  -50.5439 N.am      18 UNK        -0.5000 
    100 CA        -7.2362  -19.2469  -51.1964 C.3       18 UNK         0.1400 
    101 CB        -7.8968  -20.3246  -52.0799 C.3       18 UNK        -0.1800 
    102 C         -6.9916  -17.9275  -51.9690 C.2       18 UNK         0.5000 
    103 O         -7.6627  -17.6710  -52.9706 O.2       18 UNK        -0.5000 
    104 N         -6.0205  -17.1278  -51.5031 N.am      19 UNK        -0.5000 
    105 CA        -5.5120  -15.8914  -52.1068 C.3       19 UNK         0.1400 
    106 CB        -6.5595  -14.7658  -51.9886 C.3       19 UNK        -0.1800 
    107 C         -4.9699  -16.0610  -53.5477 C.2       19 UNK         0.5000 
    108 O         -4.9830  -15.1000  -54.3183 O.2       19 UNK        -0.5000 
    109 N         -4.4910  -17.2672  -53.8943 N.am      20 UNK        -0.5000 
    110 CA        -4.0293  -17.6223  -55.2432 C.3       20 UNK         0.1400 
    111 CB        -4.0078  -19.1524  -55.3780 C.3       20 UNK        -0.1800 
    112 C         -2.6647  -17.0160  -55.6375 C.2       20 UNK         0.5000 
    113 O         -2.3303  -17.0193  -56.8227 O.2       20 UNK        -0.5000 
    114 N         -1.9205  -16.5007  -54.6473 N.am      21 UNK        -0.5000 
    115 CA        -0.6234  -15.8197  -54.7490 C.3       21 UNK         0.1400 
    116 CB        -0.7865  -14.4576  -55.4548 C.3       21 UNK        -0.1800 
    117 C          0.4681  -16.7060  -55.3838 C.2       21 UNK         0.5000 
    118 O          1.0912  -16.3187  -56.3745 O.2       21 UNK        -0.5000 
    119 N          0.6589  -17.8979  -54.8050 N.am      22 UNK        -0.5000 
    120 CA         1.5711  -18.9403  -55.3107 C.3       22 UNK         0.1400 
    121 C          3.0894  -18.6404  -55.1334 C.2       22 UNK         0.5000 
    122 N          3.4870  -17.6392  -54.3578 N.am      22 UNK        -0.7600 
    123 O          3.9232  -19.3287  -55.7157 O.2       22 UNK        -0.5000 
    124 C124        1.2288  -20.3453  -54.7484 C.3       23 UNK        -0.0398 
    125 S125       -0.5477  -20.7537  -54.8844 S.3       23 UNK        -0.2404 
    126 C126       -0.9593  -21.3088  -53.1977 C.3       23 UNK        -0.0205 
    127 H127       -5.9108  -16.9973  -45.6572 H         1 UNK         0.0600 
    128 H128       -7.0961  -17.3282  -46.9263 H         1 UNK         0.0600 
    129 H129       -5.8612  -18.5294  -46.5346 H         1 UNK         0.0600 
    130 H130       -4.3931  -15.4658  -46.3776 H         1 UNK         0.3000 
    131 H131       -3.9121  -15.0660  -49.1753 H         1 UNK         0.0600 
    132 H132       -2.2578  -17.0056  -48.3598 H         1 UNK         0.0800 
    133 H133       -1.4002  -15.7361  -47.5470 H         1 UNK         0.0800 
    134 H134       -1.9445  -16.4404  -52.0193 H         1 UNK         0.0800 
    135 H135       -2.9147  -17.0952  -50.7305 H         1 UNK         0.0800 
    136 H136       -2.0660  -18.8467  -52.8146 H         1 UNK         0.1150 
    137 H137        0.8412  -21.5202  -51.1630 H         1 UNK         0.1150 
    138 H138        0.0917  -17.7704  -49.2614 H         1 UNK         0.1150 
    139 H139        2.3503  -20.6951  -49.4334 H         1 UNK         0.0800 
    140 H140        2.1769  -19.0821  -48.8046 H         1 UNK         0.0800 
    141 H141        2.5857  -22.2341  -47.3094 H         1 UNK         0.0800 
    142 H142        1.3880  -22.7937  -48.4425 H         1 UNK         0.0800 
    143 H143        1.4752  -24.1208  -46.3264 H         1 UNK         0.0600 
    144 H144        1.3867  -21.6492  -44.9857 H         1 UNK         0.3000 
    145 H145        0.1248  -21.9205  -42.3077 H         1 UNK         0.0600 
    146 H146        1.5646  -22.7972  -40.4619 H         1 UNK         0.0600 
    147 H147        0.5303  -24.0364  -41.1519 H         1 UNK         0.0600 
    148 H148        2.2378  -23.9995  -41.5636 H         1 UNK         0.0600 
    149 H149        1.7356  -20.4560  -42.6350 H         1 UNK         0.3000 
    150 H150        5.1455  -20.4452  -42.5685 H         1 UNK         0.0600 
    151 H151        5.1870  -20.8139  -44.9906 H         1 UNK         0.0600 
    152 H152        5.1498  -19.0845  -44.6869 H         1 UNK         0.0600 
    153 H153        3.6929  -19.9221  -45.2184 H         1 UNK         0.0600 
    154 H154        2.7452  -18.7631  -43.1404 H         1 UNK         0.3000 
    155 H155        2.8444  -17.3955  -39.8216 H         1 UNK         0.0600 
    156 H156        3.2481  -16.0821  -42.5569 H         1 UNK         0.0600 
    157 H157        4.3153  -15.9160  -41.1702 H         1 UNK         0.0600 
    158 H158        2.6784  -15.2818  -41.0960 H         1 UNK         0.0600 
    159 H159        0.9871  -16.9527  -41.9034 H         1 UNK         0.3000 
    160 H160       -1.3834  -19.4198  -40.7513 H         1 UNK         0.0600 
    161 H161       -2.6731  -17.3107  -40.5567 H         1 UNK         0.0600 
    162 H162       -1.1907  -16.3617  -40.6403 H         1 UNK         0.0600 
    163 H163       -1.4845  -17.4242  -39.2678 H         1 UNK         0.0600 
    164 H164       -0.7994  -17.4206  -42.9001 H         1 UNK         0.3000 
    165 H165       -1.2467  -19.8471  -45.4141 H         1 UNK         0.0600 
    166 H166       -2.9165  -18.3970  -46.4040 H         1 UNK         0.0600 
    167 H167       -3.6487  -19.0691  -44.9567 H         1 UNK         0.0600 
    168 H168       -3.0522  -17.4189  -44.9399 H         1 UNK         0.0600 
    169 H169       -0.8085  -17.0782  -45.6536 H         1 UNK         0.3000 
    170 H170        2.5351  -16.7662  -44.6547 H         1 UNK         0.0600 
    171 H171        2.8546  -17.8078  -46.8879 H         1 UNK         0.0600 
    172 H172        2.9319  -16.0574  -46.9966 H         1 UNK         0.0600 
    173 H173        1.4805  -16.9077  -47.5255 H         1 UNK         0.0600 
    174 H174        0.9713  -14.9202  -46.0286 H         1 UNK         0.3000 
    175 H175       -1.4017  -13.9147  -44.1032 H         1 UNK         0.0600 
    176 H176       -0.4654  -11.8101  -43.1025 H         1 UNK         0.0600 
    177 H177       -0.2332  -13.2145  -42.0744 H         1 UNK         0.0600 
    178 H178        1.1190  -12.5786  -42.9938 H         1 UNK         0.0600 
    179 H179       -1.0433  -13.0108  -46.0527 H         1 UNK         0.3000 
    180 H180        1.1758  -10.9005  -47.4728 H         1 UNK         0.0600 
    181 H181        1.3480  -13.7982  -48.4775 H         1 UNK         0.0600 
    182 H182        2.7198  -12.7617  -48.1032 H         1 UNK         0.0600 
    183 H183        1.6592  -12.3547  -49.4405 H         1 UNK         0.0600 
    184 H184       -0.8041  -12.6795  -48.6336 H         1 UNK         0.3000 
    185 H185       -3.6541  -11.0373  -47.4728 H         1 UNK         0.0600 
    186 H186       -2.5105  -10.7565  -50.3058 H         1 UNK         0.0600 
    187 H187       -4.2111  -10.6188  -49.8562 H         1 UNK         0.0600 
    188 H188       -3.0532   -9.4271  -49.2889 H         1 UNK         0.0600 
    189 H189       -3.3004  -12.9633  -49.5338 H         1 UNK         0.3000 
    190 H190       -1.2901  -22.1548  -45.5179 H         1 UNK         0.3000 
    191 H191       -3.1690  -23.1759  -47.3673 H         1 UNK         0.0600 
    192 H192       -3.5387  -21.1038  -46.0908 H         1 UNK         0.0600 
    193 H193       -3.5830  -21.9969  -44.5698 H         1 UNK         0.0600 
    194 H194       -4.8485  -22.2232  -45.7744 H         1 UNK         0.0600 
    195 H195       -1.7792  -24.7310  -44.5732 H         1 UNK         0.3000 
    196 H196       -3.9053  -26.6051  -44.0476 H         1 UNK         0.0600 
    197 H197       -2.1671  -27.7626  -42.7160 H         1 UNK         0.0600 
    198 H198       -2.1187  -26.0367  -42.3891 H         1 UNK         0.0600 
    199 H199       -0.9060  -26.7720  -43.4373 H         1 UNK         0.0600 
    200 H200       -1.4747  -26.3926  -46.5483 H         1 UNK         0.3000 
    201 H201       -1.9934  -29.2204  -47.4165 H         1 UNK         0.0600 
    202 H202        0.3465  -28.8924  -46.6731 H         1 UNK         0.0600 
    203 H203        0.5268  -27.5099  -47.7510 H         1 UNK         0.0600 
    204 H204        0.2844  -29.1229  -48.4137 H         1 UNK         0.0600 
    205 H205       -1.3483  -25.8446  -48.5249 H         1 UNK         0.3000 
    206 H206       -2.0064  -26.5813  -51.3046 H         1 UNK         0.0600 
    207 H207        0.0897  -25.3211  -50.7059 H         1 UNK         0.0600 
    208 H208       -0.9451  -24.4164  -51.7965 H         1 UNK         0.0600 
    209 H209       -0.8944  -23.9941  -50.0902 H         1 UNK         0.0600 
    210 H210       -3.8240  -25.5144  -48.7178 H         1 UNK         0.3000 
    211 H211       -5.7860  -24.5710  -48.3593 H         1 UNK         0.0600 
    212 H212       -6.2563  -24.4261  -51.3773 H         1 UNK         0.0600 
    213 H213       -7.4638  -24.2818  -50.1131 H         1 UNK         0.0600 
    214 H214       -6.6323  -25.8109  -50.3512 H         1 UNK         0.0600 
    215 H215       -3.7494  -22.9078  -50.6078 H         1 UNK         0.3000 
    216 H216       -2.9254  -20.9110  -50.7980 H         1 UNK         0.0600 
    217 H217       -3.1273  -19.1437  -49.0817 H         1 UNK         0.0600 
    218 H218       -2.7010  -20.6876  -48.3735 H         1 UNK         0.0600 
    219 H219       -4.3496  -20.0719  -48.2276 H         1 UNK         0.0600 
    220 H220       -6.2031  -20.1891  -49.6106 H         1 UNK         0.3000 
    221 H221       -7.9331  -18.9995  -50.3948 H         1 UNK         0.0600 
    222 H222       -7.2641  -20.5877  -52.9285 H         1 UNK         0.0600 
    223 H223       -8.0903  -21.2351  -51.5124 H         1 UNK         0.0600 
    224 H224       -8.8539  -19.9821  -52.4750 H         1 UNK         0.0600 
    225 H225       -5.5784  -17.3992  -50.6261 H         1 UNK         0.3000 
    226 H226       -4.6548  -15.5948  -51.5028 H         1 UNK         0.0600 
    227 H227       -6.9007  -14.6531  -50.9595 H         1 UNK         0.0600 
    228 H228       -6.1431  -13.8060  -52.2966 H         1 UNK         0.0600 
    229 H229       -7.4325  -14.9594  -52.6125 H         1 UNK         0.0600 
    230 H230       -4.5454  -18.0306  -53.2243 H         1 UNK         0.3000 
    231 H231       -4.7612  -17.2397  -55.9577 H         1 UNK         0.0600 
    232 H232       -4.9950  -19.5774  -55.1950 H         1 UNK         0.0600 
    233 H233       -3.3146  -19.6092  -54.6729 H         1 UNK         0.0600 
    234 H234       -3.7028  -19.4564  -56.3800 H         1 UNK         0.0600 
    235 H235       -2.3182  -16.5513  -53.7236 H         1 UNK         0.3000 
    236 H236       -0.2957  -15.6181  -53.7280 H         1 UNK         0.0600 
    237 H237        0.1506  -13.8998  -55.4489 H         1 UNK         0.0600 
    238 H238       -1.0923  -14.5728  -56.4951 H         1 UNK         0.0600 
    239 H239       -1.5335  -13.8421  -54.9534 H         1 UNK         0.0600 
    240 H240        0.0979  -18.1563  -54.0069 H         1 UNK         0.3000 
    241 H241        1.4112  -18.9897  -56.3897 H         1 UNK         0.0600 
    242 H242        2.8135  -17.0661  -53.8761 H         1 UNK         0.3800 
    243 H243        4.4719  -17.4517  -54.2544 H         1 UNK         0.3800 
    244 H244        1.7854  -21.1123  -55.2895 H         1 UNK         0.0800 
    245 H245        1.5514  -20.4235  -53.7101 H         1 UNK         0.0800 
    246 H246       -0.4388  -22.2478  -53.0049 H         1 UNK         0.0800 
    247 H247       -2.0251  -21.5389  -53.1566 H         1 UNK         0.0800 
@<TRIPOS>BOND
     1    1    2 1    
     2    1  127 1    
     3    1  128 1    
     4    1  129 1    
     5    2    3 2    
     6    2    4 am   BACKBONE|DICT|INTERRES
     7    4    5 1    
     8    4  130 1    
     9    5    6 1    
    10    5   65 1    
    11    5  131 1    
    12    6    7 1    
    13    6  132 1    
    14    6  133 1    
    15    7    8 1    
    16    8    9 1    
    17    8  134 1    
    18    8  135 1    
    19    9   10 ar   
    20    9   14 ar   
    21   10   11 ar   
    22   10  136 1    
    23   11   12 ar   
    24   11  126 1    
    25   12   13 ar   
    26   12  137 1    
    27   13   14 ar   
    28   13   15 1    
    29   14  138 1    
    30   15   16 1    
    31   15  139 1    
    32   15  140 1    
    33   16   17 1    
    34   17   18 1    
    35   17  141 1    
    36   17  142 1    
    37   18   19 1    
    38   18   67 1    
    39   18  143 1    
    40   19   20 am   BACKBONE|DICT|INTERRES
    41   19  144 1    
    42   20   21 2    
    43   20   22 1    
    44   22   23 1    
    45   22   24 1    
    46   22  145 1    
    47   23  146 1    
    48   23  147 1    
    49   23  148 1    
    50   24   25 am   BACKBONE|DICT|INTERRES
    51   24  149 1    
    52   25   26 2    
    53   25   27 1    
    54   27   28 1    
    55   27   29 1    
    56   27  150 1    
    57   28  151 1    
    58   28  152 1    
    59   28  153 1    
    60   29   30 am   BACKBONE|DICT|INTERRES
    61   29  154 1    
    62   30   31 2    
    63   30   32 1    
    64   32   33 1    
    65   32   34 1    
    66   32  155 1    
    67   33  156 1    
    68   33  157 1    
    69   33  158 1    
    70   34   35 am   BACKBONE|DICT|INTERRES
    71   34  159 1    
    72   35   36 2    
    73   35   37 1    
    74   37   38 1    
    75   37   39 1    
    76   37  160 1    
    77   38  161 1    
    78   38  162 1    
    79   38  163 1    
    80   39   40 am   BACKBONE|DICT|INTERRES
    81   39  164 1    
    82   40   41 2    
    83   40   42 1    
    84   42   43 1    
    85   42   44 1    
    86   42  165 1    
    87   43  166 1    
    88   43  167 1    
    89   43  168 1    
    90   44   45 am   BACKBONE|DICT|INTERRES
    91   44  169 1    
    92   45   46 2    
    93   45   47 1    
    94   47   48 1    
    95   47   49 1    
    96   47  170 1    
    97   48  171 1    
    98   48  172 1    
    99   48  173 1    
   100   49   50 am   BACKBONE|DICT|INTERRES
   101   49  174 1    
   102   50   51 2    
   103   50   52 1    
   104   52   53 1    
   105   52   54 1    
   106   52  175 1    
   107   53  176 1    
   108   53  177 1    
   109   53  178 1    
   110   54   55 am   BACKBONE|DICT|INTERRES
   111   54  179 1    
   112   55   56 2    
   113   55   57 1    
   114   57   58 1    
   115   57   59 1    
   116   57  180 1    
   117   58  181 1    
   118   58  182 1    
   119   58  183 1    
   120   59   60 am   BACKBONE|DICT|INTERRES
   121   59  184 1    
   122   60   61 2    
   123   60   62 1    
   124   62   63 1    
   125   62   64 1    
   126   62  185 1    
   127   63  186 1    
   128   63  187 1    
   129   63  188 1    
   130   64   65 am   BACKBONE|DICT|INTERRES
   131   64  189 1    
   132   65   66 2    
   133   67   68 2    
   134   67   69 am   BACKBONE|DICT|INTERRES
   135   69   70 1    
   136   69  190 1    
   137   70   71 1    
   138   70   72 1    
   139   70  191 1    
   140   71  192 1    
   141   71  193 1    
   142   71  194 1    
   143   72   73 2    
   144   72   74 am   BACKBONE|DICT|INTERRES
   145   74   75 1    
   146   74  195 1    
   147   75   76 1    
   148   75   77 1    
   149   75  196 1    
   150   76  197 1    
   151   76  198 1    
   152   76  199 1    
   153   77   78 2    
   154   77   79 am   BACKBONE|DICT|INTERRES
   155   79   80 1    
   156   79  200 1    
   157   80   81 1    
   158   80   82 1    
   159   80  201 1    
   160   81  202 1    
   161   81  203 1    
   162   81  204 1    
   163   82   83 2    
   164   82   84 am   BACKBONE|DICT|INTERRES
   165   84   85 1    
   166   84  205 1    
   167   85   86 1    
   168   85   87 1    
   169   85  206 1    
   170   86  207 1    
   171   86  208 1    
   172   86  209 1    
   173   87   88 2    
   174   87   89 am   BACKBONE|DICT|INTERRES
   175   89   90 1    
   176   89  210 1    
   177   90   91 1    
   178   90   92 1    
   179   90  211 1    
   180   91  212 1    
   181   91  213 1    
   182   91  214 1    
   183   92   93 2    
   184   92   94 am   BACKBONE|DICT|INTERRES
   185   94   95 1    
   186   94  215 1    
   187   95   96 1    
   188   95   97 1    
   189   95  216 1    
   190   96  217 1    
   191   96  218 1    
   192   96  219 1    
   193   97   98 2    
   194   97   99 am   BACKBONE|DICT|INTERRES
   195   99  100 1    
   196   99  220 1    
   197  100  101 1    
   198  100  102 1    
   199  100  221 1    
   200  101  222 1    
   201  101  223 1    
   202  101  224 1    
   203  102  103 2    
   204  102  104 am   BACKBONE|DICT|INTERRES
   205  104  105 1    
   206  104  225 1    
   207  105  106 1    
   208  105  107 1    
   209  105  226 1    
   210  106  227 1    
   211  106  228 1    
   212  106  229 1    
   213  107  108 2    
   214  107  109 am   BACKBONE|DICT|INTERRES
   215  109  110 1    
   216  109  230 1    
   217  110  111 1    
   218  110  112 1    
   219  110  231 1    
   220  111  232 1    
   221  111  233 1    
   222  111  234 1    
   223  112  113 2    
   224  112  114 am   BACKBONE|DICT|INTERRES
   225  114  115 1    
   226  114  235 1    
   227  115  116 1    
   228  115  117 1    
   229  115  236 1    
   230  116  237 1    
   231  116  238 1    
   232  116  239 1    
   233  117  118 2    
   234  117  119 am   BACKBONE|DICT|INTERRES
   235  119  120 1    
   236  119  240 1    
   237  120  121 1    
   238  120  124 1    
   239  120  241 1    
   240  121  122 am   BACKBONE|DICT|INTERRES
   241  121  123 2    
   242  122  242 1    
   243  122  243 1    
   244  124  125 1    
   245  124  244 1    
   246  124  245 1    
   247  125  126 1    
   248  126  246 1    
   249  126  247 1    
@<TRIPOS>SUBSTRUCTURE
     1 UNK         1 GROUP             0       ****    0 ROOT    
