@<TRIPOS>MOLECULE
3R540
247   249    1
SMALL
USER_CHARGES


@<TRIPOS>ATOM
      1 CA          0.2678  -12.0134  -52.3404 C.3       0 UNK        -0.1800 
      2 C           0.1397  -12.7807  -51.0318 C.2       0 UNK         0.5000 
      3 O          -0.9445  -13.2719  -50.7235 O.2       0 UNK        -0.5000 
      4 N           1.2473  -12.8878  -50.2842 N.am      1 UNK        -0.5000 
      5 CA          1.3879  -13.5535  -48.9821 C.3       1 UNK         0.1400 
      6 C6          1.0554  -15.0690  -48.9896 C.3       23 UNK        -0.0398 
      7 S7          2.0643  -16.0057  -50.1889 S.3       23 UNK        -0.2404 
      8 C8          0.7979  -16.5791  -51.3644 C.3       23 UNK        -0.0205 
      9 C9         -0.0284  -17.7188  -50.7881 C.ar      23 UNK        -0.0193 
     10 C10        -1.3076  -17.4834  -50.2755 C.ar      23 UNK        -0.1150 
     11 C11        -2.0538  -18.5267  -49.7182 C.ar      23 UNK        -0.0193 
     12 C12        -1.5090  -19.8140  -49.6813 C.ar      23 UNK        -0.1150 
     13 C13        -0.2404  -20.0660  -50.2121 C.ar      23 UNK        -0.0193 
     14 C14         0.4929  -19.0147  -50.7668 C.ar      23 UNK        -0.1150 
     15 C15         0.3355  -21.4739  -50.1959 C.3       23 UNK        -0.0205 
     16 S16         1.7343  -21.6540  -49.0372 S.3       23 UNK        -0.2404 
     17 C17         0.9995  -21.1959  -47.4291 C.3       23 UNK        -0.0398 
     18 CA          0.4595  -22.4092  -46.6354 C.3       11 UNK         0.1400 
     19 N           0.3670  -22.1267  -45.2026 N.am      11 UNK        -0.5000 
     20 C           0.0251  -23.0173  -44.2602 C.2       10 UNK         0.5000 
     21 O          -0.1774  -24.2111  -44.4805 O.2       10 UNK        -0.5000 
     22 CA         -0.1876  -22.4619  -42.8427 C.3       10 UNK         0.1400 
     23 CB          1.1498  -22.3065  -42.1044 C.3       10 UNK        -0.1800 
     24 N          -0.8920  -21.1794  -42.8709 N.am      10 UNK        -0.5000 
     25 C          -2.1808  -21.0384  -43.2128 C.2       9 UNK         0.5000 
     26 O          -2.9220  -21.9827  -43.4870 O.2       9 UNK        -0.5000 
     27 CA         -2.7170  -19.5975  -43.3005 C.3       9 UNK         0.1400 
     28 CB         -3.1178  -19.0807  -41.9106 C.3       9 UNK        -0.1800 
     29 N          -1.7549  -18.6718  -43.9015 N.am      9 UNK        -0.5000 
     30 C          -1.3641  -18.7121  -45.1832 C.2       8 UNK         0.5000 
     31 O          -1.7842  -19.5279  -45.9995 O.2       8 UNK        -0.5000 
     32 CA         -0.2924  -17.6975  -45.6159 C.3       8 UNK         0.1400 
     33 CB         -0.9548  -16.3736  -46.0244 C.3       8 UNK        -0.1800 
     34 N           0.7161  -17.4459  -44.5826 N.am      8 UNK        -0.5000 
     35 C           1.5414  -18.3736  -44.0720 C.2       7 UNK         0.5000 
     36 O           1.4795  -19.5686  -44.3678 O.2       7 UNK        -0.5000 
     37 CA          2.5922  -17.8827  -43.0525 C.3       7 UNK         0.1400 
     38 CB          3.7549  -18.8766  -42.8539 C.3       7 UNK        -0.1800 
     39 N           3.0964  -16.5411  -43.3591 N.am      7 UNK        -0.5000 
     40 C           3.7575  -16.1422  -44.4571 C.2       6 UNK         0.5000 
     41 O           4.1221  -16.9037  -45.3532 O.2       6 UNK        -0.5000 
     42 CA          4.0342  -14.6319  -44.5997 C.3       6 UNK         0.1400 
     43 CB          3.3353  -14.0812  -45.8497 C.3       6 UNK        -0.1800 
     44 N           3.5664  -13.8683  -43.4416 N.am      6 UNK        -0.5000 
     45 C           4.3269  -13.5058  -42.4003 C.2       5 UNK         0.5000 
     46 O           5.5406  -13.7031  -42.3356 O.2       5 UNK        -0.5000 
     47 CA          3.6021  -12.8426  -41.2120 C.3       5 UNK         0.1400 
     48 CB          3.6403  -11.3120  -41.3348 C.3       5 UNK        -0.1800 
     49 N           2.2122  -13.2878  -41.0721 N.am      5 UNK        -0.5000 
     50 C           1.8491  -14.5264  -40.7067 C.2       4 UNK         0.5000 
     51 O           2.6529  -15.4127  -40.4199 O.2       4 UNK        -0.5000 
     52 CA          0.3449  -14.8577  -40.7087 C.3       4 UNK         0.1400 
     53 CB         -0.2447  -14.6930  -39.3004 C.3       4 UNK        -0.1800 
     54 N          -0.4412  -14.0613  -41.6525 N.am      4 UNK        -0.5000 
     55 C          -0.3012  -14.0694  -42.9847 C.2       3 UNK         0.5000 
     56 O           0.5417  -14.7529  -43.5715 O.2       3 UNK        -0.5000 
     57 CA         -1.2668  -13.1795  -43.7979 C.3       3 UNK         0.1400 
     58 CB         -2.0412  -12.1508  -42.9428 C.3       3 UNK        -0.1800 
     59 N          -0.6145  -12.4995  -44.9189 N.am      3 UNK        -0.5000 
     60 C           0.4349  -11.6701  -44.8746 C.2       2 UNK         0.5000 
     61 O           1.0914  -11.4535  -43.8541 O.2       2 UNK        -0.5000 
     62 CA          0.7853  -10.9474  -46.1968 C.3       2 UNK         0.1400 
     63 CB          1.8111   -9.8188  -45.9863 C.3       2 UNK        -0.1800 
     64 N           1.2884  -11.8327  -47.2503 N.am      2 UNK        -0.5000 
     65 C           0.6056  -12.7899  -47.8925 C.2       1 UNK         0.5000 
     66 O          -0.5763  -13.0560  -47.6663 O.2       1 UNK        -0.5000 
     67 C          -0.8885  -22.9029  -47.1966 C.2       11 UNK         0.5000 
     68 O          -0.9209  -23.9386  -47.8588 O.2       11 UNK        -0.5000 
     69 N          -1.9786  -22.1859  -46.8848 N.am      12 UNK        -0.5000 
     70 CA         -3.3462  -22.5293  -47.2717 C.3       12 UNK         0.1400 
     71 CB         -4.3192  -21.4434  -46.7928 C.3       12 UNK        -0.1800 
     72 C          -3.7849  -23.9044  -46.7496 C.2       12 UNK         0.5000 
     73 O          -4.3462  -24.6819  -47.5193 O.2       12 UNK        -0.5000 
     74 N          -3.4856  -24.1933  -45.4760 N.am      13 UNK        -0.5000 
     75 CA         -3.7539  -25.4817  -44.8384 C.3       13 UNK         0.1400 
     76 CB         -3.4617  -25.3791  -43.3338 C.3       13 UNK        -0.1800 
     77 C          -2.9650  -26.6430  -45.4731 C.2       13 UNK         0.5000 
     78 O          -3.5322  -27.7161  -45.6805 O.2       13 UNK        -0.5000 
     79 N          -1.6829  -26.4058  -45.7822 N.am      14 UNK        -0.5000 
     80 CA         -0.7881  -27.3799  -46.4061 C.3       14 UNK         0.1400 
     81 CB          0.6641  -26.8941  -46.2767 C.3       14 UNK        -0.1800 
     82 C          -1.1377  -27.6606  -47.8789 C.2       14 UNK         0.5000 
     83 O          -1.1809  -28.8233  -48.2828 O.2       14 UNK        -0.5000 
     84 N          -1.3704  -26.5947  -48.6551 N.am      15 UNK        -0.5000 
     85 CA         -1.6277  -26.6581  -50.0946 C.3       15 UNK         0.1400 
     86 CB         -1.2271  -25.3137  -50.7278 C.3       15 UNK        -0.1800 
     87 C          -3.0896  -26.9820  -50.4487 C.2       15 UNK         0.5000 
     88 O          -3.3616  -27.2803  -51.6101 O.2       15 UNK        -0.5000 
     89 N          -4.0073  -26.8577  -49.4782 N.am      16 UNK        -0.5000 
     90 CA         -5.4676  -26.8521  -49.6461 C.3       16 UNK         0.1400 
     91 CB         -5.9875  -28.2160  -50.1470 C.3       16 UNK        -0.1800 
     92 C          -5.9279  -25.6577  -50.5131 C.2       16 UNK         0.5000 
     93 O          -6.7878  -25.8057  -51.3829 O.2       16 UNK        -0.5000 
     94 N          -5.3012  -24.4979  -50.2598 N.am      17 UNK        -0.5000 
     95 CA         -5.4633  -23.2045  -50.9350 C.3       17 UNK         0.1400 
     96 CB         -6.8530  -22.6079  -50.6352 C.3       17 UNK        -0.1800 
     97 C          -5.1348  -23.2234  -52.4459 C.2       17 UNK         0.5000 
     98 O          -5.6281  -22.3739  -53.1894 O.2       17 UNK        -0.5000 
     99 N          -4.2924  -24.1692  -52.8847 N.am      18 UNK        -0.5000 
    100 CA        -3.8664  -24.3389  -54.2754 C.3       18 UNK         0.1400 
    101 CB        -3.4504  -25.8033  -54.4974 C.3       18 UNK        -0.1800 
    102 C         -2.7568  -23.3416  -54.6724 C.2       18 UNK         0.5000 
    103 O         -1.6413  -23.7498  -55.0015 O.2       18 UNK        -0.5000 
    104 N         -3.0842  -22.0474  -54.6385 N.am      19 UNK        -0.5000 
    105 CA        -2.2489  -20.9467  -55.1037 C.3       19 UNK         0.1400 
    106 CB        -1.3287  -20.4604  -53.9703 C.3       19 UNK        -0.1800 
    107 C         -3.1708  -19.8286  -55.6047 C.2       19 UNK         0.5000 
    108 O         -4.2399  -19.6174  -55.0256 O.2       19 UNK        -0.5000 
    109 N         -2.7432  -19.1197  -56.6575 N.am      20 UNK        -0.5000 
    110 CA        -3.5229  -18.0808  -57.3430 C.3       20 UNK         0.1400 
    111 CB        -2.7708  -17.6408  -58.6084 C.3       20 UNK        -0.1800 
    112 C         -3.8600  -16.8600  -56.4649 C.2       20 UNK         0.5000 
    113 O         -4.9056  -16.2399  -56.6601 O.2       20 UNK        -0.5000 
    114 N         -2.9806  -16.5541  -55.5024 N.am      21 UNK        -0.5000 
    115 CA        -3.1816  -15.5138  -54.4924 C.3       21 UNK         0.1400 
    116 CB        -1.8165  -15.1505  -53.8905 C.3       21 UNK        -0.1800 
    117 C         -4.1594  -15.9384  -53.3774 C.2       21 UNK         0.5000 
    118 O         -4.7245  -15.0730  -52.7080 O.2       21 UNK        -0.5000 
    119 N         -4.3251  -17.2525  -53.1900 N.am      22 UNK        -0.5000 
    120 CA        -5.1924  -17.8681  -52.1794 C.3       22 UNK         0.1400 
    121 C         -6.6183  -18.1458  -52.7246 C.2       22 UNK         0.5000 
    122 N         -6.7490  -18.6649  -53.9395 N.am      22 UNK        -0.7600 
    123 O         -7.6092  -17.8758  -52.0519 O.2       22 UNK        -0.5000 
    124 C124       -4.5338  -19.1571  -51.6216 C.3       23 UNK        -0.0398 
    125 S125       -4.7422  -19.3613  -49.8237 S.3       23 UNK        -0.2404 
    126 C126       -3.4466  -18.2531  -49.1603 C.3       23 UNK        -0.0205 
    127 H127        1.2625  -11.5848  -52.4653 H         1 UNK         0.0600 
    128 H128       -0.4581  -11.2010  -52.3719 H         1 UNK         0.0600 
    129 H129        0.0755  -12.6765  -53.1838 H         1 UNK         0.0600 
    130 H130        2.0922  -12.4496  -50.6231 H         1 UNK         0.3000 
    131 H131        2.4466  -13.4720  -48.7302 H         1 UNK         0.0600 
    132 H132        1.2573  -15.4986  -48.0081 H         1 UNK         0.0800 
    133 H133       -0.0056  -15.2329  -49.1766 H         1 UNK         0.0800 
    134 H134        0.1609  -15.7410  -51.6467 H         1 UNK         0.0800 
    135 H135        1.2882  -16.9133  -52.2798 H         1 UNK         0.0800 
    136 H136       -1.7194  -16.4841  -50.3053 H         1 UNK         0.1150 
    137 H137       -2.0822  -20.6203  -49.2484 H         1 UNK         0.1150 
    138 H138        1.4790  -19.2032  -51.1676 H         1 UNK         0.1150 
    139 H139       -0.4369  -22.2059  -49.9594 H         1 UNK         0.0800 
    140 H140        0.6818  -21.7240  -51.1996 H         1 UNK         0.0800 
    141 H141        1.8001  -20.7204  -46.8608 H         1 UNK         0.0800 
    142 H142        0.2412  -20.4232  -47.5530 H         1 UNK         0.0800 
    143 H143        1.1749  -23.2281  -46.7377 H         1 UNK         0.0600 
    144 H144        0.5652  -21.1723  -44.9149 H         1 UNK         0.3000 
    145 H145       -0.7999  -23.1772  -42.2894 H         1 UNK         0.0600 
    146 H146        1.0015  -21.9330  -41.0911 H         1 UNK         0.0600 
    147 H147        1.6625  -23.2660  -42.0258 H         1 UNK         0.0600 
    148 H148        1.8198  -21.6206  -42.6219 H         1 UNK         0.0600 
    149 H149       -0.3379  -20.3518  -42.7106 H         1 UNK         0.3000 
    150 H150       -3.6099  -19.6135  -43.9292 H         1 UNK         0.0600 
    151 H151       -3.8485  -19.7432  -41.4446 H         1 UNK         0.0600 
    152 H152       -3.5718  -18.0916  -41.9738 H         1 UNK         0.0600 
    153 H153       -2.2600  -19.0145  -41.2402 H         1 UNK         0.0600 
    154 H154       -1.3535  -17.9695  -43.2986 H         1 UNK         0.3000 
    155 H155        0.2263  -18.1034  -46.4869 H         1 UNK         0.0600 
    156 H156       -0.2162  -15.5999  -46.2294 H         1 UNK         0.0600 
    157 H157       -1.6142  -15.9982  -45.2422 H         1 UNK         0.0600 
    158 H158       -1.5554  -16.5018  -46.9259 H         1 UNK         0.0600 
    159 H159        0.8077  -16.4834  -44.2662 H         1 UNK         0.3000 
    160 H160        2.0690  -17.7972  -42.0993 H         1 UNK         0.0600 
    161 H161        4.2728  -19.0887  -43.7896 H         1 UNK         0.0600 
    162 H162        3.3948  -19.8263  -42.4587 H         1 UNK         0.0600 
    163 H163        4.4866  -18.4899  -42.1447 H         1 UNK         0.0600 
    164 H164        2.8640  -15.8298  -42.6799 H         1 UNK         0.3000 
    165 H165        5.1111  -14.5049  -44.7262 H         1 UNK         0.0600 
    166 H166        2.2545  -14.2129  -45.7874 H         1 UNK         0.0600 
    167 H167        3.5436  -13.0189  -45.9746 H         1 UNK         0.0600 
    168 H168        3.6799  -14.5897  -46.7511 H         1 UNK         0.0600 
    169 H169        2.5735  -13.6704  -43.4093 H         1 UNK         0.3000 
    170 H170        4.1388  -13.1215  -40.3026 H         1 UNK         0.0600 
    171 H171        4.6685  -10.9516  -41.3861 H         1 UNK         0.0600 
    172 H172        3.1282  -10.9650  -42.2323 H         1 UNK         0.0600 
    173 H173        3.1717  -10.8345  -40.4742 H         1 UNK         0.0600 
    174 H174        1.4943  -12.6258  -41.3318 H         1 UNK         0.3000 
    175 H175        0.2448  -15.9057  -40.9990 H         1 UNK         0.0600 
    176 H176       -0.2014  -13.6560  -38.9648 H         1 UNK         0.0600 
    177 H177       -1.2860  -15.0142  -39.2679 H         1 UNK         0.0600 
    178 H178        0.3021  -15.2962  -38.5742 H         1 UNK         0.0600 
    179 H179       -1.1509  -13.4656  -41.2513 H         1 UNK         0.3000 
    180 H180       -1.9993  -13.8554  -44.2394 H         1 UNK         0.0600 
    181 H181       -1.3703  -11.4712  -42.4155 H         1 UNK         0.0600 
    182 H182       -2.6759  -12.6402  -42.2032 H         1 UNK         0.0600 
    183 H183       -2.6984  -11.5442  -43.5662 H         1 UNK         0.0600 
    184 H184       -0.9932  -12.6991  -45.8411 H         1 UNK         0.3000 
    185 H185       -0.1366  -10.4883  -46.5597 H         1 UNK         0.0600 
    186 H186        1.9751   -9.2565  -46.9057 H         1 UNK         0.0600 
    187 H187        1.4645   -9.1099  -45.2331 H         1 UNK         0.0600 
    188 H188        2.7744  -10.2072  -45.6529 H         1 UNK         0.0600 
    189 H189        2.2515  -11.6803  -47.5108 H         1 UNK         0.3000 
    190 H190       -1.8649  -21.3099  -46.3786 H         1 UNK         0.3000 
    191 H191       -3.3775  -22.5588  -48.3622 H         1 UNK         0.0600 
    192 H192       -4.0299  -20.4626  -47.1640 H         1 UNK         0.0600 
    193 H193       -5.3305  -21.6408  -47.1507 H         1 UNK         0.0600 
    194 H194       -4.3597  -21.3847  -45.7053 H         1 UNK         0.0600 
    195 H195       -3.0542  -23.4781  -44.8997 H         1 UNK         0.3000 
    196 H196       -4.8171  -25.6978  -44.9626 H         1 UNK         0.0600 
    197 H197       -3.6768  -26.3214  -42.8285 H         1 UNK         0.0600 
    198 H198       -4.0764  -24.6103  -42.8651 H         1 UNK         0.0600 
    199 H199       -2.4170  -25.1334  -43.1415 H         1 UNK         0.0600 
    200 H200       -1.2785  -25.5059  -45.5412 H         1 UNK         0.3000 
    201 H201       -0.8767  -28.3206  -45.8586 H         1 UNK         0.0600 
    202 H202        0.9487  -26.7811  -45.2304 H         1 UNK         0.0600 
    203 H203        0.8129  -25.9315  -46.7675 H         1 UNK         0.0600 
    204 H204        1.3572  -27.6051  -46.7279 H         1 UNK         0.0600 
    205 H205       -1.2821  -25.6616  -48.2539 H         1 UNK         0.3000 
    206 H206       -1.0014  -27.4384  -50.5320 H         1 UNK         0.0600 
    207 H207       -0.1916  -25.0613  -50.4981 H         1 UNK         0.0600 
    208 H208       -1.3182  -25.3462  -51.8141 H         1 UNK         0.0600 
    209 H209       -1.8563  -24.4973  -50.3707 H         1 UNK         0.0600 
    210 H210       -3.6823  -26.5646  -48.5653 H         1 UNK         0.3000 
    211 H211       -5.8884  -26.6887  -48.6530 H         1 UNK         0.0600 
    212 H212       -5.6810  -28.4210  -51.1729 H         1 UNK         0.0600 
    213 H213       -7.0773  -28.2473  -50.1226 H         1 UNK         0.0600 
    214 H214       -5.6253  -29.0299  -49.5190 H         1 UNK         0.0600 
    215 H215       -4.6710  -24.5034  -49.4643 H         1 UNK         0.3000 
    216 H216       -4.7241  -22.5397  -50.4867 H         1 UNK         0.0600 
    217 H217       -7.0401  -22.5678  -49.5621 H         1 UNK         0.0600 
    218 H218       -7.6507  -23.1914  -51.0954 H         1 UNK         0.0600 
    219 H219       -6.9331  -21.5876  -51.0129 H         1 UNK         0.0600 
    220 H220       -3.9385  -24.8456  -52.2240 H         1 UNK         0.3000 
    221 H221       -4.7204  -24.1448  -54.9279 H         1 UNK         0.0600 
    222 H222       -2.5780  -26.0707  -53.9006 H         1 UNK         0.0600 
    223 H223       -4.2581  -26.4873  -54.2352 H         1 UNK         0.0600 
    224 H224       -3.1995  -25.9839  -55.5433 H         1 UNK         0.0600 
    225 H225       -4.0261  -21.7862  -54.3575 H         1 UNK         0.3000 
    226 H226       -1.6369  -21.2856  -55.9425 H         1 UNK         0.0600 
    227 H227       -0.6255  -21.2390  -53.6747 H         1 UNK         0.0600 
    228 H228       -0.7420  -19.5949  -54.2802 H         1 UNK         0.0600 
    229 H229       -1.8929  -20.1757  -53.0839 H         1 UNK         0.0600 
    230 H230       -1.8477  -19.3453  -57.0666 H         1 UNK         0.3000 
    231 H231       -4.4705  -18.5288  -57.6496 H         1 UNK         0.0600 
    232 H232       -3.3357  -16.8855  -59.1564 H         1 UNK         0.0600 
    233 H233       -2.6126  -18.4801  -59.2859 H         1 UNK         0.0600 
    234 H234       -1.7966  -17.2126  -58.3692 H         1 UNK         0.0600 
    235 H235       -2.1397  -17.1072  -55.4278 H         1 UNK         0.3000 
    236 H236       -3.5927  -14.6245  -54.9750 H         1 UNK         0.0600 
    237 H237       -1.1403  -14.7571  -54.6496 H         1 UNK         0.0600 
    238 H238       -1.9194  -14.3869  -53.1187 H         1 UNK         0.0600 
    239 H239       -1.3424  -16.0194  -53.4340 H         1 UNK         0.0600 
    240 H240       -3.9008  -17.8922  -53.8478 H         1 UNK         0.3000 
    241 H241       -5.3007  -17.1571  -51.3580 H         1 UNK         0.0600 
    242 H242       -5.9267  -18.9524  -54.4631 H         1 UNK         0.3800 
    243 H243       -7.6679  -18.8464  -54.3094 H         1 UNK         0.3800 
    244 H244       -3.4668  -19.1621  -51.8331 H         1 UNK         0.0800 
    245 H245       -4.9121  -20.0507  -52.1191 H         1 UNK         0.0800 
    246 H246       -3.7417  -17.2218  -49.3587 H         1 UNK         0.0800 
    247 H247       -3.4122  -18.3548  -48.0752 H         1 UNK         0.0800 
@<TRIPOS>BOND
     1    1    2 1    
     2    1  127 1    
     3    1  128 1    
     4    1  129 1    
     5    2    3 2    
     6    2    4 am   BACKBONE|DICT|INTERRES
     7    4    5 1    
     8    4  130 1    
     9    5    6 1    
    10    5   65 1    
    11    5  131 1    
    12    6    7 1    
    13    6  132 1    
    14    6  133 1    
    15    7    8 1    
    16    8    9 1    
    17    8  134 1    
    18    8  135 1    
    19    9   10 ar   
    20    9   14 ar   
    21   10   11 ar   
    22   10  136 1    
    23   11   12 ar   
    24   11  126 1    
    25   12   13 ar   
    26   12  137 1    
    27   13   14 ar   
    28   13   15 1    
    29   14  138 1    
    30   15   16 1    
    31   15  139 1    
    32   15  140 1    
    33   16   17 1    
    34   17   18 1    
    35   17  141 1    
    36   17  142 1    
    37   18   19 1    
    38   18   67 1    
    39   18  143 1    
    40   19   20 am   BACKBONE|DICT|INTERRES
    41   19  144 1    
    42   20   21 2    
    43   20   22 1    
    44   22   23 1    
    45   22   24 1    
    46   22  145 1    
    47   23  146 1    
    48   23  147 1    
    49   23  148 1    
    50   24   25 am   BACKBONE|DICT|INTERRES
    51   24  149 1    
    52   25   26 2    
    53   25   27 1    
    54   27   28 1    
    55   27   29 1    
    56   27  150 1    
    57   28  151 1    
    58   28  152 1    
    59   28  153 1    
    60   29   30 am   BACKBONE|DICT|INTERRES
    61   29  154 1    
    62   30   31 2    
    63   30   32 1    
    64   32   33 1    
    65   32   34 1    
    66   32  155 1    
    67   33  156 1    
    68   33  157 1    
    69   33  158 1    
    70   34   35 am   BACKBONE|DICT|INTERRES
    71   34  159 1    
    72   35   36 2    
    73   35   37 1    
    74   37   38 1    
    75   37   39 1    
    76   37  160 1    
    77   38  161 1    
    78   38  162 1    
    79   38  163 1    
    80   39   40 am   BACKBONE|DICT|INTERRES
    81   39  164 1    
    82   40   41 2    
    83   40   42 1    
    84   42   43 1    
    85   42   44 1    
    86   42  165 1    
    87   43  166 1    
    88   43  167 1    
    89   43  168 1    
    90   44   45 am   BACKBONE|DICT|INTERRES
    91   44  169 1    
    92   45   46 2    
    93   45   47 1    
    94   47   48 1    
    95   47   49 1    
    96   47  170 1    
    97   48  171 1    
    98   48  172 1    
    99   48  173 1    
   100   49   50 am   BACKBONE|DICT|INTERRES
   101   49  174 1    
   102   50   51 2    
   103   50   52 1    
   104   52   53 1    
   105   52   54 1    
   106   52  175 1    
   107   53  176 1    
   108   53  177 1    
   109   53  178 1    
   110   54   55 am   BACKBONE|DICT|INTERRES
   111   54  179 1    
   112   55   56 2    
   113   55   57 1    
   114   57   58 1    
   115   57   59 1    
   116   57  180 1    
   117   58  181 1    
   118   58  182 1    
   119   58  183 1    
   120   59   60 am   BACKBONE|DICT|INTERRES
   121   59  184 1    
   122   60   61 2    
   123   60   62 1    
   124   62   63 1    
   125   62   64 1    
   126   62  185 1    
   127   63  186 1    
   128   63  187 1    
   129   63  188 1    
   130   64   65 am   BACKBONE|DICT|INTERRES
   131   64  189 1    
   132   65   66 2    
   133   67   68 2    
   134   67   69 am   BACKBONE|DICT|INTERRES
   135   69   70 1    
   136   69  190 1    
   137   70   71 1    
   138   70   72 1    
   139   70  191 1    
   140   71  192 1    
   141   71  193 1    
   142   71  194 1    
   143   72   73 2    
   144   72   74 am   BACKBONE|DICT|INTERRES
   145   74   75 1    
   146   74  195 1    
   147   75   76 1    
   148   75   77 1    
   149   75  196 1    
   150   76  197 1    
   151   76  198 1    
   152   76  199 1    
   153   77   78 2    
   154   77   79 am   BACKBONE|DICT|INTERRES
   155   79   80 1    
   156   79  200 1    
   157   80   81 1    
   158   80   82 1    
   159   80  201 1    
   160   81  202 1    
   161   81  203 1    
   162   81  204 1    
   163   82   83 2    
   164   82   84 am   BACKBONE|DICT|INTERRES
   165   84   85 1    
   166   84  205 1    
   167   85   86 1    
   168   85   87 1    
   169   85  206 1    
   170   86  207 1    
   171   86  208 1    
   172   86  209 1    
   173   87   88 2    
   174   87   89 am   BACKBONE|DICT|INTERRES
   175   89   90 1    
   176   89  210 1    
   177   90   91 1    
   178   90   92 1    
   179   90  211 1    
   180   91  212 1    
   181   91  213 1    
   182   91  214 1    
   183   92   93 2    
   184   92   94 am   BACKBONE|DICT|INTERRES
   185   94   95 1    
   186   94  215 1    
   187   95   96 1    
   188   95   97 1    
   189   95  216 1    
   190   96  217 1    
   191   96  218 1    
   192   96  219 1    
   193   97   98 2    
   194   97   99 am   BACKBONE|DICT|INTERRES
   195   99  100 1    
   196   99  220 1    
   197  100  101 1    
   198  100  102 1    
   199  100  221 1    
   200  101  222 1    
   201  101  223 1    
   202  101  224 1    
   203  102  103 2    
   204  102  104 am   BACKBONE|DICT|INTERRES
   205  104  105 1    
   206  104  225 1    
   207  105  106 1    
   208  105  107 1    
   209  105  226 1    
   210  106  227 1    
   211  106  228 1    
   212  106  229 1    
   213  107  108 2    
   214  107  109 am   BACKBONE|DICT|INTERRES
   215  109  110 1    
   216  109  230 1    
   217  110  111 1    
   218  110  112 1    
   219  110  231 1    
   220  111  232 1    
   221  111  233 1    
   222  111  234 1    
   223  112  113 2    
   224  112  114 am   BACKBONE|DICT|INTERRES
   225  114  115 1    
   226  114  235 1    
   227  115  116 1    
   228  115  117 1    
   229  115  236 1    
   230  116  237 1    
   231  116  238 1    
   232  116  239 1    
   233  117  118 2    
   234  117  119 am   BACKBONE|DICT|INTERRES
   235  119  120 1    
   236  119  240 1    
   237  120  121 1    
   238  120  124 1    
   239  120  241 1    
   240  121  122 am   BACKBONE|DICT|INTERRES
   241  121  123 2    
   242  122  242 1    
   243  122  243 1    
   244  124  125 1    
   245  124  244 1    
   246  124  245 1    
   247  125  126 1    
   248  126  246 1    
   249  126  247 1    
@<TRIPOS>SUBSTRUCTURE
     1 UNK         1 GROUP             0       ****    0 ROOT    
