@<TRIPOS>MOLECULE
3R540
247   249    1
SMALL
USER_CHARGES


@<TRIPOS>ATOM
      1 CA         -0.2853  -18.1825  -43.9454 C.3       0 UNK        -0.1800 
      2 C          -1.1543  -17.0262  -44.4064 C.2       0 UNK         0.5000 
      3 O          -0.8876  -15.8766  -44.0541 O.2       0 UNK        -0.5000 
      4 N          -2.1879  -17.3586  -45.1846 N.am      1 UNK        -0.5000 
      5 CA         -3.2059  -16.4911  -45.7830 C.3       1 UNK         0.1400 
      6 C6         -4.3127  -17.3218  -46.4989 C.3       23 UNK        -0.0398 
      7 S7         -4.7930  -18.8376  -45.5785 S.3       23 UNK        -0.2404 
      8 C8         -4.7993  -20.1482  -46.8562 C.3       23 UNK        -0.0205 
      9 C9         -3.5873  -20.1665  -47.7887 C.ar      23 UNK        -0.0193 
     10 C10        -3.7955  -20.4364  -49.1420 C.ar      23 UNK        -0.1150 
     11 C11        -2.7404  -20.3830  -50.0536 C.ar      23 UNK        -0.0193 
     12 C12        -1.4612  -20.0513  -49.6017 C.ar      23 UNK        -0.1150 
     13 C13        -1.2261  -19.8002  -48.2484 C.ar      23 UNK        -0.0193 
     14 C14        -2.2870  -19.8942  -47.3422 C.ar      23 UNK        -0.1150 
     15 C15         0.1548  -19.3413  -47.7985 C.3       23 UNK        -0.0205 
     16 S16         1.4170  -20.6563  -47.8769 S.3       23 UNK        -0.2404 
     17 C17         1.6097  -21.1595  -46.1281 C.3       23 UNK        -0.0398 
     18 CA          1.1081  -22.5983  -45.8637 C.3       11 UNK         0.1400 
     19 N           1.6456  -23.1668  -44.6239 N.am      11 UNK        -0.5000 
     20 C           1.5948  -24.4722  -44.3156 C.2       10 UNK         0.5000 
     21 O           1.1198  -25.3306  -45.0577 O.2       10 UNK        -0.5000 
     22 CA          2.1122  -24.8839  -42.9255 C.3       10 UNK         0.1400 
     23 CB          3.6436  -25.0014  -42.9289 C.3       10 UNK        -0.1800 
     24 N           1.6975  -23.9576  -41.8726 N.am      10 UNK        -0.5000 
     25 C           0.4258  -23.7273  -41.5156 C.2       9 UNK         0.5000 
     26 O          -0.5376  -24.3162  -42.0036 O.2       9 UNK        -0.5000 
     27 CA          0.1866  -22.6190  -40.4726 C.3       9 UNK         0.1400 
     28 CB          0.1441  -23.2130  -39.0572 C.3       9 UNK        -0.1800 
     29 N           1.1821  -21.5436  -40.5165 N.am      9 UNK        -0.5000 
     30 C           1.4142  -20.7567  -41.5746 C.2       8 UNK         0.5000 
     31 O           0.8272  -20.8670  -42.6553 O.2       8 UNK        -0.5000 
     32 CA          2.5132  -19.6943  -41.4090 C.3       8 UNK         0.1400 
     33 CB          3.5795  -19.8396  -42.5072 C.3       8 UNK        -0.1800 
     34 N           1.9529  -18.3497  -41.4726 N.am      8 UNK        -0.5000 
     35 C           1.2182  -17.7553  -40.5220 C.2       7 UNK         0.5000 
     36 O           0.9660  -18.2795  -39.4361 O.2       7 UNK        -0.5000 
     37 CA          0.6571  -16.3496  -40.8511 C.3       7 UNK         0.1400 
     38 CB          0.6010  -15.4275  -39.6154 C.3       7 UNK        -0.1800 
     39 N           1.3322  -15.6896  -41.9798 N.am      7 UNK        -0.5000 
     40 C           2.6161  -15.2983  -42.0374 C.2       6 UNK         0.5000 
     41 O           3.3995  -15.3725  -41.0905 O.2       6 UNK        -0.5000 
     42 CA          3.1402  -14.7924  -43.3926 C.3       6 UNK         0.1400 
     43 CB          4.0025  -15.8762  -44.0616 C.3       6 UNK        -0.1800 
     44 N           2.0795  -14.4173  -44.3247 N.am      6 UNK        -0.5000 
     45 C           1.4859  -13.2183  -44.3796 C.2       5 UNK         0.5000 
     46 O           1.7051  -12.3143  -43.5716 O.2       5 UNK        -0.5000 
     47 CA          0.4933  -12.9981  -45.5444 C.3       5 UNK         0.1400 
     48 CB          0.4122  -11.5247  -45.9933 C.3       5 UNK        -0.1800 
     49 N           0.7385  -13.8813  -46.6929 N.am      5 UNK        -0.5000 
     50 C           1.8328  -13.9428  -47.4700 C.2       4 UNK         0.5000 
     51 O           2.8017  -13.1916  -47.3592 O.2       4 UNK        -0.5000 
     52 CA          1.8605  -15.0511  -48.5352 C.3       4 UNK         0.1400 
     53 CB          2.3191  -16.3756  -47.9038 C.3       4 UNK        -0.1800 
     54 N           0.5411  -15.2301  -49.1414 N.am      4 UNK        -0.5000 
     55 C           0.2509  -15.0111  -50.4304 C.2       3 UNK         0.5000 
     56 O           1.0937  -14.7542  -51.2910 O.2       3 UNK        -0.5000 
     57 CA         -1.2393  -15.0580  -50.8296 C.3       3 UNK         0.1400 
     58 CB         -1.6271  -16.4645  -51.3035 C.3       3 UNK        -0.1800 
     59 N          -2.1484  -14.6537  -49.7544 N.am      3 UNK        -0.5000 
     60 C          -2.1765  -13.4398  -49.1878 C.2       2 UNK         0.5000 
     61 O          -1.5360  -12.4791  -49.6154 O.2       2 UNK        -0.5000 
     62 CA         -3.0330  -13.2558  -47.9147 C.3       2 UNK         0.1400 
     63 CB         -4.3148  -12.4763  -48.2476 C.3       2 UNK        -0.1800 
     64 N          -3.4028  -14.4643  -47.1598 N.am      2 UNK        -0.5000 
     65 C          -2.5911  -15.4462  -46.7412 C.2       1 UNK         0.5000 
     66 O          -1.4153  -15.5555  -47.0986 O.2       1 UNK        -0.5000 
     67 C          -0.4271  -22.6697  -45.8756 C.2       11 UNK         0.5000 
     68 O          -1.0010  -23.0702  -46.8866 O.2       11 UNK        -0.5000 
     69 N          -1.0548  -22.3306  -44.7393 N.am      12 UNK        -0.5000 
     70 CA         -2.5050  -22.3970  -44.5537 C.3       12 UNK         0.1400 
     71 CB         -2.8788  -21.7930  -43.1930 C.3       12 UNK        -0.1800 
     72 C          -3.0787  -23.8185  -44.7169 C.2       12 UNK         0.5000 
     73 O          -4.1618  -23.9727  -45.2819 O.2       12 UNK        -0.5000 
     74 N          -2.3317  -24.8263  -44.2473 N.am      13 UNK        -0.5000 
     75 CA         -2.6474  -26.2418  -44.4178 C.3       13 UNK         0.1400 
     76 CB         -1.8175  -27.0715  -43.4256 C.3       13 UNK        -0.1800 
     77 C          -2.4213  -26.7313  -45.8607 C.2       13 UNK         0.5000 
     78 O          -3.2834  -27.4238  -46.4034 O.2       13 UNK        -0.5000 
     79 N          -1.2646  -26.3896  -46.4469 N.am      14 UNK        -0.5000 
     80 CA         -0.8492  -26.8543  -47.7723 C.3       14 UNK         0.1400 
     81 CB          0.6619  -26.6326  -47.9428 C.3       14 UNK        -0.1800 
     82 C          -1.6101  -26.1910  -48.9329 C.2       14 UNK         0.5000 
     83 O          -1.8892  -26.8633  -49.9264 O.2       14 UNK        -0.5000 
     84 N          -1.8948  -24.8867  -48.8001 N.am      15 UNK        -0.5000 
     85 CA         -2.4655  -23.9931  -49.8142 C.3       15 UNK         0.1400 
     86 CB         -3.9367  -24.3566  -50.1005 C.3       15 UNK        -0.1800 
     87 C          -1.5892  -23.9157  -51.0864 C.2       15 UNK         0.5000 
     88 O          -2.1019  -23.9451  -52.2064 O.2       15 UNK        -0.5000 
     89 N          -0.2670  -23.8557  -50.8774 N.am      16 UNK        -0.5000 
     90 CA          0.7598  -24.0977  -51.8925 C.3       16 UNK         0.1400 
     91 CB          2.1103  -24.2775  -51.1815 C.3       16 UNK        -0.1800 
     92 C           0.8779  -23.0298  -52.9971 C.2       16 UNK         0.5000 
     93 O           1.3162  -23.3629  -54.0989 O.2       16 UNK        -0.5000 
     94 N           0.5291  -21.7724  -52.6885 N.am      17 UNK        -0.5000 
     95 CA          0.7243  -20.6257  -53.5857 C.3       17 UNK         0.1400 
     96 CB          0.5162  -19.3164  -52.8083 C.3       17 UNK        -0.1800 
     97 C          -0.1595  -20.6450  -54.8495 C.2       17 UNK         0.5000 
     98 O           0.2773  -20.1517  -55.8899 O.2       17 UNK        -0.5000 
     99 N          -1.3748  -21.2043  -54.7322 N.am      18 UNK        -0.5000 
    100 CA        -2.3985  -21.3426  -55.7797 C.3       18 UNK         0.1400 
    101 CB        -1.9622  -22.4075  -56.8069 C.3       18 UNK        -0.1800 
    102 C         -2.8195  -20.0080  -56.4443 C.2       18 UNK         0.5000 
    103 O         -3.1491  -19.9821  -57.6321 O.2       18 UNK        -0.5000 
    104 N         -2.7943  -18.9214  -55.6650 N.am      19 UNK        -0.5000 
    105 CA        -3.1744  -17.5712  -56.0730 C.3       19 UNK         0.1400 
    106 CB        -2.3482  -16.5768  -55.2384 C.3       19 UNK        -0.1800 
    107 C         -4.6777  -17.3251  -55.8522 C.2       19 UNK         0.5000 
    108 O         -5.3405  -18.0947  -55.1551 O.2       19 UNK        -0.5000 
    109 N         -5.1865  -16.2082  -56.3893 N.am      20 UNK        -0.5000 
    110 CA        -6.5451  -15.7180  -56.1210 C.3       20 UNK         0.1400 
    111 CB        -6.8712  -14.5744  -57.0933 C.3       20 UNK        -0.1800 
    112 C         -6.7337  -15.2568  -54.6593 C.2       20 UNK         0.5000 
    113 O         -7.8360  -15.3548  -54.1190 O.2       20 UNK        -0.5000 
    114 N         -5.6388  -14.7983  -54.0366 N.am      21 UNK        -0.5000 
    115 CA        -5.5596  -14.3649  -52.6401 C.3       21 UNK         0.1400 
    116 CB        -4.2847  -13.5266  -52.4700 C.3       21 UNK        -0.1800 
    117 C         -5.6071  -15.5187  -51.6138 C.2       21 UNK         0.5000 
    118 O         -5.6727  -15.2500  -50.4139 O.2       21 UNK        -0.5000 
    119 N         -5.5800  -16.7727  -52.0850 N.am      22 UNK        -0.5000 
    120 CA        -5.7665  -17.9837  -51.2687 C.3       22 UNK         0.1400 
    121 C         -7.2081  -18.1636  -50.7061 C.2       22 UNK         0.5000 
    122 N         -8.2180  -17.4682  -51.2177 N.am      22 UNK        -0.7600 
    123 O         -7.4117  -18.9505  -49.7862 O.2       22 UNK        -0.5000 
    124 C124       -5.3403  -19.2534  -52.0450 C.3       23 UNK        -0.0398 
    125 S125       -3.5613  -19.2613  -52.4522 S.3       23 UNK        -0.2404 
    126 C126       -2.9784  -20.7027  -51.5189 C.3       23 UNK        -0.0205 
    127 H127       -0.5387  -19.1096  -44.4581 H         1 UNK         0.0600 
    128 H128       -0.4380  -18.3519  -42.8816 H         1 UNK         0.0600 
    129 H129        0.7673  -17.9692  -44.1280 H         1 UNK         0.0600 
    130 H130       -2.3411  -18.3341  -45.3820 H         1 UNK         0.3000 
    131 H131       -3.6672  -15.9431  -44.9592 H         1 UNK         0.0600 
    132 H132       -5.2101  -16.7152  -46.6292 H         1 UNK         0.0800 
    133 H133       -3.9993  -17.5918  -47.5080 H         1 UNK         0.0800 
    134 H134       -4.8944  -21.1205  -46.3727 H         1 UNK         0.0800 
    135 H135       -5.7110  -20.0165  -47.4418 H         1 UNK         0.0800 
    136 H136       -4.7896  -20.6817  -49.4847 H         1 UNK         0.1150 
    137 H137       -0.6410  -19.9807  -50.2987 H         1 UNK         0.1150 
    138 H138       -2.1053  -19.7248  -46.2946 H         1 UNK         0.1150 
    139 H139        0.4661  -18.5374  -48.4658 H         1 UNK         0.0800 
    140 H140        0.1173  -18.8961  -46.8053 H         1 UNK         0.0800 
    141 H141        1.1379  -20.4426  -45.4564 H         1 UNK         0.0800 
    142 H142        2.6765  -21.1036  -45.9080 H         1 UNK         0.0800 
    143 H143        1.4682  -23.2291  -46.6799 H         1 UNK         0.0600 
    144 H144        1.9755  -22.5126  -43.9287 H         1 UNK         0.3000 
    145 H145        1.6939  -25.8656  -42.6930 H         1 UNK         0.0600 
    146 H146        4.0124  -25.3726  -41.9726 H         1 UNK         0.0600 
    147 H147        3.9792  -25.6985  -43.6979 H         1 UNK         0.0600 
    148 H148        4.1228  -24.0412  -43.1242 H         1 UNK         0.0600 
    149 H149        2.4258  -23.4320  -41.4128 H         1 UNK         0.3000 
    150 H150       -0.7870  -22.1736  -40.6843 H         1 UNK         0.0600 
    151 H151        1.1036  -23.6472  -38.7733 H         1 UNK         0.0600 
    152 H152       -0.6068  -24.0013  -38.9870 H         1 UNK         0.0600 
    153 H153       -0.1139  -22.4542  -38.3182 H         1 UNK         0.0600 
    154 H154        1.6961  -21.3755  -39.6635 H         1 UNK         0.3000 
    155 H155        3.0005  -19.8238  -40.4403 H         1 UNK         0.0600 
    156 H156        3.1612  -19.6844  -43.5028 H         1 UNK         0.0600 
    157 H157        4.0261  -20.8345  -42.4898 H         1 UNK         0.0600 
    158 H158        4.3864  -19.1195  -42.3692 H         1 UNK         0.0600 
    159 H159        2.0957  -17.8490  -42.3347 H         1 UNK         0.3000 
    160 H160       -0.3714  -16.5107  -41.1765 H         1 UNK         0.0600 
    161 H161       -0.0507  -15.8440  -38.8467 H         1 UNK         0.0600 
    162 H162        0.2070  -14.4448  -39.8746 H         1 UNK         0.0600 
    163 H163        1.5840  -15.2879  -39.1653 H         1 UNK         0.0600 
    164 H164        0.7589  -15.5665  -42.8086 H         1 UNK         0.3000 
    165 H165        3.7724  -13.9231  -43.1993 H         1 UNK         0.0600 
    166 H166        4.4397  -15.5117  -44.9915 H         1 UNK         0.0600 
    167 H167        4.8271  -16.1777  -43.4141 H         1 UNK         0.0600 
    168 H168        3.4227  -16.7708  -44.2925 H         1 UNK         0.0600 
    169 H169        1.8188  -15.1000  -45.0198 H         1 UNK         0.3000 
    170 H170       -0.4877  -13.2777  -45.1577 H         1 UNK         0.0600 
    171 H171        0.0596  -10.8874  -45.1816 H         1 UNK         0.0600 
    172 H172        1.3838  -11.1437  -46.3084 H         1 UNK         0.0600 
    173 H173       -0.2806  -11.4024  -46.8258 H         1 UNK         0.0600 
    174 H174       -0.0007  -14.5636  -46.8533 H         1 UNK         0.3000 
    175 H175        2.5962  -14.7606  -49.2879 H         1 UNK         0.0600 
    176 H176        2.4251  -17.1532  -48.6602 H         1 UNK         0.0600 
    177 H177        3.2901  -16.2631  -47.4198 H         1 UNK         0.0600 
    178 H178        1.6152  -16.7296  -47.1497 H         1 UNK         0.0600 
    179 H179       -0.2284  -15.4195  -48.5044 H         1 UNK         0.3000 
    180 H180       -1.3699  -14.3635  -51.6607 H         1 UNK         0.0600 
    181 H181       -1.5192  -17.2035  -50.5086 H         1 UNK         0.0600 
    182 H182       -1.0000  -16.7814  -52.1371 H         1 UNK         0.0600 
    183 H183       -2.6604  -16.4914  -51.6466 H         1 UNK         0.0600 
    184 H184       -2.7086  -15.3815  -49.3370 H         1 UNK         0.3000 
    185 H185       -2.4375  -12.6425  -47.2363 H         1 UNK         0.0600 
    186 H186       -4.0885  -11.5540  -48.7846 H         1 UNK         0.0600 
    187 H187       -4.9880  -13.0627  -48.8737 H         1 UNK         0.0600 
    188 H188       -4.8549  -12.1966  -47.3430 H         1 UNK         0.0600 
    189 H189       -4.3621  -14.4818  -46.8456 H         1 UNK         0.3000 
    190 H190       -0.5025  -22.0135  -43.9510 H         1 UNK         0.3000 
    191 H191       -2.9549  -21.7790  -45.3283 H         1 UNK         0.0600 
    192 H192       -2.4933  -20.7782  -43.0903 H         1 UNK         0.0600 
    193 H193       -3.9620  -21.7430  -43.0764 H         1 UNK         0.0600 
    194 H194       -2.4881  -22.3882  -42.3683 H         1 UNK         0.0600 
    195 H195       -1.4928  -24.6065  -43.7197 H         1 UNK         0.3000 
    196 H196       -3.7024  -26.3885  -44.1767 H         1 UNK         0.0600 
    197 H197       -2.0365  -28.1353  -43.5253 H         1 UNK         0.0600 
    198 H198       -2.0383  -26.7886  -42.3961 H         1 UNK         0.0600 
    199 H199       -0.7467  -26.9388  -43.5844 H         1 UNK         0.0600 
    200 H200       -0.5838  -25.8467  -45.9244 H         1 UNK         0.3000 
    201 H201       -1.0362  -27.9289  -47.8278 H         1 UNK         0.0600 
    202 H202        1.0031  -26.9875  -48.9161 H         1 UNK         0.0600 
    203 H203        1.2275  -27.1739  -47.1842 H         1 UNK         0.0600 
    204 H204        0.9248  -25.5767  -47.8666 H         1 UNK         0.0600 
    205 H205       -1.5993  -24.4133  -47.9472 H         1 UNK         0.3000 
    206 H206       -2.4505  -23.0011  -49.3660 H         1 UNK         0.0600 
    207 H207       -4.5197  -24.3796  -49.1797 H         1 UNK         0.0600 
    208 H208       -4.4028  -23.6243  -50.7594 H         1 UNK         0.0600 
    209 H209       -4.0281  -25.3312  -50.5803 H         1 UNK         0.0600 
    210 H210        0.0542  -23.8069  -49.9215 H         1 UNK         0.3000 
    211 H211        0.5131  -25.0399  -52.3867 H         1 UNK         0.0600 
    212 H212        2.0801  -25.1112  -50.4799 H         1 UNK         0.0600 
    213 H213        2.3948  -23.3818  -50.6274 H         1 UNK         0.0600 
    214 H214        2.9063  -24.4875  -51.8973 H         1 UNK         0.0600 
    215 H215        0.2074  -21.5837  -51.7517 H         1 UNK         0.3000 
    216 H216        1.7639  -20.6480  -53.9200 H         1 UNK         0.0600 
    217 H217        0.7575  -18.4540  -53.4311 H         1 UNK         0.0600 
    218 H218        1.1574  -19.2675  -51.9279 H         1 UNK         0.0600 
    219 H219       -0.5167  -19.1979  -52.4848 H         1 UNK         0.0600 
    220 H220       -1.6136  -21.6108  -53.8395 H         1 UNK         0.3000 
    221 H221       -3.2919  -21.7175  -55.2782 H         1 UNK         0.0600 
    222 H222       -1.0978  -22.0791  -57.3847 H         1 UNK         0.0600 
    223 H223       -1.6995  -23.3441  -56.3147 H         1 UNK         0.0600 
    224 H224       -2.7647  -22.6273  -57.5119 H         1 UNK         0.0600 
    225 H225       -2.5988  -19.0477  -54.6818 H         1 UNK         0.3000 
    226 H226       -2.9444  -17.4262  -57.1305 H         1 UNK         0.0600 
    227 H227       -1.2797  -16.7684  -55.3416 H         1 UNK         0.0600 
    228 H228       -2.5223  -15.5487  -55.5571 H         1 UNK         0.0600 
    229 H229       -2.5966  -16.6393  -54.1783 H         1 UNK         0.0600 
    230 H230       -4.5978  -15.6210  -56.9628 H         1 UNK         0.3000 
    231 H231       -7.2475  -16.5340  -56.3041 H         1 UNK         0.0600 
    232 H232       -6.1903  -13.7316  -56.9683 H         1 UNK         0.0600 
    233 H233       -7.8848  -14.2040  -56.9338 H         1 UNK         0.0600 
    234 H234       -6.8079  -14.9075  -58.1294 H         1 UNK         0.0600 
    235 H235       -4.7807  -14.7560  -54.5650 H         1 UNK         0.3000 
    236 H236       -6.4176  -13.7222  -52.4326 H         1 UNK         0.0600 
    237 H237       -4.3039  -12.6458  -53.1120 H         1 UNK         0.0600 
    238 H238       -4.1765  -13.1736  -51.4442 H         1 UNK         0.0600 
    239 H239       -3.3958  -14.1037  -52.7213 H         1 UNK         0.0600 
    240 H240       -5.5138  -16.9222  -53.0821 H         1 UNK         0.3000 
    241 H241       -5.1144  -17.8929  -50.3975 H         1 UNK         0.0600 
    242 H242       -8.0690  -16.8255  -51.9814 H         1 UNK         0.3800 
    243 H243       -9.1449  -17.5932  -50.8422 H         1 UNK         0.3800 
    244 H244       -5.5866  -20.1559  -51.4866 H         1 UNK         0.0800 
    245 H245       -5.9069  -19.3354  -52.9728 H         1 UNK         0.0800 
    246 H246       -3.6873  -21.5242  -51.6238 H         1 UNK         0.0800 
    247 H247       -2.0523  -21.0517  -51.9689 H         1 UNK         0.0800 
@<TRIPOS>BOND
     1    1    2 1    
     2    1  127 1    
     3    1  128 1    
     4    1  129 1    
     5    2    3 2    
     6    2    4 am   BACKBONE|DICT|INTERRES
     7    4    5 1    
     8    4  130 1    
     9    5    6 1    
    10    5   65 1    
    11    5  131 1    
    12    6    7 1    
    13    6  132 1    
    14    6  133 1    
    15    7    8 1    
    16    8    9 1    
    17    8  134 1    
    18    8  135 1    
    19    9   10 ar   
    20    9   14 ar   
    21   10   11 ar   
    22   10  136 1    
    23   11   12 ar   
    24   11  126 1    
    25   12   13 ar   
    26   12  137 1    
    27   13   14 ar   
    28   13   15 1    
    29   14  138 1    
    30   15   16 1    
    31   15  139 1    
    32   15  140 1    
    33   16   17 1    
    34   17   18 1    
    35   17  141 1    
    36   17  142 1    
    37   18   19 1    
    38   18   67 1    
    39   18  143 1    
    40   19   20 am   BACKBONE|DICT|INTERRES
    41   19  144 1    
    42   20   21 2    
    43   20   22 1    
    44   22   23 1    
    45   22   24 1    
    46   22  145 1    
    47   23  146 1    
    48   23  147 1    
    49   23  148 1    
    50   24   25 am   BACKBONE|DICT|INTERRES
    51   24  149 1    
    52   25   26 2    
    53   25   27 1    
    54   27   28 1    
    55   27   29 1    
    56   27  150 1    
    57   28  151 1    
    58   28  152 1    
    59   28  153 1    
    60   29   30 am   BACKBONE|DICT|INTERRES
    61   29  154 1    
    62   30   31 2    
    63   30   32 1    
    64   32   33 1    
    65   32   34 1    
    66   32  155 1    
    67   33  156 1    
    68   33  157 1    
    69   33  158 1    
    70   34   35 am   BACKBONE|DICT|INTERRES
    71   34  159 1    
    72   35   36 2    
    73   35   37 1    
    74   37   38 1    
    75   37   39 1    
    76   37  160 1    
    77   38  161 1    
    78   38  162 1    
    79   38  163 1    
    80   39   40 am   BACKBONE|DICT|INTERRES
    81   39  164 1    
    82   40   41 2    
    83   40   42 1    
    84   42   43 1    
    85   42   44 1    
    86   42  165 1    
    87   43  166 1    
    88   43  167 1    
    89   43  168 1    
    90   44   45 am   BACKBONE|DICT|INTERRES
    91   44  169 1    
    92   45   46 2    
    93   45   47 1    
    94   47   48 1    
    95   47   49 1    
    96   47  170 1    
    97   48  171 1    
    98   48  172 1    
    99   48  173 1    
   100   49   50 am   BACKBONE|DICT|INTERRES
   101   49  174 1    
   102   50   51 2    
   103   50   52 1    
   104   52   53 1    
   105   52   54 1    
   106   52  175 1    
   107   53  176 1    
   108   53  177 1    
   109   53  178 1    
   110   54   55 am   BACKBONE|DICT|INTERRES
   111   54  179 1    
   112   55   56 2    
   113   55   57 1    
   114   57   58 1    
   115   57   59 1    
   116   57  180 1    
   117   58  181 1    
   118   58  182 1    
   119   58  183 1    
   120   59   60 am   BACKBONE|DICT|INTERRES
   121   59  184 1    
   122   60   61 2    
   123   60   62 1    
   124   62   63 1    
   125   62   64 1    
   126   62  185 1    
   127   63  186 1    
   128   63  187 1    
   129   63  188 1    
   130   64   65 am   BACKBONE|DICT|INTERRES
   131   64  189 1    
   132   65   66 2    
   133   67   68 2    
   134   67   69 am   BACKBONE|DICT|INTERRES
   135   69   70 1    
   136   69  190 1    
   137   70   71 1    
   138   70   72 1    
   139   70  191 1    
   140   71  192 1    
   141   71  193 1    
   142   71  194 1    
   143   72   73 2    
   144   72   74 am   BACKBONE|DICT|INTERRES
   145   74   75 1    
   146   74  195 1    
   147   75   76 1    
   148   75   77 1    
   149   75  196 1    
   150   76  197 1    
   151   76  198 1    
   152   76  199 1    
   153   77   78 2    
   154   77   79 am   BACKBONE|DICT|INTERRES
   155   79   80 1    
   156   79  200 1    
   157   80   81 1    
   158   80   82 1    
   159   80  201 1    
   160   81  202 1    
   161   81  203 1    
   162   81  204 1    
   163   82   83 2    
   164   82   84 am   BACKBONE|DICT|INTERRES
   165   84   85 1    
   166   84  205 1    
   167   85   86 1    
   168   85   87 1    
   169   85  206 1    
   170   86  207 1    
   171   86  208 1    
   172   86  209 1    
   173   87   88 2    
   174   87   89 am   BACKBONE|DICT|INTERRES
   175   89   90 1    
   176   89  210 1    
   177   90   91 1    
   178   90   92 1    
   179   90  211 1    
   180   91  212 1    
   181   91  213 1    
   182   91  214 1    
   183   92   93 2    
   184   92   94 am   BACKBONE|DICT|INTERRES
   185   94   95 1    
   186   94  215 1    
   187   95   96 1    
   188   95   97 1    
   189   95  216 1    
   190   96  217 1    
   191   96  218 1    
   192   96  219 1    
   193   97   98 2    
   194   97   99 am   BACKBONE|DICT|INTERRES
   195   99  100 1    
   196   99  220 1    
   197  100  101 1    
   198  100  102 1    
   199  100  221 1    
   200  101  222 1    
   201  101  223 1    
   202  101  224 1    
   203  102  103 2    
   204  102  104 am   BACKBONE|DICT|INTERRES
   205  104  105 1    
   206  104  225 1    
   207  105  106 1    
   208  105  107 1    
   209  105  226 1    
   210  106  227 1    
   211  106  228 1    
   212  106  229 1    
   213  107  108 2    
   214  107  109 am   BACKBONE|DICT|INTERRES
   215  109  110 1    
   216  109  230 1    
   217  110  111 1    
   218  110  112 1    
   219  110  231 1    
   220  111  232 1    
   221  111  233 1    
   222  111  234 1    
   223  112  113 2    
   224  112  114 am   BACKBONE|DICT|INTERRES
   225  114  115 1    
   226  114  235 1    
   227  115  116 1    
   228  115  117 1    
   229  115  236 1    
   230  116  237 1    
   231  116  238 1    
   232  116  239 1    
   233  117  118 2    
   234  117  119 am   BACKBONE|DICT|INTERRES
   235  119  120 1    
   236  119  240 1    
   237  120  121 1    
   238  120  124 1    
   239  120  241 1    
   240  121  122 am   BACKBONE|DICT|INTERRES
   241  121  123 2    
   242  122  242 1    
   243  122  243 1    
   244  124  125 1    
   245  124  244 1    
   246  124  245 1    
   247  125  126 1    
   248  126  246 1    
   249  126  247 1    
@<TRIPOS>SUBSTRUCTURE
     1 UNK         1 GROUP             0       ****    0 ROOT    
