@<TRIPOS>MOLECULE
3R540
247   249    1
SMALL
USER_CHARGES


@<TRIPOS>ATOM
      1 CA          6.4430  -11.4447  -43.9505 C.3       0 UNK        -0.1800 
      2 C           5.4504  -12.5144  -44.3814 C.2       0 UNK         0.5000 
      3 O           4.8888  -13.2056  -43.5321 O.2       0 UNK        -0.5000 
      4 N           5.2387  -12.6614  -45.6951 N.am      1 UNK        -0.5000 
      5 CA          4.2773  -13.6022  -46.2744 C.3       1 UNK         0.1400 
      6 C6          4.7235  -14.0888  -47.6747 C.3       23 UNK        -0.0398 
      7 S7          4.0404  -15.7311  -48.0529 S.3       23 UNK        -0.2404 
      8 C8          3.2159  -15.4508  -49.6562 C.3       23 UNK        -0.0205 
      9 C9          2.2568  -16.5827  -50.0070 C.ar      23 UNK        -0.0193 
     10 C10         0.9622  -16.2970  -50.4504 C.ar      23 UNK        -0.1150 
     11 C11         0.0555  -17.3298  -50.7055 C.ar      23 UNK        -0.0193 
     12 C12         0.4591  -18.6559  -50.5341 C.ar      23 UNK        -0.1150 
     13 C13         1.7604  -18.9639  -50.1157 C.ar      23 UNK        -0.0193 
     14 C14         2.6498  -17.9173  -49.8670 C.ar      23 UNK        -0.1150 
     15 C15         2.2670  -20.3888  -49.8852 C.3       23 UNK        -0.0205 
     16 S16         1.1417  -21.7483  -50.3399 S.3       23 UNK        -0.2404 
     17 C17        -0.1268  -21.6424  -49.0347 C.3       23 UNK        -0.0398 
     18 CA          0.0922  -22.6912  -47.9175 C.3       11 UNK         0.1400 
     19 N           1.0793  -22.2614  -46.9248 N.am      11 UNK        -0.5000 
     20 C           2.3030  -22.7946  -46.8065 C.2       10 UNK         0.5000 
     21 O           2.7023  -23.7516  -47.4712 O.2       10 UNK        -0.5000 
     22 CA          3.2653  -22.1536  -45.7902 C.3       10 UNK         0.1400 
     23 CB          4.0488  -20.9979  -46.4307 C.3       10 UNK        -0.1800 
     24 N           2.6174  -21.6775  -44.5703 N.am      10 UNK        -0.5000 
     25 C           2.1327  -22.4795  -43.6125 C.2       9 UNK         0.5000 
     26 O           2.1014  -23.7076  -43.6943 O.2       9 UNK        -0.5000 
     27 CA          1.6120  -21.7915  -42.3400 C.3       9 UNK         0.1400 
     28 CB          2.7765  -21.4180  -41.4095 C.3       9 UNK        -0.1800 
     29 N           0.8416  -20.5908  -42.6488 N.am      9 UNK        -0.5000 
     30 C          -0.4250  -20.6053  -43.0796 C.2       8 UNK         0.5000 
     31 O          -1.0852  -21.6310  -43.2363 O.2       8 UNK        -0.5000 
     32 CA         -1.0366  -19.2407  -43.4378 C.3       8 UNK         0.1400 
     33 CB         -1.4974  -18.4955  -42.1771 C.3       8 UNK        -0.1800 
     34 N          -0.1152  -18.4091  -44.2062 N.am      8 UNK        -0.5000 
     35 C           0.3186  -18.7107  -45.4405 C.2       7 UNK         0.5000 
     36 O          -0.0371  -19.7146  -46.0627 O.2       7 UNK        -0.5000 
     37 CA          1.3242  -17.7354  -46.0833 C.3       7 UNK         0.1400 
     38 CB          0.5466  -16.6831  -46.8817 C.3       7 UNK        -0.1800 
     39 N           2.1828  -17.0467  -45.1157 N.am      7 UNK        -0.5000 
     40 C           2.9717  -17.6324  -44.2011 C.2       6 UNK         0.5000 
     41 O           3.1417  -18.8498  -44.1248 O.2       6 UNK        -0.5000 
     42 CA          3.6078  -16.7144  -43.1350 C.3       6 UNK         0.1400 
     43 CB          5.0951  -16.4760  -43.4332 C.3       6 UNK        -0.1800 
     44 N           2.9046  -15.4338  -42.9485 N.am      6 UNK        -0.5000 
     45 C           1.6321  -15.3454  -42.5244 C.2       5 UNK         0.5000 
     46 O           0.9459  -16.3365  -42.2719 O.2       5 UNK        -0.5000 
     47 CA          0.9810  -13.9582  -42.3983 C.3       5 UNK         0.1400 
     48 CB          1.9675  -12.7795  -42.3513 C.3       5 UNK        -0.1800 
     49 N           0.0598  -13.7686  -43.5174 N.am      5 UNK        -0.5000 
     50 C          -1.2576  -14.0183  -43.4675 C.2       4 UNK         0.5000 
     51 O          -1.8309  -14.4268  -42.4569 O.2       4 UNK        -0.5000 
     52 CA         -2.1025  -13.7554  -44.7280 C.3       4 UNK         0.1400 
     53 CB         -2.9225  -12.4615  -44.5520 C.3       4 UNK        -0.1800 
     54 N          -1.3114  -13.6789  -45.9576 N.am      4 UNK        -0.5000 
     55 C          -1.8098  -13.7834  -47.1992 C.2       3 UNK         0.5000 
     56 O          -2.9887  -14.0480  -47.4395 O.2       3 UNK        -0.5000 
     57 CA         -0.8194  -13.5562  -48.3652 C.3       3 UNK         0.1400 
     58 CB         -1.4973  -13.0327  -49.6482 C.3       3 UNK        -0.1800 
     59 N           0.3226  -12.7174  -47.9811 N.am      3 UNK        -0.5000 
     60 C           0.2921  -11.4484  -47.5465 C.2       2 UNK         0.5000 
     61 O          -0.7033  -10.7274  -47.6176 O.2       2 UNK        -0.5000 
     62 CA          1.5675  -10.8933  -46.8700 C.3       2 UNK         0.1400 
     63 CB          1.2520  -10.4064  -45.4408 C.3       2 UNK        -0.1800 
     64 N           2.7388  -11.7859  -46.8377 N.am      2 UNK        -0.5000 
     65 C           2.8608  -12.9978  -46.2724 C.2       1 UNK         0.5000 
     66 O           1.9255  -13.6167  -45.7556 O.2       1 UNK        -0.5000 
     67 C          -1.2399  -23.0549  -47.2506 C.2       11 UNK         0.5000 
     68 O          -1.6981  -24.1814  -47.4402 O.2       11 UNK        -0.5000 
     69 N          -1.8651  -22.1149  -46.5215 N.am      12 UNK        -0.5000 
     70 CA         -3.2726  -22.2333  -46.1024 C.3       12 UNK         0.1400 
     71 CB         -3.7611  -20.9354  -45.4470 C.3       12 UNK        -0.1800 
     72 C          -3.5833  -23.4466  -45.2044 C.2       12 UNK         0.5000 
     73 O          -4.6770  -24.0038  -45.2971 O.2       12 UNK        -0.5000 
     74 N          -2.6035  -23.8529  -44.3881 N.am      13 UNK        -0.5000 
     75 CA         -2.6365  -25.0567  -43.5588 C.3       13 UNK         0.1400 
     76 CB         -1.4184  -25.0442  -42.6220 C.3       13 UNK        -0.1800 
     77 C          -2.6801  -26.3704  -44.3682 C.2       13 UNK         0.5000 
     78 O          -3.2000  -27.3658  -43.8619 O.2       13 UNK        -0.5000 
     79 N          -2.1427  -26.3580  -45.5963 N.am      14 UNK        -0.5000 
     80 CA         -2.1827  -27.4816  -46.5303 C.3       14 UNK         0.1400 
     81 CB         -0.8993  -27.5010  -47.3770 C.3       14 UNK        -0.1800 
     82 C          -3.4342  -27.4051  -47.4199 C.2       14 UNK         0.5000 
     83 O          -4.1495  -28.4006  -47.5416 O.2       14 UNK        -0.5000 
     84 N          -3.6927  -26.2277  -48.0033 N.am      15 UNK        -0.5000 
     85 CA         -4.8658  -25.9400  -48.8215 C.3       15 UNK         0.1400 
     86 CB         -4.6815  -26.4915  -50.2458 C.3       15 UNK        -0.1800 
     87 C          -5.0876  -24.4244  -48.8436 C.2       15 UNK         0.5000 
     88 O          -4.1698  -23.6866  -49.2107 O.2       15 UNK        -0.5000 
     89 N          -6.2973  -23.9927  -48.4613 N.am      16 UNK        -0.5000 
     90 CA         -6.7186  -22.5966  -48.3110 C.3       16 UNK         0.1400 
     91 CB         -8.2209  -22.5575  -47.9938 C.3       16 UNK        -0.1800 
     92 C          -6.4056  -21.7278  -49.5426 C.2       16 UNK         0.5000 
     93 O          -6.8326  -22.0663  -50.6490 O.2       16 UNK        -0.5000 
     94 N          -5.6373  -20.6497  -49.3256 N.am      17 UNK        -0.5000 
     95 CA         -5.1680  -19.6900  -50.3334 C.3       17 UNK         0.1400 
     96 CB         -6.3449  -18.8177  -50.8199 C.3       17 UNK        -0.1800 
     97 C          -4.3770  -20.3473  -51.4873 C.2       17 UNK         0.5000 
     98 O          -4.5139  -19.9290  -52.6373 O.2       17 UNK        -0.5000 
     99 N          -3.5912  -21.3848  -51.1539 N.am      18 UNK        -0.5000 
    100 CA        -2.8260  -22.2434  -52.0668 C.3       18 UNK         0.1400 
    101 CB        -1.7347  -21.4405  -52.8055 C.3       18 UNK        -0.1800 
    102 C         -3.7457  -23.0267  -53.0239 C.2       18 UNK         0.5000 
    103 O         -3.4948  -23.0710  -54.2277 O.2       18 UNK        -0.5000 
    104 N         -4.8266  -23.5921  -52.4666 N.am      19 UNK        -0.5000 
    105 CA        -5.9440  -24.2319  -53.1735 C.3       19 UNK         0.1400 
    106 CB        -5.4884  -25.5203  -53.8919 C.3       19 UNK        -0.1800 
    107 C         -6.6622  -23.2348  -54.1082 C.2       19 UNK         0.5000 
    108 O         -6.9216  -23.5395  -55.2734 O.2       19 UNK        -0.5000 
    109 N         -6.9282  -22.0392  -53.5644 N.am      20 UNK        -0.5000 
    110 CA        -7.5308  -20.8619  -54.1973 C.3       20 UNK         0.1400 
    111 CB        -8.9630  -21.1675  -54.6819 C.3       20 UNK        -0.1800 
    112 C         -6.6773  -20.1876  -55.2949 C.2       20 UNK         0.5000 
    113 O         -7.1624  -19.2442  -55.9225 O.2       20 UNK        -0.5000 
    114 N         -5.4237  -20.6213  -55.4992 N.am      21 UNK        -0.5000 
    115 CA        -4.5036  -20.0548  -56.4919 C.3       21 UNK         0.1400 
    116 CB        -3.2636  -20.9483  -56.6294 C.3       21 UNK        -0.1800 
    117 C         -4.0950  -18.5971  -56.2002 C.2       21 UNK         0.5000 
    118 O         -3.8341  -17.8494  -57.1440 O.2       21 UNK        -0.5000 
    119 N         -4.0839  -18.2059  -54.9190 N.am      22 UNK        -0.5000 
    120 CA        -3.9251  -16.8092  -54.4802 C.3       22 UNK         0.1400 
    121 C         -5.2171  -15.9470  -54.6295 C.2       22 UNK         0.5000 
    122 N         -6.3554  -16.4875  -55.0512 N.am      22 UNK        -0.7600 
    123 O         -5.1851  -14.7478  -54.3671 O.2       22 UNK        -0.5000 
    124 C124       -3.3575  -16.7094  -53.0406 C.3       23 UNK        -0.0398 
    125 S125       -1.6742  -17.3892  -52.8762 S.3       23 UNK        -0.2404 
    126 C126       -1.3743  -17.0181  -51.1207 C.3       23 UNK        -0.0205 
    127 H127        7.2571  -11.8963  -43.3836 H         1 UNK         0.0600 
    128 H128        5.9483  -10.7112  -43.3137 H         1 UNK         0.0600 
    129 H129        6.8719  -10.9206  -44.8048 H         1 UNK         0.0600 
    130 H130        5.7410  -12.0722  -46.3438 H         1 UNK         0.3000 
    131 H131        4.2354  -14.4752  -45.6237 H         1 UNK         0.0600 
    132 H132        4.4798  -13.3701  -48.4588 H         1 UNK         0.0800 
    133 H133        5.8088  -14.1974  -47.7010 H         1 UNK         0.0800 
    134 H134        2.6783  -14.5021  -49.6203 H         1 UNK         0.0800 
    135 H135        3.9683  -15.3599  -50.4405 H         1 UNK         0.0800 
    136 H136        0.6528  -15.2696  -50.5777 H         1 UNK         0.1150 
    137 H137       -0.2593  -19.4352  -50.7256 H         1 UNK         0.1150 
    138 H138        3.6528  -18.1443  -49.5335 H         1 UNK         0.1150 
    139 H139        3.1900  -20.5227  -50.4508 H         1 UNK         0.0800 
    140 H140        2.5322  -20.4979  -48.8353 H         1 UNK         0.0800 
    141 H141       -1.0838  -21.7951  -49.5365 H         1 UNK         0.0800 
    142 H142       -0.1671  -20.6356  -48.6175 H         1 UNK         0.0800 
    143 H143        0.4242  -23.6156  -48.3957 H         1 UNK         0.0600 
    144 H144        0.8227  -21.4648  -46.3509 H         1 UNK         0.3000 
    145 H145        3.9882  -22.9210  -45.5047 H         1 UNK         0.0600 
    146 H146        4.8291  -20.6349  -45.7614 H         1 UNK         0.0600 
    147 H147        4.5345  -21.3143  -47.3547 H         1 UNK         0.0600 
    148 H148        3.4002  -20.1557  -46.6680 H         1 UNK         0.0600 
    149 H149        2.6500  -20.6754  -44.4025 H         1 UNK         0.3000 
    150 H150        0.9693  -22.4998  -41.8120 H         1 UNK         0.0600 
    151 H151        2.4121  -20.9868  -40.4770 H         1 UNK         0.0600 
    152 H152        3.3673  -22.2979  -41.1517 H         1 UNK         0.0600 
    153 H153        3.4488  -20.6947  -41.8731 H         1 UNK         0.0600 
    154 H154        1.3295  -19.7077  -42.6020 H         1 UNK         0.3000 
    155 H155       -1.9101  -19.4033  -44.0640 H         1 UNK         0.0600 
    156 H156       -0.6738  -18.3257  -41.4830 H         1 UNK         0.0600 
    157 H157       -2.2598  -19.0665  -41.6460 H         1 UNK         0.0600 
    158 H158       -1.9297  -17.5258  -42.4259 H         1 UNK         0.0600 
    159 H159        0.2488  -17.5869  -43.7359 H         1 UNK         0.3000 
    160 H160        1.9627  -18.2956  -46.7677 H         1 UNK         0.0600 
    161 H161       -0.1514  -16.1438  -46.2428 H         1 UNK         0.0600 
    162 H162       -0.0308  -17.1486  -47.6814 H         1 UNK         0.0600 
    163 H163        1.2118  -15.9537  -47.3394 H         1 UNK         0.0600 
    164 H164        2.1091  -16.0392  -45.0939 H         1 UNK         0.3000 
    165 H165        3.5483  -17.2504  -42.1855 H         1 UNK         0.0600 
    166 H166        5.5547  -15.8420  -42.6749 H         1 UNK         0.0600 
    167 H167        5.6421  -17.4197  -43.4405 H         1 UNK         0.0600 
    168 H168        5.2513  -16.0086  -44.4036 H         1 UNK         0.0600 
    169 H169        3.4348  -14.5881  -43.1387 H         1 UNK         0.3000 
    170 H170        0.4376  -13.9565  -41.4512 H         1 UNK         0.0600 
    171 H171        2.7588  -12.9476  -41.6196 H         1 UNK         0.0600 
    172 H172        2.4310  -12.5964  -43.3181 H         1 UNK         0.0600 
    173 H173        1.4545  -11.8617  -42.0638 H         1 UNK         0.0600 
    174 H174        0.5055  -13.5055  -44.3867 H         1 UNK         0.3000 
    175 H175       -2.7925  -14.5971  -44.8176 H         1 UNK         0.0600 
    176 H176       -2.2768  -11.5829  -44.5220 H         1 UNK         0.0600 
    177 H177       -3.6352  -12.3240  -45.3650 H         1 UNK         0.0600 
    178 H178       -3.4966  -12.4805  -43.6247 H         1 UNK         0.0600 
    179 H179       -0.3217  -13.5017  -45.8607 H         1 UNK         0.3000 
    180 H180       -0.4101  -14.5392  -48.5935 H         1 UNK         0.0600 
    181 H181       -1.9987  -12.0788  -49.4839 H         1 UNK         0.0600 
    182 H182       -2.2498  -13.7348  -50.0082 H         1 UNK         0.0600 
    183 H183       -0.7715  -12.8976  -50.4499 H         1 UNK         0.0600 
    184 H184        1.1887  -13.2142  -47.8285 H         1 UNK         0.3000 
    185 H185        1.8665  -10.0251  -47.4590 H         1 UNK         0.0600 
    186 H186        0.4942   -9.6221  -45.4504 H         1 UNK         0.0600 
    187 H187        0.8751  -11.2122  -44.8113 H         1 UNK         0.0600 
    188 H188        2.1378   -9.9921  -44.9592 H         1 UNK         0.0600 
    189 H189        3.5712  -11.3837  -47.2445 H         1 UNK         0.3000 
    190 H190       -1.4079  -21.2232  -46.3636 H         1 UNK         0.3000 
    191 H191       -3.8452  -22.3591  -47.0200 H         1 UNK         0.0600 
    192 H192       -3.3872  -20.0506  -45.9624 H         1 UNK         0.0600 
    193 H193       -4.8504  -20.8874  -45.4640 H         1 UNK         0.0600 
    194 H194       -3.4649  -20.8844  -44.4004 H         1 UNK         0.0600 
    195 H195       -1.7815  -23.2647  -44.3048 H         1 UNK         0.3000 
    196 H196       -3.5402  -25.0172  -42.9474 H         1 UNK         0.0600 
    197 H197       -1.4120  -25.9216  -41.9740 H         1 UNK         0.0600 
    198 H198       -1.4256  -24.1649  -41.9775 H         1 UNK         0.0600 
    199 H199       -0.4820  -25.0404  -43.1817 H         1 UNK         0.0600 
    200 H200       -1.8014  -25.4799  -45.9725 H         1 UNK         0.3000 
    201 H201       -2.2217  -28.4202  -45.9733 H         1 UNK         0.0600 
    202 H202       -0.0140  -27.5822  -46.7461 H         1 UNK         0.0600 
    203 H203       -0.7937  -26.6027  -47.9853 H         1 UNK         0.0600 
    204 H204       -0.8954  -28.3555  -48.0546 H         1 UNK         0.0600 
    205 H205       -3.0589  -25.4435  -47.8581 H         1 UNK         0.3000 
    206 H206       -5.7372  -26.4172  -48.3678 H         1 UNK         0.0600 
    207 H207       -4.5351  -27.5715  -50.2409 H         1 UNK         0.0600 
    208 H208       -5.5640  -26.2893  -50.8526 H         1 UNK         0.0600 
    209 H209       -3.8233  -26.0397  -50.7450 H         1 UNK         0.0600 
    210 H210       -6.9880  -24.6816  -48.2023 H         1 UNK         0.3000 
    211 H211       -6.1866  -22.1912  -47.4492 H         1 UNK         0.0600 
    212 H212       -8.8124  -23.0013  -48.7958 H         1 UNK         0.0600 
    213 H213       -8.5663  -21.5314  -47.8609 H         1 UNK         0.0600 
    214 H214       -8.4451  -23.0961  -47.0728 H         1 UNK         0.0600 
    215 H215       -5.3318  -20.4626  -48.3816 H         1 UNK         0.3000 
    216 H216       -4.4585  -19.0310  -49.8310 H         1 UNK         0.0600 
    217 H217       -7.1298  -19.4170  -51.2784 H         1 UNK         0.0600 
    218 H218       -6.7923  -18.2714  -49.9897 H         1 UNK         0.0600 
    219 H219       -6.0269  -18.0782  -51.5544 H         1 UNK         0.0600 
    220 H220       -3.6237  -21.7089  -50.1954 H         1 UNK         0.3000 
    221 H221       -2.3258  -22.9890  -51.4469 H         1 UNK         0.0600 
    222 H222       -2.1555  -20.6810  -53.4633 H         1 UNK         0.0600 
    223 H223       -1.0777  -20.9347  -52.1042 H         1 UNK         0.0600 
    224 H224       -1.1111  -22.0946  -53.4156 H         1 UNK         0.0600 
    225 H225       -4.9601  -23.4533  -51.4733 H         1 UNK         0.3000 
    226 H226       -6.6692  -24.5162  -52.4096 H         1 UNK         0.0600 
    227 H227       -4.9579  -26.1890  -53.2152 H         1 UNK         0.0600 
    228 H228       -6.3457  -26.0682  -54.2843 H         1 UNK         0.0600 
    229 H229       -4.8279  -25.3072  -54.7328 H         1 UNK         0.0600 
    230 H230       -6.6981  -21.9231  -52.5807 H         1 UNK         0.3000 
    231 H231       -7.6142  -20.1189  -53.4053 H         1 UNK         0.0600 
    232 H232       -8.9679  -21.8495  -55.5323 H         1 UNK         0.0600 
    233 H233       -9.4736  -20.2561  -54.9949 H         1 UNK         0.0600 
    234 H234       -9.5610  -21.6147  -53.8879 H         1 UNK         0.0600 
    235 H235       -5.0661  -21.3707  -54.9218 H         1 UNK         0.3000 
    236 H236       -5.0222  -20.0584  -57.4528 H         1 UNK         0.0600 
    237 H237       -3.5398  -21.9755  -56.8683 H         1 UNK         0.0600 
    238 H238       -2.6133  -20.5914  -57.4289 H         1 UNK         0.0600 
    239 H239       -2.6749  -20.9620  -55.7132 H         1 UNK         0.0600 
    240 H240       -4.2885  -18.8857  -54.1896 H         1 UNK         0.3000 
    241 H241       -3.1938  -16.3376  -55.1393 H         1 UNK         0.0600 
    242 H242       -7.1691  -15.9006  -55.1433 H         1 UNK         0.3800 
    243 H243       -6.4182  -17.4644  -55.3131 H         1 UNK         0.3800 
    244 H244       -4.0134  -17.2188  -52.3356 H         1 UNK         0.0800 
    245 H245       -3.3148  -15.6670  -52.7192 H         1 UNK         0.0800 
    246 H246       -1.6005  -15.9683  -50.9306 H         1 UNK         0.0800 
    247 H247       -2.0647  -17.5986  -50.5071 H         1 UNK         0.0800 
@<TRIPOS>BOND
     1    1    2 1    
     2    1  127 1    
     3    1  128 1    
     4    1  129 1    
     5    2    3 2    
     6    2    4 am   BACKBONE|DICT|INTERRES
     7    4    5 1    
     8    4  130 1    
     9    5    6 1    
    10    5   65 1    
    11    5  131 1    
    12    6    7 1    
    13    6  132 1    
    14    6  133 1    
    15    7    8 1    
    16    8    9 1    
    17    8  134 1    
    18    8  135 1    
    19    9   10 ar   
    20    9   14 ar   
    21   10   11 ar   
    22   10  136 1    
    23   11   12 ar   
    24   11  126 1    
    25   12   13 ar   
    26   12  137 1    
    27   13   14 ar   
    28   13   15 1    
    29   14  138 1    
    30   15   16 1    
    31   15  139 1    
    32   15  140 1    
    33   16   17 1    
    34   17   18 1    
    35   17  141 1    
    36   17  142 1    
    37   18   19 1    
    38   18   67 1    
    39   18  143 1    
    40   19   20 am   BACKBONE|DICT|INTERRES
    41   19  144 1    
    42   20   21 2    
    43   20   22 1    
    44   22   23 1    
    45   22   24 1    
    46   22  145 1    
    47   23  146 1    
    48   23  147 1    
    49   23  148 1    
    50   24   25 am   BACKBONE|DICT|INTERRES
    51   24  149 1    
    52   25   26 2    
    53   25   27 1    
    54   27   28 1    
    55   27   29 1    
    56   27  150 1    
    57   28  151 1    
    58   28  152 1    
    59   28  153 1    
    60   29   30 am   BACKBONE|DICT|INTERRES
    61   29  154 1    
    62   30   31 2    
    63   30   32 1    
    64   32   33 1    
    65   32   34 1    
    66   32  155 1    
    67   33  156 1    
    68   33  157 1    
    69   33  158 1    
    70   34   35 am   BACKBONE|DICT|INTERRES
    71   34  159 1    
    72   35   36 2    
    73   35   37 1    
    74   37   38 1    
    75   37   39 1    
    76   37  160 1    
    77   38  161 1    
    78   38  162 1    
    79   38  163 1    
    80   39   40 am   BACKBONE|DICT|INTERRES
    81   39  164 1    
    82   40   41 2    
    83   40   42 1    
    84   42   43 1    
    85   42   44 1    
    86   42  165 1    
    87   43  166 1    
    88   43  167 1    
    89   43  168 1    
    90   44   45 am   BACKBONE|DICT|INTERRES
    91   44  169 1    
    92   45   46 2    
    93   45   47 1    
    94   47   48 1    
    95   47   49 1    
    96   47  170 1    
    97   48  171 1    
    98   48  172 1    
    99   48  173 1    
   100   49   50 am   BACKBONE|DICT|INTERRES
   101   49  174 1    
   102   50   51 2    
   103   50   52 1    
   104   52   53 1    
   105   52   54 1    
   106   52  175 1    
   107   53  176 1    
   108   53  177 1    
   109   53  178 1    
   110   54   55 am   BACKBONE|DICT|INTERRES
   111   54  179 1    
   112   55   56 2    
   113   55   57 1    
   114   57   58 1    
   115   57   59 1    
   116   57  180 1    
   117   58  181 1    
   118   58  182 1    
   119   58  183 1    
   120   59   60 am   BACKBONE|DICT|INTERRES
   121   59  184 1    
   122   60   61 2    
   123   60   62 1    
   124   62   63 1    
   125   62   64 1    
   126   62  185 1    
   127   63  186 1    
   128   63  187 1    
   129   63  188 1    
   130   64   65 am   BACKBONE|DICT|INTERRES
   131   64  189 1    
   132   65   66 2    
   133   67   68 2    
   134   67   69 am   BACKBONE|DICT|INTERRES
   135   69   70 1    
   136   69  190 1    
   137   70   71 1    
   138   70   72 1    
   139   70  191 1    
   140   71  192 1    
   141   71  193 1    
   142   71  194 1    
   143   72   73 2    
   144   72   74 am   BACKBONE|DICT|INTERRES
   145   74   75 1    
   146   74  195 1    
   147   75   76 1    
   148   75   77 1    
   149   75  196 1    
   150   76  197 1    
   151   76  198 1    
   152   76  199 1    
   153   77   78 2    
   154   77   79 am   BACKBONE|DICT|INTERRES
   155   79   80 1    
   156   79  200 1    
   157   80   81 1    
   158   80   82 1    
   159   80  201 1    
   160   81  202 1    
   161   81  203 1    
   162   81  204 1    
   163   82   83 2    
   164   82   84 am   BACKBONE|DICT|INTERRES
   165   84   85 1    
   166   84  205 1    
   167   85   86 1    
   168   85   87 1    
   169   85  206 1    
   170   86  207 1    
   171   86  208 1    
   172   86  209 1    
   173   87   88 2    
   174   87   89 am   BACKBONE|DICT|INTERRES
   175   89   90 1    
   176   89  210 1    
   177   90   91 1    
   178   90   92 1    
   179   90  211 1    
   180   91  212 1    
   181   91  213 1    
   182   91  214 1    
   183   92   93 2    
   184   92   94 am   BACKBONE|DICT|INTERRES
   185   94   95 1    
   186   94  215 1    
   187   95   96 1    
   188   95   97 1    
   189   95  216 1    
   190   96  217 1    
   191   96  218 1    
   192   96  219 1    
   193   97   98 2    
   194   97   99 am   BACKBONE|DICT|INTERRES
   195   99  100 1    
   196   99  220 1    
   197  100  101 1    
   198  100  102 1    
   199  100  221 1    
   200  101  222 1    
   201  101  223 1    
   202  101  224 1    
   203  102  103 2    
   204  102  104 am   BACKBONE|DICT|INTERRES
   205  104  105 1    
   206  104  225 1    
   207  105  106 1    
   208  105  107 1    
   209  105  226 1    
   210  106  227 1    
   211  106  228 1    
   212  106  229 1    
   213  107  108 2    
   214  107  109 am   BACKBONE|DICT|INTERRES
   215  109  110 1    
   216  109  230 1    
   217  110  111 1    
   218  110  112 1    
   219  110  231 1    
   220  111  232 1    
   221  111  233 1    
   222  111  234 1    
   223  112  113 2    
   224  112  114 am   BACKBONE|DICT|INTERRES
   225  114  115 1    
   226  114  235 1    
   227  115  116 1    
   228  115  117 1    
   229  115  236 1    
   230  116  237 1    
   231  116  238 1    
   232  116  239 1    
   233  117  118 2    
   234  117  119 am   BACKBONE|DICT|INTERRES
   235  119  120 1    
   236  119  240 1    
   237  120  121 1    
   238  120  124 1    
   239  120  241 1    
   240  121  122 am   BACKBONE|DICT|INTERRES
   241  121  123 2    
   242  122  242 1    
   243  122  243 1    
   244  124  125 1    
   245  124  244 1    
   246  124  245 1    
   247  125  126 1    
   248  126  246 1    
   249  126  247 1    
@<TRIPOS>SUBSTRUCTURE
     1 UNK         1 GROUP             0       ****    0 ROOT    
