@<TRIPOS>MOLECULE
3R540
247   249    1
SMALL
USER_CHARGES


@<TRIPOS>ATOM
      1 CA          1.6913  -13.1759  -50.9477 C.3       0 UNK        -0.1800 
      2 C           2.6968  -13.2656  -49.8087 C.2       0 UNK         0.5000 
      3 O           3.6010  -12.4347  -49.7196 O.2       0 UNK        -0.5000 
      4 N           2.5313  -14.2646  -48.9362 N.am      1 UNK        -0.5000 
      5 CA          3.3351  -14.4742  -47.7262 C.3       1 UNK         0.1400 
      6 C6          3.6116  -15.9775  -47.4706 C.3       23 UNK        -0.0398 
      7 S7          4.7903  -16.6755  -48.6759 S.3       23 UNK        -0.2404 
      8 C8          4.2193  -18.4089  -48.7913 C.3       23 UNK        -0.0205 
      9 C9          3.0761  -18.6830  -49.7726 C.ar      23 UNK        -0.0193 
     10 C10         2.3082  -17.6674  -50.3558 C.ar      23 UNK        -0.1150 
     11 C11         1.2751  -17.9691  -51.2454 C.ar      23 UNK        -0.0193 
     12 C12         1.0004  -19.3040  -51.5501 C.ar      23 UNK        -0.1150 
     13 C13         1.7584  -20.3354  -50.9895 C.ar      23 UNK        -0.0193 
     14 C14         2.7946  -20.0123  -50.1041 C.ar      23 UNK        -0.1150 
     15 C15         1.4717  -21.7795  -51.4000 C.3       23 UNK        -0.0205 
     16 S16         1.6892  -23.0065  -50.0669 S.3       23 UNK        -0.2404 
     17 C17         0.4094  -22.4627  -48.8921 C.3       23 UNK        -0.0398 
     18 CA          0.0677  -23.5492  -47.8469 C.3       11 UNK         0.1400 
     19 N           1.2364  -23.9742  -47.0696 N.am      11 UNK        -0.5000 
     20 C           1.2639  -25.0384  -46.2554 C.2       10 UNK         0.5000 
     21 O           0.3035  -25.7855  -46.0771 O.2       10 UNK        -0.5000 
     22 CA          2.5603  -25.2692  -45.4557 C.3       10 UNK         0.1400 
     23 CB          3.5500  -26.1134  -46.2717 C.3       10 UNK        -0.1800 
     24 N           3.2183  -24.0318  -45.0224 N.am      10 UNK        -0.5000 
     25 C           2.6442  -23.0696  -44.2875 C.2       9 UNK         0.5000 
     26 O           1.4658  -23.1033  -43.9224 O.2       9 UNK        -0.5000 
     27 CA          3.5203  -21.8400  -43.9830 C.3       9 UNK         0.1400 
     28 CB          3.6274  -20.9490  -45.2329 C.3       9 UNK        -0.1800 
     29 N           2.9974  -21.0243  -42.8889 N.am      9 UNK        -0.5000 
     30 C           2.8599  -21.3866  -41.6088 C.2       8 UNK         0.5000 
     31 O           3.2319  -22.4751  -41.1676 O.2       8 UNK        -0.5000 
     32 CA          2.1960  -20.3726  -40.6471 C.3       8 UNK         0.1400 
     33 CB          3.2630  -19.5789  -39.8687 C.3       8 UNK        -0.1800 
     34 N           1.2003  -19.4658  -41.2492 N.am      8 UNK        -0.5000 
     35 C           1.3842  -18.5104  -42.1706 C.2       7 UNK         0.5000 
     36 O           2.4718  -18.2552  -42.6947 O.2       7 UNK        -0.5000 
     37 CA          0.1432  -17.7295  -42.6188 C.3       7 UNK         0.1400 
     38 CB         -0.0182  -16.4238  -41.8236 C.3       7 UNK        -0.1800 
     39 N           0.3226  -17.4309  -44.0328 N.am      7 UNK        -0.5000 
     40 C          -0.6480  -17.3269  -44.9414 C.2       6 UNK         0.5000 
     41 O          -1.8508  -17.3869  -44.6796 O.2       6 UNK        -0.5000 
     42 CA         -0.1794  -17.1498  -46.3895 C.3       6 UNK         0.1400 
     43 CB          0.2366  -18.4955  -47.0114 C.3       6 UNK        -0.1800 
     44 N          -1.2452  -16.5417  -47.1733 N.am      6 UNK        -0.5000 
     45 C          -1.0599  -15.7807  -48.2544 C.2       5 UNK         0.5000 
     46 O           0.0484  -15.5590  -48.7429 O.2       5 UNK        -0.5000 
     47 CA         -2.2977  -15.1022  -48.8655 C.3       5 UNK         0.1400 
     48 CB         -3.1164  -16.0742  -49.7336 C.3       5 UNK        -0.1800 
     49 N          -3.1229  -14.3999  -47.8744 N.am      5 UNK        -0.5000 
     50 C          -3.9236  -14.9012  -46.9220 C.2       4 UNK         0.5000 
     51 O          -4.1323  -16.1057  -46.7766 O.2       4 UNK        -0.5000 
     52 CA         -4.5587  -13.8891  -45.9414 C.3       4 UNK         0.1400 
     53 CB         -4.8863  -14.5306  -44.5806 C.3       4 UNK        -0.1800 
     54 N          -3.6801  -12.7407  -45.7102 N.am      4 UNK        -0.5000 
     55 C          -3.7014  -11.5820  -46.3825 C.2       3 UNK         0.5000 
     56 O          -4.5308  -11.3094  -47.2498 O.2       3 UNK        -0.5000 
     57 CA         -2.5686  -10.5826  -46.0658 C.3       3 UNK         0.1400 
     58 CB         -3.0288   -9.5624  -45.0136 C.3       3 UNK        -0.1800 
     59 N          -1.3380  -11.2340  -45.5996 N.am      3 UNK        -0.5000 
     60 C          -0.5843  -12.0546  -46.3436 C.2       2 UNK         0.5000 
     61 O          -0.8145  -12.3072  -47.5300 O.2       2 UNK        -0.5000 
     62 CA          0.5830  -12.7474  -45.6256 C.3       2 UNK         0.1400 
     63 CB          0.0636  -13.7409  -44.5691 C.3       2 UNK        -0.1800 
     64 N           1.3804  -13.4517  -46.6220 N.am      2 UNK        -0.5000 
     65 C           2.6607  -13.8211  -46.4996 C.2       1 UNK         0.5000 
     66 O           3.3163  -13.6540  -45.4707 O.2       1 UNK        -0.5000 
     67 C          -1.0895  -23.0633  -46.9526 C.2       11 UNK         0.5000 
     68 O          -2.2484  -23.2357  -47.3287 O.2       11 UNK        -0.5000 
     69 N          -0.7691  -22.4738  -45.7931 N.am      12 UNK        -0.5000 
     70 CA         -1.7532  -22.0471  -44.8014 C.3       12 UNK         0.1400 
     71 CB         -1.1378  -20.9731  -43.8929 C.3       12 UNK        -0.1800 
     72 C          -2.2527  -23.2444  -43.9783 C.2       12 UNK         0.5000 
     73 O          -3.4549  -23.3578  -43.7424 O.2       12 UNK        -0.5000 
     74 N          -1.3241  -24.1314  -43.5914 N.am      13 UNK        -0.5000 
     75 CA         -1.5925  -25.3510  -42.8271 C.3       13 UNK         0.1400 
     76 CB         -0.2603  -25.9894  -42.4063 C.3       13 UNK        -0.1800 
     77 C          -2.4690  -26.3623  -43.5907 C.2       13 UNK         0.5000 
     78 O          -3.4016  -26.9190  -43.0104 O.2       13 UNK        -0.5000 
     79 N          -2.1732  -26.5592  -44.8828 N.am      14 UNK        -0.5000 
     80 CA         -2.9364  -27.4196  -45.7910 C.3       14 UNK         0.1400 
     81 CB         -2.0263  -27.8332  -46.9591 C.3       14 UNK        -0.1800 
     82 C          -4.2161  -26.7511  -46.3324 C.2       14 UNK         0.5000 
     83 O          -5.0398  -27.4382  -46.9365 O.2       14 UNK        -0.5000 
     84 N          -4.3384  -25.4281  -46.1441 N.am      15 UNK        -0.5000 
     85 CA         -5.3870  -24.5351  -46.6539 C.3       15 UNK         0.1400 
     86 CB         -6.7736  -24.9170  -46.0971 C.3       15 UNK        -0.1800 
     87 C          -5.3821  -24.3838  -48.1914 C.2       15 UNK         0.5000 
     88 O          -6.3612  -23.9063  -48.7660 O.2       15 UNK        -0.5000 
     89 N          -4.2590  -24.7388  -48.8315 N.am      16 UNK        -0.5000 
     90 CA         -3.9986  -24.5649  -50.2606 C.3       16 UNK         0.1400 
     91 CB         -2.6972  -25.2911  -50.6293 C.3       16 UNK        -0.1800 
     92 C          -3.9229  -23.0846  -50.6750 C.2       16 UNK         0.5000 
     93 O          -4.2505  -22.7609  -51.8159 O.2       16 UNK        -0.5000 
     94 N          -3.5512  -22.2069  -49.7308 N.am      17 UNK        -0.5000 
     95 CA         -3.5072  -20.7488  -49.8770 C.3       17 UNK         0.1400 
     96 CB         -2.9053  -20.1416  -48.6006 C.3       17 UNK        -0.1800 
     97 C          -4.8688  -20.0954  -50.2015 C.2       17 UNK         0.5000 
     98 O          -4.8938  -18.9577  -50.6670 O.2       17 UNK        -0.5000 
     99 N          -5.9777  -20.8176  -49.9790 N.am      18 UNK        -0.5000 
    100 CA        -7.3175  -20.4122  -50.4066 C.3       18 UNK         0.1400 
    101 CB        -8.3602  -21.2987  -49.7095 C.3       18 UNK        -0.1800 
    102 C         -7.4958  -20.4699  -51.9383 C.2       18 UNK         0.5000 
    103 O         -8.2743  -19.6863  -52.4828 O.2       18 UNK        -0.5000 
    104 N         -6.7737  -21.3847  -52.6010 N.am      19 UNK        -0.5000 
    105 CA        -6.7311  -21.5216  -54.0557 C.3       19 UNK         0.1400 
    106 CB        -6.6921  -23.0127  -54.4278 C.3       19 UNK        -0.1800 
    107 C         -5.5098  -20.7807  -54.6209 C.2       19 UNK         0.5000 
    108 O         -5.6516  -19.9746  -55.5417 O.2       19 UNK        -0.5000 
    109 N         -4.3334  -21.0351  -54.0333 N.am      20 UNK        -0.5000 
    110 CA        -3.0676  -20.3712  -54.3343 C.3       20 UNK         0.1400 
    111 CB        -1.9112  -21.3101  -53.9427 C.3       20 UNK        -0.1800 
    112 C         -3.0006  -19.0158  -53.6075 C.2       20 UNK         0.5000 
    113 O         -2.2296  -18.8573  -52.6636 O.2       20 UNK        -0.5000 
    114 N         -3.8527  -18.0768  -54.0338 N.am      21 UNK        -0.5000 
    115 CA        -4.0503  -16.7781  -53.3879 C.3       21 UNK         0.1400 
    116 CB        -5.3850  -16.1901  -53.8709 C.3       21 UNK        -0.1800 
    117 C         -2.9019  -15.7733  -53.6115 C.2       21 UNK         0.5000 
    118 O         -2.8172  -14.7918  -52.8735 O.2       21 UNK        -0.5000 
    119 N         -2.0627  -16.0145  -54.6294 N.am      22 UNK        -0.5000 
    120 CA        -0.9495  -15.1476  -55.0662 C.3       22 UNK         0.1400 
    121 C         -1.3934  -13.7788  -55.6747 C.2       22 UNK         0.5000 
    122 N         -2.6484  -13.6050  -56.0718 N.am      22 UNK        -0.7600 
    123 O         -0.5846  -12.8671  -55.8269 O.2       22 UNK        -0.5000 
    124 C124        0.1684  -14.9879  -53.9942 C.3       23 UNK        -0.0398 
    125 S125        1.0097  -16.5589  -53.6011 S.3       23 UNK        -0.2404 
    126 C126        0.4723  -16.8490  -51.8887 C.3       23 UNK        -0.0205 
    127 H127        2.0690  -13.7023  -51.8241 H         1 UNK         0.0600 
    128 H128        1.5166  -12.1353  -51.2209 H         1 UNK         0.0600 
    129 H129        0.7322  -13.6115  -50.6666 H         1 UNK         0.0600 
    130 H130        1.7215  -14.8760  -49.0300 H         1 UNK         0.3000 
    131 H131        4.3005  -13.9759  -47.8386 H         1 UNK         0.0600 
    132 H132        4.0383  -16.1362  -46.4783 H         1 UNK         0.0800 
    133 H133        2.6831  -16.5476  -47.5026 H         1 UNK         0.0800 
    134 H134        3.9300  -18.7608  -47.7999 H         1 UNK         0.0800 
    135 H135        5.0784  -19.0121  -49.0887 H         1 UNK         0.0800 
    136 H136        2.5100  -16.6326  -50.1343 H         1 UNK         0.1150 
    137 H137        0.2091  -19.5352  -52.2483 H         1 UNK         0.1150 
    138 H138        3.3965  -20.8004  -49.6745 H         1 UNK         0.1150 
    139 H139        0.4563  -21.8694  -51.7895 H         1 UNK         0.0800 
    140 H140        2.1396  -22.0397  -52.2218 H         1 UNK         0.0800 
    141 H141       -0.4805  -22.1980  -49.4665 H         1 UNK         0.0800 
    142 H142        0.7500  -21.5464  -48.4058 H         1 UNK         0.0800 
    143 H143       -0.2963  -24.4282  -48.3821 H         1 UNK         0.0600 
    144 H144        2.0743  -23.4217  -47.1737 H         1 UNK         0.3000 
    145 H145        2.2961  -25.8294  -44.5572 H         1 UNK         0.0600 
    146 H146        4.4319  -26.3672  -45.6832 H         1 UNK         0.0600 
    147 H147        3.0930  -27.0515  -46.5899 H         1 UNK         0.0600 
    148 H148        3.8828  -25.5895  -47.1687 H         1 UNK         0.0600 
    149 H149        4.1837  -23.9223  -45.2976 H         1 UNK         0.3000 
    150 H150        4.5167  -22.1855  -43.7009 H         1 UNK         0.0600 
    151 H151        2.6485  -20.5918  -45.5548 H         1 UNK         0.0600 
    152 H152        4.0715  -21.4884  -46.0704 H         1 UNK         0.0600 
    153 H153        4.2546  -20.0774  -45.0440 H         1 UNK         0.0600 
    154 H154        2.7229  -20.0758  -43.1204 H         1 UNK         0.3000 
    155 H155        1.6415  -20.9683  -39.9203 H         1 UNK         0.0600 
    156 H156        3.8817  -18.9708  -40.5292 H         1 UNK         0.0600 
    157 H157        3.9304  -20.2513  -39.3281 H         1 UNK         0.0600 
    158 H158        2.8046  -18.9171  -39.1340 H         1 UNK         0.0600 
    159 H159        0.2585  -19.6081  -40.9114 H         1 UNK         0.3000 
    160 H160       -0.7414  -18.3541  -42.4796 H         1 UNK         0.0600 
    161 H161        0.8551  -15.7787  -41.9288 H         1 UNK         0.0600 
    162 H162       -0.1515  -16.6278  -40.7606 H         1 UNK         0.0600 
    163 H163       -0.8903  -15.8627  -42.1600 H         1 UNK         0.0600 
    164 H164        1.2944  -17.4124  -44.3165 H         1 UNK         0.3000 
    165 H165        0.6752  -16.4718  -46.3763 H         1 UNK         0.0600 
    166 H166        0.5108  -18.3844  -48.0606 H         1 UNK         0.0600 
    167 H167        1.0995  -18.9157  -46.4948 H         1 UNK         0.0600 
    168 H168       -0.5689  -19.2270  -46.9517 H         1 UNK         0.0600 
    169 H169       -2.1833  -16.6464  -46.7937 H         1 UNK         0.3000 
    170 H170       -1.9206  -14.3234  -49.5307 H         1 UNK         0.0600 
    171 H171       -2.4874  -16.5387  -50.4931 H         1 UNK         0.0600 
    172 H172       -3.5613  -16.8806  -49.1529 H         1 UNK         0.0600 
    173 H173       -3.9218  -15.5530  -50.2504 H         1 UNK         0.0600 
    174 H174       -2.9818  -13.3986  -47.8632 H         1 UNK         0.3000 
    175 H175       -5.4961  -13.5526  -46.3887 H         1 UNK         0.0600 
    176 H176       -5.6078  -15.3411  -44.6910 H         1 UNK         0.0600 
    177 H177       -3.9951  -14.9462  -44.1076 H         1 UNK         0.0600 
    178 H178       -5.3226  -13.8032  -43.8958 H         1 UNK         0.0600 
    179 H179       -2.9488  -12.8740  -45.0279 H         1 UNK         0.3000 
    180 H180       -2.3376  -10.0442  -46.9875 H         1 UNK         0.0600 
    181 H181       -3.2560  -10.0411  -44.0602 H         1 UNK         0.0600 
    182 H182       -3.9293   -9.0418  -45.3423 H         1 UNK         0.0600 
    183 H183       -2.2643   -8.8056  -44.8368 H         1 UNK         0.0600 
    184 H184       -1.0809  -11.0682  -44.6370 H         1 UNK         0.3000 
    185 H185        1.1985  -11.9823  -45.1482 H         1 UNK         0.0600 
    186 H186       -0.4275  -13.2211  -43.7461 H         1 UNK         0.0600 
    187 H187       -0.6627  -14.4314  -44.9972 H         1 UNK         0.0600 
    188 H188        0.8730  -14.3289  -44.1366 H         1 UNK         0.0600 
    189 H189        0.9125  -13.5701  -47.5135 H         1 UNK         0.3000 
    190 H190        0.2002  -22.4442  -45.5042 H         1 UNK         0.3000 
    191 H191       -2.6067  -21.6026  -45.3187 H         1 UNK         0.0600 
    192 H192       -0.6965  -20.1732  -44.4838 H         1 UNK         0.0600 
    193 H193       -1.8991  -20.5274  -43.2520 H         1 UNK         0.0600 
    194 H194       -0.3590  -21.3748  -43.2449 H         1 UNK         0.0600 
    195 H195       -0.3519  -23.9313  -43.8047 H         1 UNK         0.3000 
    196 H196       -2.1304  -25.0615  -41.9221 H         1 UNK         0.0600 
    197 H197       -0.4290  -26.8627  -41.7752 H         1 UNK         0.0600 
    198 H198        0.3522  -25.2889  -41.8379 H         1 UNK         0.0600 
    199 H199        0.3191  -26.3164  -43.2695 H         1 UNK         0.0600 
    200 H200       -1.3452  -26.1140  -45.2734 H         1 UNK         0.3000 
    201 H201       -3.2362  -28.3227  -45.2554 H         1 UNK         0.0600 
    202 H202       -2.5367  -28.5266  -47.6287 H         1 UNK         0.0600 
    203 H203       -1.1261  -28.3324  -46.6001 H         1 UNK         0.0600 
    204 H204       -1.7169  -26.9719  -47.5527 H         1 UNK         0.0600 
    205 H205       -3.6040  -24.9676  -45.6242 H         1 UNK         0.3000 
    206 H206       -5.1417  -23.5466  -46.2629 H         1 UNK         0.0600 
    207 H207       -6.7491  -25.0122  -45.0115 H         1 UNK         0.0600 
    208 H208       -7.5145  -24.1538  -46.3380 H         1 UNK         0.0600 
    209 H209       -7.1333  -25.8594  -46.5104 H         1 UNK         0.0600 
    210 H210       -3.4822  -25.0433  -48.2632 H         1 UNK         0.3000 
    211 H211       -4.8211  -25.0237  -50.8129 H         1 UNK         0.0600 
    212 H212       -1.8365  -24.8595  -50.1188 H         1 UNK         0.0600 
    213 H213       -2.5066  -25.2271  -51.7015 H         1 UNK         0.0600 
    214 H214       -2.7471  -26.3490  -50.3705 H         1 UNK         0.0600 
    215 H215       -3.2832  -22.5755  -48.8227 H         1 UNK         0.3000 
    216 H216       -2.8365  -20.5253  -50.7074 H         1 UNK         0.0600 
    217 H217       -2.8312  -19.0568  -48.6759 H         1 UNK         0.0600 
    218 H218       -1.8984  -20.5161  -48.4267 H         1 UNK         0.0600 
    219 H219       -3.5073  -20.3721  -47.7209 H         1 UNK         0.0600 
    220 H220       -5.8893  -21.7440  -49.5822 H         1 UNK         0.3000 
    221 H221       -7.4814  -19.3801  -50.0896 H         1 UNK         0.0600 
    222 H222       -8.2621  -22.3438  -50.0056 H         1 UNK         0.0600 
    223 H223       -8.2626  -21.2470  -48.6249 H         1 UNK         0.0600 
    224 H224       -9.3727  -20.9807  -49.9612 H         1 UNK         0.0600 
    225 H225       -6.1157  -21.9531  -52.0810 H         1 UNK         0.3000 
    226 H226       -7.6278  -21.0879  -54.5034 H         1 UNK         0.0600 
    227 H227       -6.6532  -23.1431  -55.5100 H         1 UNK         0.0600 
    228 H228       -5.8229  -23.5175  -54.0044 H         1 UNK         0.0600 
    229 H229       -7.5833  -23.5285  -54.0701 H         1 UNK         0.0600 
    230 H230       -4.3099  -21.6948  -53.2582 H         1 UNK         0.3000 
    231 H231       -3.0001  -20.1833  -55.4078 H         1 UNK         0.0600 
    232 H232       -1.9238  -21.5467  -52.8781 H         1 UNK         0.0600 
    233 H233       -0.9458  -20.8551  -54.1673 H         1 UNK         0.0600 
    234 H234       -1.9640  -22.2497  -54.4926 H         1 UNK         0.0600 
    235 H235       -4.4900  -18.3198  -54.7830 H         1 UNK         0.3000 
    236 H236       -4.1287  -16.9458  -52.3129 H         1 UNK         0.0600 
    237 H237       -6.2157  -16.8550  -53.6318 H         1 UNK         0.0600 
    238 H238       -5.5888  -15.2327  -53.3895 H         1 UNK         0.0600 
    239 H239       -5.3860  -16.0245  -54.9488 H         1 UNK         0.0600 
    240 H240       -2.2155  -16.8463  -55.1798 H         1 UNK         0.3000 
    241 H241       -0.5006  -15.6699  -55.9117 H         1 UNK         0.0600 
    242 H242       -2.9225  -12.7225  -56.4746 H         1 UNK         0.3800 
    243 H243       -3.3261  -14.3429  -55.9727 H         1 UNK         0.3800 
    244 H244        0.9476  -14.3131  -54.3514 H         1 UNK         0.0800 
    245 H245       -0.2236  -14.5274  -53.0872 H         1 UNK         0.0800 
    246 H246        0.5864  -15.9307  -51.3143 H         1 UNK         0.0800 
    247 H247       -0.5891  -17.0895  -51.8708 H         1 UNK         0.0800 
@<TRIPOS>BOND
     1    1    2 1    
     2    1  127 1    
     3    1  128 1    
     4    1  129 1    
     5    2    3 2    
     6    2    4 am   BACKBONE|DICT|INTERRES
     7    4    5 1    
     8    4  130 1    
     9    5    6 1    
    10    5   65 1    
    11    5  131 1    
    12    6    7 1    
    13    6  132 1    
    14    6  133 1    
    15    7    8 1    
    16    8    9 1    
    17    8  134 1    
    18    8  135 1    
    19    9   10 ar   
    20    9   14 ar   
    21   10   11 ar   
    22   10  136 1    
    23   11   12 ar   
    24   11  126 1    
    25   12   13 ar   
    26   12  137 1    
    27   13   14 ar   
    28   13   15 1    
    29   14  138 1    
    30   15   16 1    
    31   15  139 1    
    32   15  140 1    
    33   16   17 1    
    34   17   18 1    
    35   17  141 1    
    36   17  142 1    
    37   18   19 1    
    38   18   67 1    
    39   18  143 1    
    40   19   20 am   BACKBONE|DICT|INTERRES
    41   19  144 1    
    42   20   21 2    
    43   20   22 1    
    44   22   23 1    
    45   22   24 1    
    46   22  145 1    
    47   23  146 1    
    48   23  147 1    
    49   23  148 1    
    50   24   25 am   BACKBONE|DICT|INTERRES
    51   24  149 1    
    52   25   26 2    
    53   25   27 1    
    54   27   28 1    
    55   27   29 1    
    56   27  150 1    
    57   28  151 1    
    58   28  152 1    
    59   28  153 1    
    60   29   30 am   BACKBONE|DICT|INTERRES
    61   29  154 1    
    62   30   31 2    
    63   30   32 1    
    64   32   33 1    
    65   32   34 1    
    66   32  155 1    
    67   33  156 1    
    68   33  157 1    
    69   33  158 1    
    70   34   35 am   BACKBONE|DICT|INTERRES
    71   34  159 1    
    72   35   36 2    
    73   35   37 1    
    74   37   38 1    
    75   37   39 1    
    76   37  160 1    
    77   38  161 1    
    78   38  162 1    
    79   38  163 1    
    80   39   40 am   BACKBONE|DICT|INTERRES
    81   39  164 1    
    82   40   41 2    
    83   40   42 1    
    84   42   43 1    
    85   42   44 1    
    86   42  165 1    
    87   43  166 1    
    88   43  167 1    
    89   43  168 1    
    90   44   45 am   BACKBONE|DICT|INTERRES
    91   44  169 1    
    92   45   46 2    
    93   45   47 1    
    94   47   48 1    
    95   47   49 1    
    96   47  170 1    
    97   48  171 1    
    98   48  172 1    
    99   48  173 1    
   100   49   50 am   BACKBONE|DICT|INTERRES
   101   49  174 1    
   102   50   51 2    
   103   50   52 1    
   104   52   53 1    
   105   52   54 1    
   106   52  175 1    
   107   53  176 1    
   108   53  177 1    
   109   53  178 1    
   110   54   55 am   BACKBONE|DICT|INTERRES
   111   54  179 1    
   112   55   56 2    
   113   55   57 1    
   114   57   58 1    
   115   57   59 1    
   116   57  180 1    
   117   58  181 1    
   118   58  182 1    
   119   58  183 1    
   120   59   60 am   BACKBONE|DICT|INTERRES
   121   59  184 1    
   122   60   61 2    
   123   60   62 1    
   124   62   63 1    
   125   62   64 1    
   126   62  185 1    
   127   63  186 1    
   128   63  187 1    
   129   63  188 1    
   130   64   65 am   BACKBONE|DICT|INTERRES
   131   64  189 1    
   132   65   66 2    
   133   67   68 2    
   134   67   69 am   BACKBONE|DICT|INTERRES
   135   69   70 1    
   136   69  190 1    
   137   70   71 1    
   138   70   72 1    
   139   70  191 1    
   140   71  192 1    
   141   71  193 1    
   142   71  194 1    
   143   72   73 2    
   144   72   74 am   BACKBONE|DICT|INTERRES
   145   74   75 1    
   146   74  195 1    
   147   75   76 1    
   148   75   77 1    
   149   75  196 1    
   150   76  197 1    
   151   76  198 1    
   152   76  199 1    
   153   77   78 2    
   154   77   79 am   BACKBONE|DICT|INTERRES
   155   79   80 1    
   156   79  200 1    
   157   80   81 1    
   158   80   82 1    
   159   80  201 1    
   160   81  202 1    
   161   81  203 1    
   162   81  204 1    
   163   82   83 2    
   164   82   84 am   BACKBONE|DICT|INTERRES
   165   84   85 1    
   166   84  205 1    
   167   85   86 1    
   168   85   87 1    
   169   85  206 1    
   170   86  207 1    
   171   86  208 1    
   172   86  209 1    
   173   87   88 2    
   174   87   89 am   BACKBONE|DICT|INTERRES
   175   89   90 1    
   176   89  210 1    
   177   90   91 1    
   178   90   92 1    
   179   90  211 1    
   180   91  212 1    
   181   91  213 1    
   182   91  214 1    
   183   92   93 2    
   184   92   94 am   BACKBONE|DICT|INTERRES
   185   94   95 1    
   186   94  215 1    
   187   95   96 1    
   188   95   97 1    
   189   95  216 1    
   190   96  217 1    
   191   96  218 1    
   192   96  219 1    
   193   97   98 2    
   194   97   99 am   BACKBONE|DICT|INTERRES
   195   99  100 1    
   196   99  220 1    
   197  100  101 1    
   198  100  102 1    
   199  100  221 1    
   200  101  222 1    
   201  101  223 1    
   202  101  224 1    
   203  102  103 2    
   204  102  104 am   BACKBONE|DICT|INTERRES
   205  104  105 1    
   206  104  225 1    
   207  105  106 1    
   208  105  107 1    
   209  105  226 1    
   210  106  227 1    
   211  106  228 1    
   212  106  229 1    
   213  107  108 2    
   214  107  109 am   BACKBONE|DICT|INTERRES
   215  109  110 1    
   216  109  230 1    
   217  110  111 1    
   218  110  112 1    
   219  110  231 1    
   220  111  232 1    
   221  111  233 1    
   222  111  234 1    
   223  112  113 2    
   224  112  114 am   BACKBONE|DICT|INTERRES
   225  114  115 1    
   226  114  235 1    
   227  115  116 1    
   228  115  117 1    
   229  115  236 1    
   230  116  237 1    
   231  116  238 1    
   232  116  239 1    
   233  117  118 2    
   234  117  119 am   BACKBONE|DICT|INTERRES
   235  119  120 1    
   236  119  240 1    
   237  120  121 1    
   238  120  124 1    
   239  120  241 1    
   240  121  122 am   BACKBONE|DICT|INTERRES
   241  121  123 2    
   242  122  242 1    
   243  122  243 1    
   244  124  125 1    
   245  124  244 1    
   246  124  245 1    
   247  125  126 1    
   248  126  246 1    
   249  126  247 1    
@<TRIPOS>SUBSTRUCTURE
     1 UNK         1 GROUP             0       ****    0 ROOT    
