@<TRIPOS>MOLECULE
3R540
247   249    1
SMALL
USER_CHARGES


@<TRIPOS>ATOM
      1 CA          2.7039  -18.3729  -50.8867 C.3       0 UNK        -0.1800 
      2 C           2.5037  -17.6268  -49.5756 C.2       0 UNK         0.5000 
      3 O           3.1894  -17.9136  -48.5970 O.2       0 UNK        -0.5000 
      4 N           1.5778  -16.6600  -49.5550 N.am      1 UNK        -0.5000 
      5 CA          1.1159  -15.9157  -48.3716 C.3       1 UNK         0.1400 
      6 C6          0.0063  -14.9020  -48.7387 C.3       23 UNK        -0.0398 
      7 S7         -1.4319  -15.7094  -49.5121 S.3       23 UNK        -0.2404 
      8 C8         -2.7343  -15.3427  -48.2965 C.3       23 UNK        -0.0205 
      9 C9         -4.0328  -16.0594  -48.6304 C.ar      23 UNK        -0.0193 
     10 C10        -4.6788  -15.8155  -49.8447 C.ar      23 UNK        -0.1150 
     11 C11        -5.8649  -16.4787  -50.1628 C.ar      23 UNK        -0.0193 
     12 C12        -6.4184  -17.3724  -49.2417 C.ar      23 UNK        -0.1150 
     13 C13        -5.8053  -17.6077  -48.0067 C.ar      23 UNK        -0.0193 
     14 C14        -4.6009  -16.9506  -47.7158 C.ar      23 UNK        -0.1150 
     15 C15        -6.5050  -18.5561  -47.0285 C.3       23 UNK        -0.0205 
     16 S16        -5.7714  -18.6717  -45.3565 S.3       23 UNK        -0.2404 
     17 C17        -4.8329  -20.2292  -45.4724 C.3       23 UNK        -0.0398 
     18 CA         -3.4717  -20.0806  -46.1915 C.3       11 UNK         0.1400 
     19 N          -2.5000  -19.2728  -45.4436 N.am      11 UNK        -0.5000 
     20 C          -1.3261  -18.8504  -45.9384 C.2       10 UNK         0.5000 
     21 O          -0.9728  -19.0387  -47.1003 O.2       10 UNK        -0.5000 
     22 CA         -0.3493  -18.1625  -44.9655 C.3       10 UNK         0.1400 
     23 CB         -0.7016  -16.6810  -44.7692 C.3       10 UNK        -0.1800 
     24 N          -0.2885  -18.8372  -43.6692 N.am      10 UNK        -0.5000 
     25 C           0.1513  -20.0903  -43.4877 C.2       9 UNK         0.5000 
     26 O           0.6193  -20.7841  -44.3888 O.2       9 UNK        -0.5000 
     27 CA         -0.0080  -20.6932  -42.0809 C.3       9 UNK         0.1400 
     28 CB          1.1660  -20.3126  -41.1708 C.3       9 UNK        -0.1800 
     29 N          -1.2628  -20.2913  -41.4499 N.am      9 UNK        -0.5000 
     30 C          -2.4715  -20.7224  -41.8338 C.2       8 UNK         0.5000 
     31 O          -2.6542  -21.5316  -42.7437 O.2       8 UNK        -0.5000 
     32 CA         -3.6787  -20.1046  -41.1051 C.3       8 UNK         0.1400 
     33 CB         -3.9328  -20.8199  -39.7700 C.3       8 UNK        -0.1800 
     34 N          -3.5188  -18.6679  -40.8667 N.am      8 UNK        -0.5000 
     35 C          -3.4403  -17.7520  -41.8421 C.2       7 UNK         0.5000 
     36 O          -3.4877  -18.0270  -43.0389 O.2       7 UNK        -0.5000 
     37 CA         -3.2222  -16.2915  -41.4114 C.3       7 UNK         0.1400 
     38 CB         -4.5514  -15.6459  -40.9924 C.3       7 UNK        -0.1800 
     39 N          -2.2399  -16.1337  -40.3354 N.am      7 UNK        -0.5000 
     40 C          -0.9534  -16.4971  -40.4174 C.2       6 UNK         0.5000 
     41 O          -0.4687  -17.1032  -41.3747 O.2       6 UNK        -0.5000 
     42 CA         -0.0598  -16.1498  -39.2164 C.3       6 UNK         0.1400 
     43 CB          0.2214  -17.4004  -38.3694 C.3       6 UNK        -0.1800 
     44 N           1.2071  -15.5751  -39.6660 N.am      6 UNK        -0.5000 
     45 C           1.3500  -14.3279  -40.1371 C.2       5 UNK         0.5000 
     46 O           0.4316  -13.5084  -40.1855 O.2       5 UNK        -0.5000 
     47 CA          2.7540  -13.9162  -40.6200 C.3       5 UNK         0.1400 
     48 CB          3.5260  -13.2210  -39.4875 C.3       5 UNK        -0.1800 
     49 N           3.5417  -15.0513  -41.1062 N.am      5 UNK        -0.5000 
     50 C           3.4387  -15.5647  -42.3382 C.2       4 UNK         0.5000 
     51 O           2.6904  -15.1207  -43.2099 O.2       4 UNK        -0.5000 
     52 CA          4.3059  -16.7946  -42.6304 C.3       4 UNK         0.1400 
     53 CB          3.5811  -18.0808  -42.2040 C.3       4 UNK        -0.1800 
     54 N           4.6218  -16.8627  -44.0543 N.am      4 UNK        -0.5000 
     55 C           5.7179  -17.4446  -44.5570 C.2       3 UNK         0.5000 
     56 O           6.5822  -17.9756  -43.8573 O.2       3 UNK        -0.5000 
     57 CA          5.8946  -17.4626  -46.0886 C.3       3 UNK         0.1400 
     58 CB          5.5428  -18.8522  -46.6405 C.3       3 UNK        -0.1800 
     59 N           5.1211  -16.4499  -46.8121 N.am      3 UNK        -0.5000 
     60 C           5.3553  -15.1296  -46.7596 C.2       2 UNK         0.5000 
     61 O           6.2233  -14.6269  -46.0446 O.2       2 UNK        -0.5000 
     62 CA          4.5113  -14.2056  -47.6646 C.3       2 UNK         0.1400 
     63 CB          5.3734  -13.6345  -48.8018 C.3       2 UNK        -0.1800 
     64 N           3.3376  -14.8513  -48.2537 N.am      2 UNK        -0.5000 
     65 C           2.2303  -15.1936  -47.5825 C.2       1 UNK         0.5000 
     66 O           2.0679  -14.9674  -46.3851 O.2       1 UNK        -0.5000 
     67 C          -2.9155  -21.4711  -46.5555 C.2       11 UNK         0.5000 
     68 O          -3.1248  -21.9222  -47.6810 O.2       11 UNK        -0.5000 
     69 N          -2.2019  -22.1213  -45.6245 N.am      12 UNK        -0.5000 
     70 CA         -1.5326  -23.4030  -45.8625 C.3       12 UNK         0.1400 
     71 CB         -0.9801  -23.9609  -44.5429 C.3       12 UNK        -0.1800 
     72 C          -0.4252  -23.2947  -46.9270 C.2       12 UNK         0.5000 
     73 O          -0.3319  -24.1577  -47.7999 O.2       12 UNK        -0.5000 
     74 N           0.3574  -22.2096  -46.8711 N.am      13 UNK        -0.5000 
     75 CA          1.3683  -21.8703  -47.8687 C.3       13 UNK         0.1400 
     76 CB          2.2430  -20.7261  -47.3465 C.3       13 UNK        -0.1800 
     77 C           0.7558  -21.5314  -49.2405 C.2       13 UNK         0.5000 
     78 O           1.2847  -21.9777  -50.2565 O.2       13 UNK        -0.5000 
     79 N          -0.3699  -20.8024  -49.2567 N.am      14 UNK        -0.5000 
     80 CA         -1.1519  -20.5133  -50.4615 C.3       14 UNK         0.1400 
     81 CB         -2.2699  -19.5105  -50.1404 C.3       14 UNK        -0.1800 
     82 C          -1.7376  -21.7819  -51.1069 C.2       14 UNK         0.5000 
     83 O          -1.7569  -21.8836  -52.3336 O.2       14 UNK        -0.5000 
     84 N          -2.1886  -22.7379  -50.2842 N.am      15 UNK        -0.5000 
     85 CA         -2.6447  -24.0565  -50.7225 C.3       15 UNK         0.1400 
     86 CB         -3.3596  -24.7756  -49.5699 C.3       15 UNK        -0.1800 
     87 C          -1.5000  -24.9087  -51.2973 C.2       15 UNK         0.5000 
     88 O          -1.6786  -25.5193  -52.3507 O.2       15 UNK        -0.5000 
     89 N          -0.3314  -24.8907  -50.6394 N.am      16 UNK        -0.5000 
     90 CA          0.8957  -25.5470  -51.1044 C.3       16 UNK         0.1400 
     91 CB          1.9638  -25.4836  -50.0026 C.3       16 UNK        -0.1800 
     92 C           1.4319  -24.9567  -52.4248 C.2       16 UNK         0.5000 
     93 O           1.9214  -25.7038  -53.2722 O.2       16 UNK        -0.5000 
     94 N           1.2825  -23.6361  -52.5951 N.am      17 UNK        -0.5000 
     95 CA          1.5795  -22.8916  -53.8216 C.3       17 UNK         0.1400 
     96 CB          1.7188  -21.4007  -53.4710 C.3       17 UNK        -0.1800 
     97 C           0.5327  -23.0901  -54.9408 C.2       17 UNK         0.5000 
     98 O           0.7373  -22.5832  -56.0444 O.2       17 UNK        -0.5000 
     99 N          -0.5622  -23.8064  -54.6431 N.am      18 UNK        -0.5000 
    100 CA        -1.6942  -24.1336  -55.5156 C.3       18 UNK         0.1400 
    101 CB        -1.2406  -24.9523  -56.7427 C.3       18 UNK        -0.1800 
    102 C         -2.5735  -22.9219  -55.8895 C.2       18 UNK         0.5000 
    103 O         -3.3206  -22.9929  -56.8670 O.2       18 UNK        -0.5000 
    104 N         -2.5086  -21.8473  -55.0917 N.am      19 UNK        -0.5000 
    105 CA        -3.4326  -20.7165  -55.1620 C.3       19 UNK         0.1400 
    106 CB        -2.7660  -19.4573  -54.5850 C.3       19 UNK        -0.1800 
    107 C         -4.7317  -21.0493  -54.4107 C.2       19 UNK         0.5000 
    108 O         -5.8167  -20.8340  -54.9506 O.2       19 UNK        -0.5000 
    109 N         -4.5847  -21.6102  -53.1999 N.am      20 UNK        -0.5000 
    110 CA        -5.6368  -22.0800  -52.2933 C.3       20 UNK         0.1400 
    111 CB        -6.2396  -23.3987  -52.8247 C.3       20 UNK        -0.1800 
    112 C         -6.6881  -20.9924  -51.9870 C.2       20 UNK         0.5000 
    113 O         -6.4143  -20.1036  -51.1826 O.2       20 UNK        -0.5000 
    114 N         -7.8607  -21.0790  -52.6297 N.am      21 UNK        -0.5000 
    115 CA        -8.9525  -20.1073  -52.5295 C.3       21 UNK         0.1400 
    116 CB       -10.2535  -20.7851  -52.9881 C.3       21 UNK        -0.1800 
    117 C         -8.7049  -18.8120  -53.3324 C.2       21 UNK         0.5000 
    118 O         -9.4342  -17.8393  -53.1358 O.2       21 UNK        -0.5000 
    119 N         -7.6985  -18.8206  -54.2167 N.am      22 UNK        -0.5000 
    120 CA        -7.2448  -17.7010  -55.0615 C.3       22 UNK         0.1400 
    121 C         -8.2043  -17.3403  -56.2366 C.2       22 UNK         0.5000 
    122 N         -9.1769  -18.1762  -56.5793 N.am      22 UNK        -0.7600 
    123 O         -8.0504  -16.3006  -56.8723 O.2       22 UNK        -0.5000 
    124 C124       -6.7951  -16.4454  -54.2597 C.3       23 UNK        -0.0398 
    125 S125       -5.6175  -16.8168  -52.9114 S.3       23 UNK        -0.2404 
    126 C126       -6.5650  -16.2004  -51.4834 C.3       23 UNK        -0.0205 
    127 H127        3.7056  -18.1886  -51.2742 H         1 UNK         0.0600 
    128 H128        1.9810  -18.0666  -51.6431 H         1 UNK         0.0600 
    129 H129        2.5918  -19.4451  -50.7269 H         1 UNK         0.0600 
    130 H130        1.0529  -16.4728  -50.3975 H         1 UNK         0.3000 
    131 H131        0.6886  -16.6568  -47.6931 H         1 UNK         0.0600 
    132 H132        0.3878  -14.1515  -49.4334 H         1 UNK         0.0800 
    133 H133       -0.3237  -14.3538  -47.8540 H         1 UNK         0.0800 
    134 H134       -2.9145  -14.2672  -48.2695 H         1 UNK         0.0800 
    135 H135       -2.3868  -15.6294  -47.3034 H         1 UNK         0.0800 
    136 H136       -4.2492  -15.1190  -50.5511 H         1 UNK         0.1150 
    137 H137       -7.3412  -17.8815  -49.4833 H         1 UNK         0.1150 
    138 H138       -4.0984  -17.1161  -46.7746 H         1 UNK         0.1150 
    139 H139       -7.5343  -18.2160  -46.9062 H         1 UNK         0.0800 
    140 H140       -6.5669  -19.5469  -47.4804 H         1 UNK         0.0800 
    141 H141       -5.4655  -20.9644  -45.9737 H         1 UNK         0.0800 
    142 H142       -4.6833  -20.6084  -44.4602 H         1 UNK         0.0800 
    143 H143       -3.6503  -19.5699  -47.1390 H         1 UNK         0.0600 
    144 H144       -2.7589  -19.0101  -44.4957 H         1 UNK         0.3000 
    145 H145        0.6484  -18.2112  -45.4074 H         1 UNK         0.0600 
    146 H146        0.0071  -16.1944  -44.0979 H         1 UNK         0.0600 
    147 H147       -0.6669  -16.1436  -45.7161 H         1 UNK         0.0600 
    148 H148       -1.7005  -16.5516  -44.3547 H         1 UNK         0.0600 
    149 H149       -0.5981  -18.3033  -42.8617 H         1 UNK         0.3000 
    150 H150       -0.0118  -21.7802  -42.1841 H         1 UNK         0.0600 
    151 H151        2.1157  -20.6179  -41.6115 H         1 UNK         0.0600 
    152 H152        1.0867  -20.8001  -40.1991 H         1 UNK         0.0600 
    153 H153        1.2068  -19.2372  -41.0035 H         1 UNK         0.0600 
    154 H154       -1.2063  -19.5836  -40.7330 H         1 UNK         0.3000 
    155 H155       -4.5560  -20.2451  -41.7404 H         1 UNK         0.0600 
    156 H156       -3.1010  -20.6898  -39.0766 H         1 UNK         0.0600 
    157 H157       -4.0695  -21.8915  -39.9218 H         1 UNK         0.0600 
    158 H158       -4.8349  -20.4438  -39.2869 H         1 UNK         0.0600 
    159 H159       -3.4607  -18.3621  -39.9067 H         1 UNK         0.3000 
    160 H160       -2.8439  -15.7488  -42.2801 H         1 UNK         0.0600 
    161 H161       -4.4265  -14.5823  -40.7885 H         1 UNK         0.0600 
    162 H162       -4.9641  -16.1138  -40.0978 H         1 UNK         0.0600 
    163 H163       -5.2962  -15.7378  -41.7844 H         1 UNK         0.0600 
    164 H164       -2.5583  -15.6504  -39.5079 H         1 UNK         0.3000 
    165 H165       -0.5721  -15.4183  -38.5877 H         1 UNK         0.0600 
    166 H166        0.8087  -17.1515  -37.4853 H         1 UNK         0.0600 
    167 H167       -0.7073  -17.8560  -38.0235 H         1 UNK         0.0600 
    168 H168        0.7693  -18.1569  -38.9309 H         1 UNK         0.0600 
    169 H169        1.9996  -16.1971  -39.7002 H         1 UNK         0.3000 
    170 H170        2.6269  -13.1961  -41.4315 H         1 UNK         0.0600 
    171 H171        2.9784  -12.3533  -39.1172 H         1 UNK         0.0600 
    172 H172        3.6921  -13.8895  -38.6418 H         1 UNK         0.0600 
    173 H173        4.4978  -12.8669  -39.8323 H         1 UNK         0.0600 
    174 H174        4.1886  -15.4654  -40.4503 H         1 UNK         0.3000 
    175 H175        5.2313  -16.6955  -42.0587 H         1 UNK         0.0600 
    176 H176        3.3384  -18.0591  -41.1413 H         1 UNK         0.0600 
    177 H177        4.1978  -18.9628  -42.3772 H         1 UNK         0.0600 
    178 H178        2.6493  -18.2096  -42.7564 H         1 UNK         0.0600 
    179 H179        3.9662  -16.3940  -44.6678 H         1 UNK         0.3000 
    180 H180        6.9514  -17.2786  -46.2925 H         1 UNK         0.0600 
    181 H181        4.4971  -19.0978  -46.4545 H         1 UNK         0.0600 
    182 H182        6.1501  -19.6275  -46.1718 H         1 UNK         0.0600 
    183 H183        5.7161  -18.9090  -47.7153 H         1 UNK         0.0600 
    184 H184        4.3927  -16.7992  -47.4280 H         1 UNK         0.3000 
    185 H185        4.1690  -13.3735  -47.0458 H         1 UNK         0.0600 
    186 H186        6.2424  -13.1054  -48.4082 H         1 UNK         0.0600 
    187 H187        5.7399  -14.4216  -49.4620 H         1 UNK         0.0600 
    188 H188        4.8099  -12.9233  -49.4060 H         1 UNK         0.0600 
    189 H189        3.3967  -15.0959  -49.2314 H         1 UNK         0.3000 
    190 H190       -2.1169  -21.7235  -44.6949 H         1 UNK         0.3000 
    191 H191       -2.2821  -24.1041  -46.2356 H         1 UNK         0.0600 
    192 H192       -0.2133  -23.3139  -44.1184 H         1 UNK         0.0600 
    193 H193       -0.5311  -24.9431  -44.6948 H         1 UNK         0.0600 
    194 H194       -1.7705  -24.0752  -43.8009 H         1 UNK         0.0600 
    195 H195        0.2592  -21.5726  -46.0848 H         1 UNK         0.3000 
    196 H196        2.0092  -22.7443  -47.9995 H         1 UNK         0.0600 
    197 H197        3.0516  -20.5123  -48.0459 H         1 UNK         0.0600 
    198 H198        2.7001  -20.9817  -46.3906 H         1 UNK         0.0600 
    199 H199        1.6705  -19.8086  -47.2083 H         1 UNK         0.0600 
    200 H200       -0.7053  -20.3953  -48.3872 H         1 UNK         0.3000 
    201 H201       -0.4806  -20.0486  -51.1860 H         1 UNK         0.0600 
    202 H202       -1.8688  -18.6059  -49.6860 H         1 UNK         0.0600 
    203 H203       -3.0066  -19.9270  -49.4545 H         1 UNK         0.0600 
    204 H204       -2.8025  -19.2115  -51.0440 H         1 UNK         0.0600 
    205 H205       -2.2236  -22.5466  -49.2868 H         1 UNK         0.3000 
    206 H206       -3.3700  -23.9121  -51.5243 H         1 UNK         0.0600 
    207 H207       -4.2104  -24.1949  -49.2128 H         1 UNK         0.0600 
    208 H208       -3.7392  -25.7460  -49.8918 H         1 UNK         0.0600 
    209 H209       -2.6951  -24.9475  -48.7237 H         1 UNK         0.0600 
    210 H210       -0.2803  -24.4056  -49.7482 H         1 UNK         0.3000 
    211 H211        0.6594  -26.5976  -51.2853 H         1 UNK         0.0600 
    212 H212        2.2506  -24.4568  -49.7773 H         1 UNK         0.0600 
    213 H213        2.8662  -26.0169  -50.3038 H         1 UNK         0.0600 
    214 H214        1.6071  -25.9416  -49.0799 H         1 UNK         0.0600 
    215 H215        0.9593  -23.0849  -51.8047 H         1 UNK         0.3000 
    216 H216        2.5381  -23.2401  -54.2107 H         1 UNK         0.0600 
    217 H217        1.9991  -20.8140  -54.3466 H         1 UNK         0.0600 
    218 H218        2.4894  -21.2428  -52.7164 H         1 UNK         0.0600 
    219 H219        0.7848  -20.9903  -53.0871 H         1 UNK         0.0600 
    220 H220       -0.6391  -24.1706  -53.7014 H         1 UNK         0.3000 
    221 H221       -2.3388  -24.7823  -54.9214 H         1 UNK         0.0600 
    222 H222       -2.0983  -25.3513  -57.2852 H         1 UNK         0.0600 
    223 H223       -0.6250  -25.8010  -56.4445 H         1 UNK         0.0600 
    224 H224       -0.6653  -24.3488  -57.4450 H         1 UNK         0.0600 
    225 H225       -1.9144  -21.8935  -54.2694 H         1 UNK         0.3000 
    226 H226       -3.6832  -20.5151  -56.2058 H         1 UNK         0.0600 
    227 H227       -3.4382  -18.6003  -54.6453 H         1 UNK         0.0600 
    228 H228       -2.4901  -19.5816  -53.5380 H         1 UNK         0.0600 
    229 H229       -1.8627  -19.2028  -55.1394 H         1 UNK         0.0600 
    230 H230       -3.6351  -21.7214  -52.8606 H         1 UNK         0.3000 
    231 H231       -5.1516  -22.3000  -51.3414 H         1 UNK         0.0600 
    232 H232       -5.4766  -24.1741  -52.8933 H         1 UNK         0.0600 
    233 H233       -6.6764  -23.2846  -53.8173 H         1 UNK         0.0600 
    234 H234       -7.0172  -23.7731  -52.1577 H         1 UNK         0.0600 
    235 H235       -7.9861  -21.8299  -53.2928 H         1 UNK         0.3000 
    236 H236       -9.0675  -19.8215  -51.4818 H         1 UNK         0.0600 
    237 H237      -10.4759  -21.6631  -52.3813 H         1 UNK         0.0600 
    238 H238      -11.1026  -20.1064  -52.8969 H         1 UNK         0.0600 
    239 H239      -10.1967  -21.1018  -54.0302 H         1 UNK         0.0600 
    240 H240       -7.1559  -19.6734  -54.3254 H         1 UNK         0.3000 
    241 H241       -6.3525  -18.0830  -55.5583 H         1 UNK         0.0600 
    242 H242       -9.7875  -17.9424  -57.3467 H         1 UNK         0.3800 
    243 H243       -9.3072  -19.0398  -56.0776 H         1 UNK         0.3800 
    244 H244       -7.6654  -15.9235  -53.8594 H         1 UNK         0.0800 
    245 H245       -6.3052  -15.7328  -54.9250 H         1 UNK         0.0800 
    246 H246       -7.5563  -16.6550  -51.4871 H         1 UNK         0.0800 
    247 H247       -6.7170  -15.1253  -51.5887 H         1 UNK         0.0800 
@<TRIPOS>BOND
     1    1    2 1    
     2    1  127 1    
     3    1  128 1    
     4    1  129 1    
     5    2    3 2    
     6    2    4 am   BACKBONE|DICT|INTERRES
     7    4    5 1    
     8    4  130 1    
     9    5    6 1    
    10    5   65 1    
    11    5  131 1    
    12    6    7 1    
    13    6  132 1    
    14    6  133 1    
    15    7    8 1    
    16    8    9 1    
    17    8  134 1    
    18    8  135 1    
    19    9   10 ar   
    20    9   14 ar   
    21   10   11 ar   
    22   10  136 1    
    23   11   12 ar   
    24   11  126 1    
    25   12   13 ar   
    26   12  137 1    
    27   13   14 ar   
    28   13   15 1    
    29   14  138 1    
    30   15   16 1    
    31   15  139 1    
    32   15  140 1    
    33   16   17 1    
    34   17   18 1    
    35   17  141 1    
    36   17  142 1    
    37   18   19 1    
    38   18   67 1    
    39   18  143 1    
    40   19   20 am   BACKBONE|DICT|INTERRES
    41   19  144 1    
    42   20   21 2    
    43   20   22 1    
    44   22   23 1    
    45   22   24 1    
    46   22  145 1    
    47   23  146 1    
    48   23  147 1    
    49   23  148 1    
    50   24   25 am   BACKBONE|DICT|INTERRES
    51   24  149 1    
    52   25   26 2    
    53   25   27 1    
    54   27   28 1    
    55   27   29 1    
    56   27  150 1    
    57   28  151 1    
    58   28  152 1    
    59   28  153 1    
    60   29   30 am   BACKBONE|DICT|INTERRES
    61   29  154 1    
    62   30   31 2    
    63   30   32 1    
    64   32   33 1    
    65   32   34 1    
    66   32  155 1    
    67   33  156 1    
    68   33  157 1    
    69   33  158 1    
    70   34   35 am   BACKBONE|DICT|INTERRES
    71   34  159 1    
    72   35   36 2    
    73   35   37 1    
    74   37   38 1    
    75   37   39 1    
    76   37  160 1    
    77   38  161 1    
    78   38  162 1    
    79   38  163 1    
    80   39   40 am   BACKBONE|DICT|INTERRES
    81   39  164 1    
    82   40   41 2    
    83   40   42 1    
    84   42   43 1    
    85   42   44 1    
    86   42  165 1    
    87   43  166 1    
    88   43  167 1    
    89   43  168 1    
    90   44   45 am   BACKBONE|DICT|INTERRES
    91   44  169 1    
    92   45   46 2    
    93   45   47 1    
    94   47   48 1    
    95   47   49 1    
    96   47  170 1    
    97   48  171 1    
    98   48  172 1    
    99   48  173 1    
   100   49   50 am   BACKBONE|DICT|INTERRES
   101   49  174 1    
   102   50   51 2    
   103   50   52 1    
   104   52   53 1    
   105   52   54 1    
   106   52  175 1    
   107   53  176 1    
   108   53  177 1    
   109   53  178 1    
   110   54   55 am   BACKBONE|DICT|INTERRES
   111   54  179 1    
   112   55   56 2    
   113   55   57 1    
   114   57   58 1    
   115   57   59 1    
   116   57  180 1    
   117   58  181 1    
   118   58  182 1    
   119   58  183 1    
   120   59   60 am   BACKBONE|DICT|INTERRES
   121   59  184 1    
   122   60   61 2    
   123   60   62 1    
   124   62   63 1    
   125   62   64 1    
   126   62  185 1    
   127   63  186 1    
   128   63  187 1    
   129   63  188 1    
   130   64   65 am   BACKBONE|DICT|INTERRES
   131   64  189 1    
   132   65   66 2    
   133   67   68 2    
   134   67   69 am   BACKBONE|DICT|INTERRES
   135   69   70 1    
   136   69  190 1    
   137   70   71 1    
   138   70   72 1    
   139   70  191 1    
   140   71  192 1    
   141   71  193 1    
   142   71  194 1    
   143   72   73 2    
   144   72   74 am   BACKBONE|DICT|INTERRES
   145   74   75 1    
   146   74  195 1    
   147   75   76 1    
   148   75   77 1    
   149   75  196 1    
   150   76  197 1    
   151   76  198 1    
   152   76  199 1    
   153   77   78 2    
   154   77   79 am   BACKBONE|DICT|INTERRES
   155   79   80 1    
   156   79  200 1    
   157   80   81 1    
   158   80   82 1    
   159   80  201 1    
   160   81  202 1    
   161   81  203 1    
   162   81  204 1    
   163   82   83 2    
   164   82   84 am   BACKBONE|DICT|INTERRES
   165   84   85 1    
   166   84  205 1    
   167   85   86 1    
   168   85   87 1    
   169   85  206 1    
   170   86  207 1    
   171   86  208 1    
   172   86  209 1    
   173   87   88 2    
   174   87   89 am   BACKBONE|DICT|INTERRES
   175   89   90 1    
   176   89  210 1    
   177   90   91 1    
   178   90   92 1    
   179   90  211 1    
   180   91  212 1    
   181   91  213 1    
   182   91  214 1    
   183   92   93 2    
   184   92   94 am   BACKBONE|DICT|INTERRES
   185   94   95 1    
   186   94  215 1    
   187   95   96 1    
   188   95   97 1    
   189   95  216 1    
   190   96  217 1    
   191   96  218 1    
   192   96  219 1    
   193   97   98 2    
   194   97   99 am   BACKBONE|DICT|INTERRES
   195   99  100 1    
   196   99  220 1    
   197  100  101 1    
   198  100  102 1    
   199  100  221 1    
   200  101  222 1    
   201  101  223 1    
   202  101  224 1    
   203  102  103 2    
   204  102  104 am   BACKBONE|DICT|INTERRES
   205  104  105 1    
   206  104  225 1    
   207  105  106 1    
   208  105  107 1    
   209  105  226 1    
   210  106  227 1    
   211  106  228 1    
   212  106  229 1    
   213  107  108 2    
   214  107  109 am   BACKBONE|DICT|INTERRES
   215  109  110 1    
   216  109  230 1    
   217  110  111 1    
   218  110  112 1    
   219  110  231 1    
   220  111  232 1    
   221  111  233 1    
   222  111  234 1    
   223  112  113 2    
   224  112  114 am   BACKBONE|DICT|INTERRES
   225  114  115 1    
   226  114  235 1    
   227  115  116 1    
   228  115  117 1    
   229  115  236 1    
   230  116  237 1    
   231  116  238 1    
   232  116  239 1    
   233  117  118 2    
   234  117  119 am   BACKBONE|DICT|INTERRES
   235  119  120 1    
   236  119  240 1    
   237  120  121 1    
   238  120  124 1    
   239  120  241 1    
   240  121  122 am   BACKBONE|DICT|INTERRES
   241  121  123 2    
   242  122  242 1    
   243  122  243 1    
   244  124  125 1    
   245  124  244 1    
   246  124  245 1    
   247  125  126 1    
   248  126  246 1    
   249  126  247 1    
@<TRIPOS>SUBSTRUCTURE
     1 UNK         1 GROUP             0       ****    0 ROOT    
