@<TRIPOS>MOLECULE
3R540
247   249    1
SMALL
USER_CHARGES


@<TRIPOS>ATOM
      1 CA         -2.8755  -11.9218  -51.7121 C.3       0 UNK        -0.1800 
      2 C          -1.9242  -12.2704  -50.5758 C.2       0 UNK         0.5000 
      3 O          -0.7101  -12.1322  -50.7284 O.2       0 UNK        -0.5000 
      4 N          -2.4697  -12.7289  -49.4436 N.am      1 UNK        -0.5000 
      5 CA         -1.7196  -13.0764  -48.2338 C.3       1 UNK         0.1400 
      6 C6         -2.5755  -13.9064  -47.2482 C.3       23 UNK        -0.0398 
      7 S7         -2.7944  -15.6232  -47.8183 S.3       23 UNK        -0.2404 
      8 C8         -4.5487  -15.6272  -48.2938 C.3       23 UNK        -0.0205 
      9 C9         -5.0510  -17.0508  -48.4569 C.ar      23 UNK        -0.0193 
     10 C10        -5.1776  -17.6253  -49.7237 C.ar      23 UNK        -0.1150 
     11 C11        -5.6424  -18.9364  -49.8616 C.ar      23 UNK        -0.0193 
     12 C12        -5.9506  -19.6806  -48.7188 C.ar      23 UNK        -0.1150 
     13 C13        -5.8168  -19.1233  -47.4424 C.ar      23 UNK        -0.0193 
     14 C14        -5.3860  -17.7970  -47.3252 C.ar      23 UNK        -0.1150 
     15 C15        -6.1773  -19.9769  -46.2270 C.3       23 UNK        -0.0205 
     16 S16        -5.4448  -19.4616  -44.6280 S.3       23 UNK        -0.2404 
     17 C17        -3.6301  -19.5181  -44.8837 C.3       23 UNK        -0.0398 
     18 CA         -3.0440  -20.7532  -45.6113 C.3       11 UNK         0.1400 
     19 N          -1.5943  -20.6106  -45.8053 N.am      11 UNK        -0.5000 
     20 C          -0.8156  -21.4515  -46.5006 C.2       10 UNK         0.5000 
     21 O          -1.2435  -22.4483  -47.0784 O.2       10 UNK        -0.5000 
     22 CA          0.6971  -21.1752  -46.5109 C.3       10 UNK         0.1400 
     23 CB          1.0450  -20.0191  -47.4603 C.3       10 UNK        -0.1800 
     24 N           1.2088  -20.9073  -45.1675 N.am      10 UNK        -0.5000 
     25 C           1.2388  -21.8175  -44.1823 C.2       9 UNK         0.5000 
     26 O           0.9305  -22.9989  -44.3385 O.2       9 UNK        -0.5000 
     27 CA          1.6359  -21.3217  -42.7788 C.3       9 UNK         0.1400 
     28 CB          3.1619  -21.3274  -42.6078 C.3       9 UNK        -0.1800 
     29 N           1.1138  -19.9876  -42.4788 N.am      9 UNK        -0.5000 
     30 C          -0.1876  -19.6766  -42.3915 C.2       8 UNK         0.5000 
     31 O          -1.0959  -20.5003  -42.4991 O.2       8 UNK        -0.5000 
     32 CA         -0.5311  -18.1843  -42.2258 C.3       8 UNK         0.1400 
     33 CB         -0.3856  -17.7355  -40.7641 C.3       8 UNK        -0.1800 
     34 N           0.2907  -17.3395  -43.0948 N.am      8 UNK        -0.5000 
     35 C           0.2169  -17.3488  -44.4338 C.2       7 UNK         0.5000 
     36 O          -0.6098  -18.0089  -45.0624 O.2       7 UNK        -0.5000 
     37 CA          1.2775  -16.5384  -45.1989 C.3       7 UNK         0.1400 
     38 CB          0.8209  -15.0916  -45.4134 C.3       7 UNK        -0.1800 
     39 N           2.5691  -16.5485  -44.5133 N.am      7 UNK        -0.5000 
     40 C           3.4032  -17.5984  -44.5168 C.2       6 UNK         0.5000 
     41 O           3.1734  -18.6445  -45.1225 O.2       6 UNK        -0.5000 
     42 CA          4.6870  -17.4796  -43.6722 C.3       6 UNK         0.1400 
     43 CB          5.8145  -16.8388  -44.4947 C.3       6 UNK        -0.1800 
     44 N           4.4937  -16.7119  -42.4414 N.am      6 UNK        -0.5000 
     45 C           3.6680  -17.0615  -41.4453 C.2       5 UNK         0.5000 
     46 O           3.0324  -18.1147  -41.4310 O.2       5 UNK        -0.5000 
     47 CA          3.4780  -16.0483  -40.2992 C.3       5 UNK         0.1400 
     48 CB          4.3692  -16.4186  -39.1047 C.3       5 UNK        -0.1800 
     49 N           3.7373  -14.6551  -40.6803 N.am      5 UNK        -0.5000 
     50 C           3.0611  -13.9698  -41.6125 C.2       4 UNK         0.5000 
     51 O           2.1604  -14.4566  -42.3004 O.2       4 UNK        -0.5000 
     52 CA          3.5374  -12.5276  -41.8658 C.3       4 UNK         0.1400 
     53 CB          4.6708  -12.5259  -42.9043 C.3       4 UNK        -0.1800 
     54 N           2.4716  -11.6484  -42.3438 N.am      4 UNK        -0.5000 
     55 C           1.3955  -11.2650  -41.6422 C.2       3 UNK         0.5000 
     56 O           1.1877  -11.6015  -40.4754 O.2       3 UNK        -0.5000 
     57 CA          0.3979  -10.3172  -42.3455 C.3       3 UNK         0.1400 
     58 CB          0.4850   -8.9042  -41.7461 C.3       3 UNK        -0.1800 
     59 N           0.6115  -10.2249  -43.7941 N.am      3 UNK        -0.5000 
     60 C           0.2098  -11.1494  -44.6744 C.2       2 UNK         0.5000 
     61 O          -0.4604  -12.1365  -44.3633 O.2       2 UNK        -0.5000 
     62 CA          0.6802  -10.9496  -46.1296 C.3       2 UNK         0.1400 
     63 CB          2.2068  -11.1184  -46.2324 C.3       2 UNK        -0.1800 
     64 N           0.0538  -11.9213  -47.0229 N.am      2 UNK        -0.5000 
     65 C          -1.1788  -11.8158  -47.5307 C.2       1 UNK         0.5000 
     66 O          -1.8880  -10.8116  -47.4255 O.2       1 UNK        -0.5000 
     67 C          -3.4143  -22.0855  -44.9186 C.2       11 UNK         0.5000 
     68 O          -4.3781  -22.7320  -45.3287 O.2       11 UNK        -0.5000 
     69 N          -2.5993  -22.5319  -43.9522 N.am      12 UNK        -0.5000 
     70 CA         -2.7237  -23.8401  -43.2987 C.3       12 UNK         0.1400 
     71 CB         -1.7330  -23.9188  -42.1275 C.3       12 UNK        -0.1800 
     72 C          -2.5468  -25.0449  -44.2527 C.2       12 UNK         0.5000 
     73 O          -3.0416  -26.1301  -43.9468 O.2       12 UNK        -0.5000 
     74 N          -1.8829  -24.8295  -45.3964 N.am      13 UNK        -0.5000 
     75 CA         -1.7288  -25.7833  -46.4964 C.3       13 UNK         0.1400 
     76 CB         -0.2505  -25.7934  -46.9250 C.3       13 UNK        -0.1800 
     77 C          -2.6509  -25.4423  -47.6886 C.2       13 UNK         0.5000 
     78 O          -2.4452  -25.9754  -48.7807 O.2       13 UNK        -0.5000 
     79 N          -3.6230  -24.5378  -47.4854 N.am      14 UNK        -0.5000 
     80 CA         -4.5703  -24.0057  -48.4725 C.3       14 UNK         0.1400 
     81 CB         -5.5624  -25.1003  -48.9170 C.3       14 UNK        -0.1800 
     82 C          -3.8754  -23.3077  -49.6602 C.2       14 UNK         0.5000 
     83 O          -4.3104  -23.4583  -50.8007 O.2       14 UNK        -0.5000 
     84 N          -2.7815  -22.5887  -49.3716 N.am      15 UNK        -0.5000 
     85 CA         -1.8572  -21.9535  -50.3154 C.3       15 UNK         0.1400 
     86 CB         -2.5451  -20.8202  -51.0950 C.3       15 UNK        -0.1800 
     87 C          -1.1650  -22.9900  -51.2193 C.2       15 UNK         0.5000 
     88 O          -1.0961  -22.8087  -52.4368 O.2       15 UNK        -0.5000 
     89 N          -0.6931  -24.0751  -50.5878 N.am      16 UNK        -0.5000 
     90 CA         -0.0815  -25.2603  -51.1965 C.3       16 UNK         0.1400 
     91 CB          1.2862  -24.9086  -51.8185 C.3       16 UNK        -0.1800 
     92 C          -1.0451  -25.9615  -52.1760 C.2       16 UNK         0.5000 
     93 O          -0.6743  -26.2483  -53.3146 O.2       16 UNK        -0.5000 
     94 N          -2.2792  -26.1928  -51.7028 N.am      17 UNK        -0.5000 
     95 CA         -3.4283  -26.7226  -52.4449 C.3       17 UNK         0.1400 
     96 CB         -3.1988  -28.1982  -52.8334 C.3       17 UNK        -0.1800 
     97 C          -3.8164  -25.8261  -53.6416 C.2       17 UNK         0.5000 
     98 O          -3.9498  -26.3087  -54.7680 O.2       17 UNK        -0.5000 
     99 N          -3.9872  -24.5290  -53.3523 N.am      18 UNK        -0.5000 
    100 CA        -4.3540  -23.4384  -54.2570 C.3       18 UNK         0.1400 
    101 CB        -5.8196  -23.5824  -54.7157 C.3       18 UNK        -0.1800 
    102 C         -3.3621  -23.2500  -55.4246 C.2       18 UNK         0.5000 
    103 O         -3.7795  -23.1263  -56.5785 O.2       18 UNK        -0.5000 
    104 N         -2.0628  -23.2480  -55.1024 N.am      19 UNK        -0.5000 
    105 CA        -0.9700  -23.0596  -56.0556 C.3       19 UNK         0.1400 
    106 CB         0.0483  -24.1970  -55.8910 C.3       19 UNK        -0.1800 
    107 C         -0.2869  -21.6964  -55.8652 C.2       19 UNK         0.5000 
    108 O          0.0346  -21.0405  -56.8569 O.2       19 UNK        -0.5000 
    109 N         -0.0729  -21.2878  -54.6064 N.am      20 UNK        -0.5000 
    110 CA         0.5870  -20.0278  -54.2500 C.3       20 UNK         0.1400 
    111 CB         1.2233  -20.1751  -52.8583 C.3       20 UNK        -0.1800 
    112 C         -0.3666  -18.8172  -54.2902 C.2       20 UNK         0.5000 
    113 O          0.0967  -17.6815  -54.3994 O.2       20 UNK        -0.5000 
    114 N         -1.6727  -19.0820  -54.2046 N.am      21 UNK        -0.5000 
    115 CA        -2.7804  -18.1343  -54.2290 C.3       21 UNK         0.1400 
    116 CB        -2.8434  -17.3465  -52.9043 C.3       21 UNK        -0.1800 
    117 C         -4.0665  -18.9391  -54.4780 C.2       21 UNK         0.5000 
    118 O         -4.0142  -20.1705  -54.4916 O.2       21 UNK        -0.5000 
    119 N         -5.1958  -18.2433  -54.6581 N.am      22 UNK        -0.5000 
    120 CA        -6.5330  -18.8233  -54.9099 C.3       22 UNK         0.1400 
    121 C         -6.6934  -19.5127  -56.3024 C.2       22 UNK         0.5000 
    122 N         -5.8000  -19.2924  -57.2591 N.am      22 UNK        -0.7600 
    123 O         -7.6618  -20.2304  -56.5381 O.2       22 UNK        -0.5000 
    124 C124       -7.0571  -19.7201  -53.7471 C.3       23 UNK        -0.0398 
    125 S125       -7.1930  -18.8369  -52.1549 S.3       23 UNK        -0.2404 
    126 C126       -5.7916  -19.5515  -51.2441 C.3       23 UNK        -0.0205 
    127 H127       -3.9163  -12.0970  -51.4384 H         1 UNK         0.0600 
    128 H128       -2.6489  -12.5270  -52.5899 H         1 UNK         0.0600 
    129 H129       -2.7674  -10.8717  -51.9831 H         1 UNK         0.0600 
    130 H130       -3.4741  -12.7909  -49.3693 H         1 UNK         0.3000 
    131 H131       -0.8622  -13.6822  -48.5373 H         1 UNK         0.0600 
    132 H132       -2.1028  -13.9608  -46.2658 H         1 UNK         0.0800 
    133 H133       -3.5424  -13.4302  -47.0776 H         1 UNK         0.0800 
    134 H134       -5.1438  -15.1230  -47.5309 H         1 UNK         0.0800 
    135 H135       -4.6779  -15.0620  -49.2179 H         1 UNK         0.0800 
    136 H136       -4.9251  -17.0510  -50.6037 H         1 UNK         0.1150 
    137 H137       -6.3009  -20.6979  -48.8241 H         1 UNK         0.1150 
    138 H138       -5.2939  -17.3351  -46.3532 H         1 UNK         0.1150 
    139 H139       -7.2620  -19.9539  -46.1165 H         1 UNK         0.0800 
    140 H140       -5.9233  -21.0183  -46.4201 H         1 UNK         0.0800 
    141 H141       -3.1654  -19.4163  -43.9025 H         1 UNK         0.0800 
    142 H142       -3.3494  -18.6164  -45.4297 H         1 UNK         0.0800 
    143 H143       -3.4774  -20.7860  -46.6125 H         1 UNK         0.0600 
    144 H144       -1.1671  -19.7841  -45.3941 H         1 UNK         0.3000 
    145 H145        1.1952  -22.0727  -46.8839 H         1 UNK         0.0600 
    146 H146        2.1195  -19.8366  -47.4817 H         1 UNK         0.0600 
    147 H147        0.7350  -20.2469  -48.4806 H         1 UNK         0.0600 
    148 H148        0.5539  -19.0908  -47.1716 H         1 UNK         0.0600 
    149 H149        1.5554  -19.9731  -44.9838 H         1 UNK         0.3000 
    150 H150        1.2099  -22.0150  -42.0507 H         1 UNK         0.0600 
    151 H151        3.5701  -22.3236  -42.7828 H         1 UNK         0.0600 
    152 H152        3.4467  -21.0310  -41.5981 H         1 UNK         0.0600 
    153 H153        3.6483  -20.6462  -43.3057 H         1 UNK         0.0600 
    154 H154        1.8007  -19.2574  -42.3103 H         1 UNK         0.3000 
    155 H155       -1.5749  -18.0471  -42.5152 H         1 UNK         0.0600 
    156 H156       -1.0543  -18.3049  -40.1174 H         1 UNK         0.0600 
    157 H157       -0.6394  -16.6818  -40.6473 H         1 UNK         0.0600 
    158 H158        0.6274  -17.8802  -40.3902 H         1 UNK         0.0600 
    159 H159        0.9989  -16.7706  -42.6529 H         1 UNK         0.3000 
    160 H160        1.4037  -16.9952  -46.1827 H         1 UNK         0.0600 
    161 H161        0.6066  -14.5922  -44.4685 H         1 UNK         0.0600 
    162 H162       -0.0868  -15.0648  -46.0143 H         1 UNK         0.0600 
    163 H163        1.5791  -14.5108  -45.9379 H         1 UNK         0.0600 
    164 H164        2.7813  -15.7447  -43.9352 H         1 UNK         0.3000 
    165 H165        4.9959  -18.4892  -43.3937 H         1 UNK         0.0600 
    166 H166        6.7503  -16.8224  -43.9358 H         1 UNK         0.0600 
    167 H167        5.9953  -17.4002  -45.4124 H         1 UNK         0.0600 
    168 H168        5.5740  -15.8134  -44.7786 H         1 UNK         0.0600 
    169 H169        4.9838  -15.8330  -42.3700 H         1 UNK         0.3000 
    170 H170        2.4358  -16.1133  -39.9805 H         1 UNK         0.0600 
    171 H171        4.1807  -17.4427  -38.7792 H         1 UNK         0.0600 
    172 H172        5.4284  -16.3431  -39.3539 H         1 UNK         0.0600 
    173 H173        4.1765  -15.7683  -38.2513 H         1 UNK         0.0600 
    174 H174        4.4782  -14.1888  -40.1766 H         1 UNK         0.3000 
    175 H175        3.9173  -12.1156  -40.9286 H         1 UNK         0.0600 
    176 H176        4.3372  -12.9212  -43.8649 H         1 UNK         0.0600 
    177 H177        5.0524  -11.5184  -43.0710 H         1 UNK         0.0600 
    178 H178        5.5111  -13.1369  -42.5722 H         1 UNK         0.0600 
    179 H179        2.5432  -11.3382  -43.2996 H         1 UNK         0.3000 
    180 H180       -0.6065  -10.7033  -42.1584 H         1 UNK         0.0600 
    181 H181        1.4710   -8.4628  -41.8968 H         1 UNK         0.0600 
    182 H182        0.2941   -8.9217  -40.6722 H         1 UNK         0.0600 
    183 H183       -0.2537   -8.2393  -42.1941 H         1 UNK         0.0600 
    184 H184        1.1474   -9.4325  -44.1188 H         1 UNK         0.3000 
    185 H185        0.4124   -9.9394  -46.4466 H         1 UNK         0.0600 
    186 H186        2.5448  -11.0145  -47.2638 H         1 UNK         0.0600 
    187 H187        2.5310  -12.0957  -45.8721 H         1 UNK         0.0600 
    188 H188        2.7318  -10.3619  -45.6483 H         1 UNK         0.0600 
    189 H189        0.5510  -12.7914  -47.1376 H         1 UNK         0.3000 
    190 H190       -1.8550  -21.9244  -43.6216 H         1 UNK         0.3000 
    191 H191       -3.7335  -23.9030  -42.8881 H         1 UNK         0.0600 
    192 H192       -0.6998  -23.8727  -42.4693 H         1 UNK         0.0600 
    193 H193       -1.8894  -23.1028  -41.4216 H         1 UNK         0.0600 
    194 H194       -1.8534  -24.8526  -41.5769 H         1 UNK         0.0600 
    195 H195       -1.5182  -23.9012  -45.5765 H         1 UNK         0.3000 
    196 H196       -1.9934  -26.7893  -46.1661 H         1 UNK         0.0600 
    197 H197        0.3995  -26.0351  -46.0839 H         1 UNK         0.0600 
    198 H198        0.0631  -24.8264  -47.3191 H         1 UNK         0.0600 
    199 H199       -0.0677  -26.5403  -47.6985 H         1 UNK         0.0600 
    200 H200       -3.7098  -24.1310  -46.5597 H         1 UNK         0.3000 
    201 H201       -5.1430  -23.2301  -47.9627 H         1 UNK         0.0600 
    202 H202       -6.3409  -24.6865  -49.5590 H         1 UNK         0.0600 
    203 H203       -6.0586  -25.5525  -48.0584 H         1 UNK         0.0600 
    204 H204       -5.0673  -25.8955  -49.4745 H         1 UNK         0.0600 
    205 H205       -2.4598  -22.5797  -48.4059 H         1 UNK         0.3000 
    206 H206       -1.0675  -21.5000  -49.7161 H         1 UNK         0.0600 
    207 H207       -3.3070  -21.1976  -51.7766 H         1 UNK         0.0600 
    208 H208       -1.8237  -20.2632  -51.6897 H         1 UNK         0.0600 
    209 H209       -3.0123  -20.1113  -50.4126 H         1 UNK         0.0600 
    210 H210       -0.8568  -24.1398  -49.5933 H         1 UNK         0.3000 
    211 H211        0.0980  -25.9687  -50.3864 H         1 UNK         0.0600 
    212 H212        1.9546  -24.4759  -51.0744 H         1 UNK         0.0600 
    213 H213        1.7758  -25.7985  -52.2154 H         1 UNK         0.0600 
    214 H214        1.1927  -24.1942  -52.6358 H         1 UNK         0.0600 
    215 H215       -2.4573  -25.9540  -50.7305 H         1 UNK         0.3000 
    216 H216       -4.2741  -26.6947  -51.7566 H         1 UNK         0.0600 
    217 H217       -4.0955  -28.6256  -53.2834 H         1 UNK         0.0600 
    218 H218       -2.3882  -28.3091  -53.5540 H         1 UNK         0.0600 
    219 H219       -2.9554  -28.8018  -51.9591 H         1 UNK         0.0600 
    220 H220       -3.8946  -24.2413  -52.3795 H         1 UNK         0.3000 
    221 H221       -4.2926  -22.5357  -53.6506 H         1 UNK         0.0600 
    222 H222       -6.1318  -22.7136  -55.2969 H         1 UNK         0.0600 
    223 H223       -5.9639  -24.4649  -55.3395 H         1 UNK         0.0600 
    224 H224       -6.4927  -23.6586  -53.8619 H         1 UNK         0.0600 
    225 H225       -1.8023  -23.3287  -54.1232 H         1 UNK         0.3000 
    226 H226       -1.3435  -23.0980  -57.0808 H         1 UNK         0.0600 
    227 H227       -0.4172  -25.1681  -56.0613 H         1 UNK         0.0600 
    228 H228        0.8671  -24.0967  -56.6044 H         1 UNK         0.0600 
    229 H229        0.4819  -24.2081  -54.8912 H         1 UNK         0.0600 
    230 H230       -0.3797  -21.8751  -53.8341 H         1 UNK         0.3000 
    231 H231        1.3901  -19.8347  -54.9644 H         1 UNK         0.0600 
    232 H232        1.7606  -19.2686  -52.5768 H         1 UNK         0.0600 
    233 H233        1.9397  -20.9966  -52.8385 H         1 UNK         0.0600 
    234 H234        0.4775  -20.3656  -52.0876 H         1 UNK         0.0600 
    235 H235       -1.9782  -20.0480  -54.1803 H         1 UNK         0.3000 
    236 H236       -2.6415  -17.4453  -55.0641 H         1 UNK         0.0600 
    237 H237       -1.9500  -16.7389  -52.7614 H         1 UNK         0.0600 
    238 H238       -3.6957  -16.6669  -52.8842 H         1 UNK         0.0600 
    239 H239       -2.9308  -18.0094  -52.0439 H         1 UNK         0.0600 
    240 H240       -5.1588  -17.2345  -54.6367 H         1 UNK         0.3000 
    241 H241       -7.2036  -17.9653  -54.9672 H         1 UNK         0.0600 
    242 H242       -5.9172  -19.7352  -58.1569 H         1 UNK         0.3800 
    243 H243       -5.0048  -18.6976  -57.0935 H         1 UNK         0.3800 
    244 H244       -6.4386  -20.6108  -53.6314 H         1 UNK         0.0800 
    245 H245       -8.0582  -20.0885  -53.9763 H         1 UNK         0.0800 
    246 H246       -4.8792  -19.3770  -51.8085 H         1 UNK         0.0800 
    247 H247       -5.9124  -20.6341  -51.1761 H         1 UNK         0.0800 
@<TRIPOS>BOND
     1    1    2 1    
     2    1  127 1    
     3    1  128 1    
     4    1  129 1    
     5    2    3 2    
     6    2    4 am   BACKBONE|DICT|INTERRES
     7    4    5 1    
     8    4  130 1    
     9    5    6 1    
    10    5   65 1    
    11    5  131 1    
    12    6    7 1    
    13    6  132 1    
    14    6  133 1    
    15    7    8 1    
    16    8    9 1    
    17    8  134 1    
    18    8  135 1    
    19    9   10 ar   
    20    9   14 ar   
    21   10   11 ar   
    22   10  136 1    
    23   11   12 ar   
    24   11  126 1    
    25   12   13 ar   
    26   12  137 1    
    27   13   14 ar   
    28   13   15 1    
    29   14  138 1    
    30   15   16 1    
    31   15  139 1    
    32   15  140 1    
    33   16   17 1    
    34   17   18 1    
    35   17  141 1    
    36   17  142 1    
    37   18   19 1    
    38   18   67 1    
    39   18  143 1    
    40   19   20 am   BACKBONE|DICT|INTERRES
    41   19  144 1    
    42   20   21 2    
    43   20   22 1    
    44   22   23 1    
    45   22   24 1    
    46   22  145 1    
    47   23  146 1    
    48   23  147 1    
    49   23  148 1    
    50   24   25 am   BACKBONE|DICT|INTERRES
    51   24  149 1    
    52   25   26 2    
    53   25   27 1    
    54   27   28 1    
    55   27   29 1    
    56   27  150 1    
    57   28  151 1    
    58   28  152 1    
    59   28  153 1    
    60   29   30 am   BACKBONE|DICT|INTERRES
    61   29  154 1    
    62   30   31 2    
    63   30   32 1    
    64   32   33 1    
    65   32   34 1    
    66   32  155 1    
    67   33  156 1    
    68   33  157 1    
    69   33  158 1    
    70   34   35 am   BACKBONE|DICT|INTERRES
    71   34  159 1    
    72   35   36 2    
    73   35   37 1    
    74   37   38 1    
    75   37   39 1    
    76   37  160 1    
    77   38  161 1    
    78   38  162 1    
    79   38  163 1    
    80   39   40 am   BACKBONE|DICT|INTERRES
    81   39  164 1    
    82   40   41 2    
    83   40   42 1    
    84   42   43 1    
    85   42   44 1    
    86   42  165 1    
    87   43  166 1    
    88   43  167 1    
    89   43  168 1    
    90   44   45 am   BACKBONE|DICT|INTERRES
    91   44  169 1    
    92   45   46 2    
    93   45   47 1    
    94   47   48 1    
    95   47   49 1    
    96   47  170 1    
    97   48  171 1    
    98   48  172 1    
    99   48  173 1    
   100   49   50 am   BACKBONE|DICT|INTERRES
   101   49  174 1    
   102   50   51 2    
   103   50   52 1    
   104   52   53 1    
   105   52   54 1    
   106   52  175 1    
   107   53  176 1    
   108   53  177 1    
   109   53  178 1    
   110   54   55 am   BACKBONE|DICT|INTERRES
   111   54  179 1    
   112   55   56 2    
   113   55   57 1    
   114   57   58 1    
   115   57   59 1    
   116   57  180 1    
   117   58  181 1    
   118   58  182 1    
   119   58  183 1    
   120   59   60 am   BACKBONE|DICT|INTERRES
   121   59  184 1    
   122   60   61 2    
   123   60   62 1    
   124   62   63 1    
   125   62   64 1    
   126   62  185 1    
   127   63  186 1    
   128   63  187 1    
   129   63  188 1    
   130   64   65 am   BACKBONE|DICT|INTERRES
   131   64  189 1    
   132   65   66 2    
   133   67   68 2    
   134   67   69 am   BACKBONE|DICT|INTERRES
   135   69   70 1    
   136   69  190 1    
   137   70   71 1    
   138   70   72 1    
   139   70  191 1    
   140   71  192 1    
   141   71  193 1    
   142   71  194 1    
   143   72   73 2    
   144   72   74 am   BACKBONE|DICT|INTERRES
   145   74   75 1    
   146   74  195 1    
   147   75   76 1    
   148   75   77 1    
   149   75  196 1    
   150   76  197 1    
   151   76  198 1    
   152   76  199 1    
   153   77   78 2    
   154   77   79 am   BACKBONE|DICT|INTERRES
   155   79   80 1    
   156   79  200 1    
   157   80   81 1    
   158   80   82 1    
   159   80  201 1    
   160   81  202 1    
   161   81  203 1    
   162   81  204 1    
   163   82   83 2    
   164   82   84 am   BACKBONE|DICT|INTERRES
   165   84   85 1    
   166   84  205 1    
   167   85   86 1    
   168   85   87 1    
   169   85  206 1    
   170   86  207 1    
   171   86  208 1    
   172   86  209 1    
   173   87   88 2    
   174   87   89 am   BACKBONE|DICT|INTERRES
   175   89   90 1    
   176   89  210 1    
   177   90   91 1    
   178   90   92 1    
   179   90  211 1    
   180   91  212 1    
   181   91  213 1    
   182   91  214 1    
   183   92   93 2    
   184   92   94 am   BACKBONE|DICT|INTERRES
   185   94   95 1    
   186   94  215 1    
   187   95   96 1    
   188   95   97 1    
   189   95  216 1    
   190   96  217 1    
   191   96  218 1    
   192   96  219 1    
   193   97   98 2    
   194   97   99 am   BACKBONE|DICT|INTERRES
   195   99  100 1    
   196   99  220 1    
   197  100  101 1    
   198  100  102 1    
   199  100  221 1    
   200  101  222 1    
   201  101  223 1    
   202  101  224 1    
   203  102  103 2    
   204  102  104 am   BACKBONE|DICT|INTERRES
   205  104  105 1    
   206  104  225 1    
   207  105  106 1    
   208  105  107 1    
   209  105  226 1    
   210  106  227 1    
   211  106  228 1    
   212  106  229 1    
   213  107  108 2    
   214  107  109 am   BACKBONE|DICT|INTERRES
   215  109  110 1    
   216  109  230 1    
   217  110  111 1    
   218  110  112 1    
   219  110  231 1    
   220  111  232 1    
   221  111  233 1    
   222  111  234 1    
   223  112  113 2    
   224  112  114 am   BACKBONE|DICT|INTERRES
   225  114  115 1    
   226  114  235 1    
   227  115  116 1    
   228  115  117 1    
   229  115  236 1    
   230  116  237 1    
   231  116  238 1    
   232  116  239 1    
   233  117  118 2    
   234  117  119 am   BACKBONE|DICT|INTERRES
   235  119  120 1    
   236  119  240 1    
   237  120  121 1    
   238  120  124 1    
   239  120  241 1    
   240  121  122 am   BACKBONE|DICT|INTERRES
   241  121  123 2    
   242  122  242 1    
   243  122  243 1    
   244  124  125 1    
   245  124  244 1    
   246  124  245 1    
   247  125  126 1    
   248  126  246 1    
   249  126  247 1    
@<TRIPOS>SUBSTRUCTURE
     1 UNK         1 GROUP             0       ****    0 ROOT    
