@<TRIPOS>MOLECULE
3R540
247   249    1
SMALL
USER_CHARGES


@<TRIPOS>ATOM
      1 CA          8.7101  -13.6629  -47.8859 C.3       0 UNK        -0.1800 
      2 C           7.3733  -14.0219  -47.2536 C.2       0 UNK         0.5000 
      3 O           7.3199  -14.3371  -46.0644 O.2       0 UNK        -0.5000 
      4 N           6.2894  -13.9635  -48.0361 N.am      1 UNK        -0.5000 
      5 CA          4.9099  -14.2632  -47.6325 C.3       1 UNK         0.1400 
      6 C6          4.0627  -14.7569  -48.8349 C.3       23 UNK        -0.0398 
      7 S7          4.0119  -13.6019  -50.2546 S.3       23 UNK        -0.2404 
      8 C8          4.2224  -14.7299  -51.6656 C.3       23 UNK        -0.0205 
      9 C9          3.0351  -15.6675  -51.8308 C.ar      23 UNK        -0.0193 
     10 C10         1.8272  -15.1917  -52.3518 C.ar      23 UNK        -0.1150 
     11 C11         0.7398  -16.0514  -52.5393 C.ar      23 UNK        -0.0193 
     12 C12         0.8854  -17.4056  -52.2175 C.ar      23 UNK        -0.1150 
     13 C13         2.0735  -17.8871  -51.6650 C.ar      23 UNK        -0.0193 
     14 C14         3.1481  -17.0150  -51.4787 C.ar      23 UNK        -0.1150 
     15 C15         2.1921  -19.3474  -51.2607 C.3       23 UNK        -0.0205 
     16 S16         1.8069  -19.5696  -49.4967 S.3       23 UNK        -0.2404 
     17 C17        -0.0023  -19.3234  -49.4627 C.3       23 UNK        -0.0398 
     18 CA         -0.7314  -20.4877  -48.7522 C.3       11 UNK         0.1400 
     19 N          -0.3113  -20.6114  -47.3492 N.am      11 UNK        -0.5000 
     20 C          -0.3376  -21.7167  -46.5923 C.2       10 UNK         0.5000 
     21 O          -0.8595  -22.7712  -46.9627 O.2       10 UNK        -0.5000 
     22 CA          0.2515  -21.6152  -45.1693 C.3       10 UNK         0.1400 
     23 CB          0.8629  -22.9407  -44.6786 C.3       10 UNK        -0.1800 
     24 N           1.1891  -20.5034  -44.9966 N.am      10 UNK        -0.5000 
     25 C           2.3897  -20.3165  -45.5675 C.2       9 UNK         0.5000 
     26 O           2.9329  -21.1321  -46.3121 O.2       9 UNK        -0.5000 
     27 CA          3.1044  -18.9866  -45.2440 C.3       9 UNK         0.1400 
     28 CB          3.3424  -18.1482  -46.5117 C.3       9 UNK        -0.1800 
     29 N           2.3293  -18.1856  -44.2920 N.am      9 UNK        -0.5000 
     30 C           2.6486  -18.0059  -43.0042 C.2       8 UNK         0.5000 
     31 O           3.6947  -18.4041  -42.4911 O.2       8 UNK        -0.5000 
     32 CA          1.6041  -17.2881  -42.1316 C.3       8 UNK         0.1400 
     33 CB          1.7561  -15.7647  -42.2450 C.3       8 UNK        -0.1800 
     34 N           0.2245  -17.6636  -42.4538 N.am      8 UNK        -0.5000 
     35 C          -0.3178  -18.8632  -42.1953 C.2       7 UNK         0.5000 
     36 O           0.3180  -19.8094  -41.7327 O.2       7 UNK        -0.5000 
     37 CA         -1.8087  -19.0543  -42.5152 C.3       7 UNK         0.1400 
     38 CB         -2.6752  -18.5389  -41.3560 C.3       7 UNK        -0.1800 
     39 N          -2.1897  -18.3555  -43.7396 N.am      7 UNK        -0.5000 
     40 C          -2.6814  -18.9413  -44.8387 C.2       6 UNK         0.5000 
     41 O          -2.8685  -20.1541  -44.9600 O.2       6 UNK        -0.5000 
     42 CA         -3.0201  -18.0081  -46.0163 C.3       6 UNK         0.1400 
     43 CB         -4.4268  -17.4226  -45.8119 C.3       6 UNK        -0.1800 
     44 N          -2.0857  -16.9016  -46.2255 N.am      6 UNK        -0.5000 
     45 C          -0.7470  -16.9493  -46.2359 C.2       5 UNK         0.5000 
     46 O          -0.0877  -17.9852  -46.1568 O.2       5 UNK        -0.5000 
     47 CA         -0.0139  -15.5955  -46.2456 C.3       5 UNK         0.1400 
     48 CB          0.2995  -15.1694  -47.6868 C.3       5 UNK        -0.1800 
     49 N          -0.7203  -14.5088  -45.5522 N.am      5 UNK        -0.5000 
     50 C          -1.2288  -14.5506  -44.3110 C.2       4 UNK         0.5000 
     51 O          -1.2162  -15.5547  -43.5939 O.2       4 UNK        -0.5000 
     52 CA         -1.8261  -13.2412  -43.7704 C.3       4 UNK         0.1400 
     53 CB         -2.9407  -13.4995  -42.7413 C.3       4 UNK        -0.1800 
     54 N          -0.7758  -12.4457  -43.1408 N.am      4 UNK        -0.5000 
     55 C           0.1174  -11.6979  -43.8000 C.2       3 UNK         0.5000 
     56 O           0.0822  -11.5257  -45.0209 O.2       3 UNK        -0.5000 
     57 CA          1.2113  -10.9959  -42.9634 C.3       3 UNK         0.1400 
     58 CB          1.4066  -11.5899  -41.5488 C.3       3 UNK        -0.1800 
     59 N           2.4890  -10.9234  -43.6806 N.am      3 UNK        -0.5000 
     60 C           3.2433  -11.9538  -44.0884 C.2       2 UNK         0.5000 
     61 O           2.9993  -13.1365  -43.8386 O.2       2 UNK        -0.5000 
     62 CA          4.5119  -11.5821  -44.8807 C.3       2 UNK         0.1400 
     63 CB          5.6683  -11.2531  -43.9236 C.3       2 UNK        -0.1800 
     64 N           4.9443  -12.6485  -45.7831 N.am      2 UNK        -0.5000 
     65 C           4.2647  -13.0932  -46.8473 C.2       1 UNK         0.5000 
     66 O           3.1967  -12.6021  -47.2158 O.2       1 UNK        -0.5000 
     67 C          -2.2685  -20.4046  -48.9074 C.2       11 UNK         0.5000 
     68 O          -2.7813  -19.6119  -49.6990 O.2       11 UNK        -0.5000 
     69 N          -2.9640  -21.2386  -48.1350 N.am      12 UNK        -0.5000 
     70 CA         -4.3918  -21.5209  -48.1502 C.3       12 UNK         0.1400 
     71 CB         -5.2366  -20.3355  -47.6535 C.3       12 UNK        -0.1800 
     72 C          -4.6087  -22.7569  -47.2719 C.2       12 UNK         0.5000 
     73 O          -5.2486  -23.7063  -47.7181 O.2       12 UNK        -0.5000 
     74 N          -4.0252  -22.7366  -46.0622 N.am      13 UNK        -0.5000 
     75 CA         -4.1007  -23.8055  -45.0654 C.3       13 UNK         0.1400 
     76 CB         -3.4369  -23.3286  -43.7633 C.3       13 UNK        -0.1800 
     77 C          -3.4916  -25.1394  -45.5388 C.2       13 UNK         0.5000 
     78 O          -4.1791  -26.1608  -45.5186 O.2       13 UNK        -0.5000 
     79 N          -2.2251  -25.1067  -45.9762 N.am      14 UNK        -0.5000 
     80 CA         -1.5118  -26.2723  -46.5104 C.3       14 UNK         0.1400 
     81 CB         -0.0025  -26.1022  -46.2815 C.3       14 UNK        -0.1800 
     82 C          -1.8062  -26.4858  -48.0048 C.2       14 UNK         0.5000 
     83 O          -1.7184  -27.6126  -48.4923 O.2       14 UNK        -0.5000 
     84 N          -2.1728  -25.3994  -48.6962 N.am      15 UNK        -0.5000 
     85 CA         -2.5555  -25.3726  -50.1078 C.3       15 UNK         0.1400 
     86 CB         -2.4135  -23.9287  -50.6046 C.3       15 UNK        -0.1800 
     87 C          -3.9784  -25.9090  -50.3802 C.2       15 UNK         0.5000 
     88 O          -4.3788  -25.9814  -51.5452 O.2       15 UNK        -0.5000 
     89 N          -4.7229  -26.2351  -49.3105 N.am      16 UNK        -0.5000 
     90 CA         -6.0839  -26.7870  -49.2759 C.3       16 UNK         0.1400 
     91 CB         -6.0860  -28.2220  -49.8417 C.3       16 UNK        -0.1800 
     92 C          -7.1389  -25.8863  -49.9534 C.2       16 UNK         0.5000 
     93 O          -8.1486  -26.3888  -50.4495 O.2       16 UNK        -0.5000 
     94 N          -6.8572  -24.5753  -49.9980 N.am      17 UNK        -0.5000 
     95 CA         -7.5600  -23.5252  -50.7448 C.3       17 UNK         0.1400 
     96 CB         -8.9522  -23.2691  -50.1331 C.3       17 UNK        -0.1800 
     97 C          -7.6218  -23.7753  -52.2732 C.2       17 UNK         0.5000 
     98 O          -8.4651  -23.1823  -52.9486 O.2       17 UNK        -0.5000 
     99 N          -6.7541  -24.6580  -52.7897 N.am      18 UNK        -0.5000 
    100 CA        -6.7798  -25.1615  -54.1603 C.3       18 UNK         0.1400 
    101 CB        -6.9134  -26.6931  -54.1283 C.3       18 UNK        -0.1800 
    102 C         -5.5208  -24.7396  -54.9265 C.2       18 UNK         0.5000 
    103 O         -5.6383  -24.1810  -56.0179 O.2       18 UNK        -0.5000 
    104 N         -4.3391  -24.9977  -54.3468 N.am      19 UNK        -0.5000 
    105 CA        -3.0477  -24.6275  -54.9385 C.3       19 UNK         0.1400 
    106 CB        -1.9404  -25.4983  -54.3243 C.3       19 UNK        -0.1800 
    107 C         -2.7299  -23.1265  -54.7805 C.2       19 UNK         0.5000 
    108 O         -1.9532  -22.5780  -55.5626 O.2       19 UNK        -0.5000 
    109 N         -3.3541  -22.4979  -53.7819 N.am      20 UNK        -0.5000 
    110 CA        -3.3008  -21.0891  -53.4245 C.3       20 UNK         0.1400 
    111 CB        -1.9331  -20.7289  -52.8131 C.3       20 UNK        -0.1800 
    112 C         -4.4338  -20.8530  -52.4167 C.2       20 UNK         0.5000 
    113 O         -4.8877  -21.8069  -51.7785 O.2       20 UNK        -0.5000 
    114 N         -4.8635  -19.5973  -52.2855 N.am      21 UNK        -0.5000 
    115 CA        -5.8750  -19.1538  -51.3279 C.3       21 UNK         0.1400 
    116 CB        -7.2895  -19.4154  -51.8816 C.3       21 UNK        -0.1800 
    117 C         -5.6096  -17.6786  -50.9865 C.2       21 UNK         0.5000 
    118 O         -6.5149  -16.8441  -51.0487 O.2       21 UNK        -0.5000 
    119 N         -4.3423  -17.3751  -50.6889 N.am      22 UNK        -0.5000 
    120 CA        -3.7944  -16.0195  -50.5261 C.3       22 UNK         0.1400 
    121 C         -4.1130  -15.4020  -49.1352 C.2       22 UNK         0.5000 
    122 N         -5.3856  -15.2934  -48.7798 N.am      22 UNK        -0.7600 
    123 O         -3.2271  -15.0202  -48.3762 O.2       22 UNK        -0.5000 
    124 C124       -2.2927  -15.9743  -50.9137 C.3       23 UNK        -0.0398 
    125 S125       -2.0658  -16.4247  -52.6717 S.3       23 UNK        -0.2404 
    126 C126       -0.5582  -15.4969  -53.1257 C.3       23 UNK        -0.0205 
    127 H127        8.6034  -13.4029  -48.9394 H         1 UNK         0.0600 
    128 H128        9.3982  -14.5050  -47.8114 H         1 UNK         0.0600 
    129 H129        9.1531  -12.8120  -47.3685 H         1 UNK         0.0600 
    130 H130        6.3899  -13.6590  -48.9944 H         1 UNK         0.3000 
    131 H131        4.9471  -15.0955  -46.9267 H         1 UNK         0.0600 
    132 H132        4.4676  -15.7116  -49.1714 H         1 UNK         0.0800 
    133 H133        3.0414  -14.9742  -48.5255 H         1 UNK         0.0800 
    134 H134        5.1505  -15.2916  -51.5482 H         1 UNK         0.0800 
    135 H135        4.3395  -14.1377  -52.5742 H         1 UNK         0.0800 
    136 H136        1.7386  -14.1472  -52.6164 H         1 UNK         0.1150 
    137 H137        0.0702  -18.0920  -52.3876 H         1 UNK         0.1150 
    138 H138        4.0724  -17.3888  -51.0610 H         1 UNK         0.1150 
    139 H139        1.5371  -19.9748  -51.8674 H         1 UNK         0.0800 
    140 H140        3.2082  -19.6984  -51.4466 H         1 UNK         0.0800 
    141 H141       -0.3628  -19.2321  -50.4862 H         1 UNK         0.0800 
    142 H142       -0.2186  -18.3720  -48.9751 H         1 UNK         0.0800 
    143 H143       -0.4391  -21.4071  -49.2639 H         1 UNK         0.0600 
    144 H144        0.0469  -19.7591  -46.9284 H         1 UNK         0.3000 
    145 H145       -0.5882  -21.3910  -44.5124 H         1 UNK         0.0600 
    146 H146        1.3203  -22.8248  -43.6959 H         1 UNK         0.0600 
    147 H147        0.0956  -23.7082  -44.5848 H         1 UNK         0.0600 
    148 H148        1.6243  -23.3153  -45.3632 H         1 UNK         0.0600 
    149 H149        0.8610  -19.7599  -44.3995 H         1 UNK         0.3000 
    150 H150        4.0790  -19.2453  -44.8257 H         1 UNK         0.0600 
    151 H151        3.9417  -18.6981  -47.2384 H         1 UNK         0.0600 
    152 H152        3.8793  -17.2296  -46.2777 H         1 UNK         0.0600 
    153 H153        2.4083  -17.8736  -47.0008 H         1 UNK         0.0600 
    154 H154        1.4434  -17.8354  -44.6337 H         1 UNK         0.3000 
    155 H155        1.7930  -17.5674  -41.0928 H         1 UNK         0.0600 
    156 H156        2.7600  -15.4477  -41.9599 H         1 UNK         0.0600 
    157 H157        1.0533  -15.2463  -41.5926 H         1 UNK         0.0600 
    158 H158        1.5830  -15.4179  -43.2640 H         1 UNK         0.0600 
    159 H159       -0.3603  -16.9195  -42.8291 H         1 UNK         0.3000 
    160 H160       -1.9839  -20.1276  -42.6164 H         1 UNK         0.0600 
    161 H161       -2.5517  -17.4653  -41.2069 H         1 UNK         0.0600 
    162 H162       -2.4138  -19.0350  -40.4204 H         1 UNK         0.0600 
    163 H163       -3.7320  -18.7310  -41.5419 H         1 UNK         0.0600 
    164 H164       -2.0406  -17.3515  -43.7543 H         1 UNK         0.3000 
    165 H165       -3.0194  -18.6074  -46.9234 H         1 UNK         0.0600 
    166 H166       -4.8160  -17.0077  -46.7389 H         1 UNK         0.0600 
    167 H167       -5.1385  -18.1779  -45.4784 H         1 UNK         0.0600 
    168 H168       -4.4272  -16.6312  -45.0613 H         1 UNK         0.0600 
    169 H169       -2.5085  -15.9942  -46.3704 H         1 UNK         0.3000 
    170 H170        0.9341  -15.7392  -45.7241 H         1 UNK         0.0600 
    171 H171        0.8465  -15.9502  -48.2177 H         1 UNK         0.0600 
    172 H172       -0.6074  -14.9653  -48.2548 H         1 UNK         0.0600 
    173 H173        0.9113  -14.2675  -47.7056 H         1 UNK         0.0600 
    174 H174       -0.7385  -13.6199  -46.0340 H         1 UNK         0.3000 
    175 H175       -2.2608  -12.6849  -44.6037 H         1 UNK         0.0600 
    176 H176       -3.7325  -14.1144  -43.1712 H         1 UNK         0.0600 
    177 H177       -2.5672  -14.0173  -41.8568 H         1 UNK         0.0600 
    178 H178       -3.3969  -12.5653  -42.4133 H         1 UNK         0.0600 
    179 H179       -0.6684  -12.5573  -42.1433 H         1 UNK         0.3000 
    180 H180        0.8769   -9.9649  -42.8410 H         1 UNK         0.0600 
    181 H181        1.6404  -12.6546  -41.5795 H         1 UNK         0.0600 
    182 H182        0.5130  -11.4625  -40.9371 H         1 UNK         0.0600 
    183 H183        2.2209  -11.0891  -41.0249 H         1 UNK         0.0600 
    184 H184        2.7707   -9.9926  -43.9545 H         1 UNK         0.3000 
    185 H185        4.2960  -10.6996  -45.4865 H         1 UNK         0.0600 
    186 H186        5.4023  -10.4368  -43.2508 H         1 UNK         0.0600 
    187 H187        5.9347  -12.1128  -43.3072 H         1 UNK         0.0600 
    188 H188        6.5589  -10.9443  -44.4714 H         1 UNK         0.0600 
    189 H189        5.8083  -13.1258  -45.5489 H         1 UNK         0.3000 
    190 H190       -2.4124  -21.8543  -47.5443 H         1 UNK         0.3000 
    191 H191       -4.6862  -21.7604  -49.1721 H         1 UNK         0.0600 
    192 H192       -5.1002  -20.1701  -46.5864 H         1 UNK         0.0600 
    193 H193       -6.2975  -20.5286  -47.8154 H         1 UNK         0.0600 
    194 H194       -4.9930  -19.4094  -48.1724 H         1 UNK         0.0600 
    195 H195       -3.5639  -21.8831  -45.7607 H         1 UNK         0.3000 
    196 H196       -5.1578  -23.9839  -44.8576 H         1 UNK         0.0600 
    197 H197       -3.4837  -24.1001  -42.9937 H         1 UNK         0.0600 
    198 H198       -3.9376  -22.4445  -43.3680 H         1 UNK         0.0600 
    199 H199       -2.3871  -23.0753  -43.9125 H         1 UNK         0.0600 
    200 H200       -1.7389  -24.2175  -46.0339 H         1 UNK         0.3000 
    201 H201       -1.8325  -27.1699  -45.9772 H         1 UNK         0.0600 
    202 H202        0.2282  -26.0269  -45.2191 H         1 UNK         0.0600 
    203 H203        0.3847  -25.2117  -46.7777 H         1 UNK         0.0600 
    204 H204        0.5498  -26.9587  -46.6701 H         1 UNK         0.0600 
    205 H205       -2.1827  -24.5166  -48.2068 H         1 UNK         0.3000 
    206 H206       -1.8592  -25.9993  -50.6684 H         1 UNK         0.0600 
    207 H207       -1.4121  -23.5390  -50.4214 H         1 UNK         0.0600 
    208 H208       -2.5912  -23.8688  -51.6743 H         1 UNK         0.0600 
    209 H209       -3.1299  -23.2664  -50.1229 H         1 UNK         0.0600 
    210 H210       -4.3145  -26.0616  -48.4028 H         1 UNK         0.3000 
    211 H211       -6.3632  -26.8414  -48.2228 H         1 UNK         0.0600 
    212 H212       -5.8776  -28.2332  -50.9121 H         1 UNK         0.0600 
    213 H213       -7.0530  -28.7032  -49.6912 H         1 UNK         0.0600 
    214 H214       -5.3373  -28.8413  -49.3477 H         1 UNK         0.0600 
    215 H215       -6.0424  -24.2695  -49.4759 H         1 UNK         0.3000 
    216 H216       -6.9791  -22.6150  -50.6027 H         1 UNK         0.0600 
    217 H217       -9.4187  -22.3884  -50.5759 H         1 UNK         0.0600 
    218 H218       -8.8837  -23.0920  -49.0598 H         1 UNK         0.0600 
    219 H219       -9.6257  -24.1115  -50.2929 H         1 UNK         0.0600 
    220 H220       -6.0673  -25.0775  -52.1722 H         1 UNK         0.3000 
    221 H221       -7.6416  -24.7642  -54.7005 H         1 UNK         0.0600 
    222 H222       -6.0928  -27.1624  -53.5840 H         1 UNK         0.0600 
    223 H223       -7.8438  -26.9933  -53.6455 H         1 UNK         0.0600 
    224 H224       -6.9209  -27.1073  -55.1372 H         1 UNK         0.0600 
    225 H225       -4.3178  -25.4559  -53.4405 H         1 UNK         0.3000 
    226 H226       -3.0801  -24.8402  -56.0093 H         1 UNK         0.0600 
    227 H227       -2.1181  -26.5552  -54.5237 H         1 UNK         0.0600 
    228 H228       -0.9667  -25.2480  -54.7474 H         1 UNK         0.0600 
    229 H229       -1.8709  -25.3720  -53.2451 H         1 UNK         0.0600 
    230 H230       -4.0029  -23.0210  -53.2058 H         1 UNK         0.3000 
    231 H231       -3.4841  -20.4873  -54.3167 H         1 UNK         0.0600 
    232 H232       -1.1233  -20.8742  -53.5277 H         1 UNK         0.0600 
    233 H233       -1.7155  -21.3336  -51.9327 H         1 UNK         0.0600 
    234 H234       -1.9077  -19.6830  -52.5061 H         1 UNK         0.0600 
    235 H235       -4.4219  -18.8613  -52.8201 H         1 UNK         0.3000 
    236 H236       -5.7603  -19.7174  -50.4016 H         1 UNK         0.0600 
    237 H237       -8.0529  -19.1051  -51.1673 H         1 UNK         0.0600 
    238 H238       -7.4625  -18.8701  -52.8098 H         1 UNK         0.0600 
    239 H239       -7.4480  -20.4749  -52.0824 H         1 UNK         0.0600 
    240 H240       -3.6850  -18.1401  -50.5581 H         1 UNK         0.3000 
    241 H241       -4.3065  -15.3676  -51.2369 H         1 UNK         0.0600 
    242 H242       -5.6298  -14.8855  -47.8922 H         1 UNK         0.3800 
    243 H243       -6.1066  -15.6316  -49.4061 H         1 UNK         0.3800 
    244 H244       -1.8869  -14.9744  -50.7518 H         1 UNK         0.0800 
    245 H245       -1.7092  -16.6526  -50.2892 H         1 UNK         0.0800 
    246 H246       -0.4672  -15.5053  -54.2124 H         1 UNK         0.0800 
    247 H247       -0.6874  -14.4528  -52.8364 H         1 UNK         0.0800 
@<TRIPOS>BOND
     1    1    2 1    
     2    1  127 1    
     3    1  128 1    
     4    1  129 1    
     5    2    3 2    
     6    2    4 am   BACKBONE|DICT|INTERRES
     7    4    5 1    
     8    4  130 1    
     9    5    6 1    
    10    5   65 1    
    11    5  131 1    
    12    6    7 1    
    13    6  132 1    
    14    6  133 1    
    15    7    8 1    
    16    8    9 1    
    17    8  134 1    
    18    8  135 1    
    19    9   10 ar   
    20    9   14 ar   
    21   10   11 ar   
    22   10  136 1    
    23   11   12 ar   
    24   11  126 1    
    25   12   13 ar   
    26   12  137 1    
    27   13   14 ar   
    28   13   15 1    
    29   14  138 1    
    30   15   16 1    
    31   15  139 1    
    32   15  140 1    
    33   16   17 1    
    34   17   18 1    
    35   17  141 1    
    36   17  142 1    
    37   18   19 1    
    38   18   67 1    
    39   18  143 1    
    40   19   20 am   BACKBONE|DICT|INTERRES
    41   19  144 1    
    42   20   21 2    
    43   20   22 1    
    44   22   23 1    
    45   22   24 1    
    46   22  145 1    
    47   23  146 1    
    48   23  147 1    
    49   23  148 1    
    50   24   25 am   BACKBONE|DICT|INTERRES
    51   24  149 1    
    52   25   26 2    
    53   25   27 1    
    54   27   28 1    
    55   27   29 1    
    56   27  150 1    
    57   28  151 1    
    58   28  152 1    
    59   28  153 1    
    60   29   30 am   BACKBONE|DICT|INTERRES
    61   29  154 1    
    62   30   31 2    
    63   30   32 1    
    64   32   33 1    
    65   32   34 1    
    66   32  155 1    
    67   33  156 1    
    68   33  157 1    
    69   33  158 1    
    70   34   35 am   BACKBONE|DICT|INTERRES
    71   34  159 1    
    72   35   36 2    
    73   35   37 1    
    74   37   38 1    
    75   37   39 1    
    76   37  160 1    
    77   38  161 1    
    78   38  162 1    
    79   38  163 1    
    80   39   40 am   BACKBONE|DICT|INTERRES
    81   39  164 1    
    82   40   41 2    
    83   40   42 1    
    84   42   43 1    
    85   42   44 1    
    86   42  165 1    
    87   43  166 1    
    88   43  167 1    
    89   43  168 1    
    90   44   45 am   BACKBONE|DICT|INTERRES
    91   44  169 1    
    92   45   46 2    
    93   45   47 1    
    94   47   48 1    
    95   47   49 1    
    96   47  170 1    
    97   48  171 1    
    98   48  172 1    
    99   48  173 1    
   100   49   50 am   BACKBONE|DICT|INTERRES
   101   49  174 1    
   102   50   51 2    
   103   50   52 1    
   104   52   53 1    
   105   52   54 1    
   106   52  175 1    
   107   53  176 1    
   108   53  177 1    
   109   53  178 1    
   110   54   55 am   BACKBONE|DICT|INTERRES
   111   54  179 1    
   112   55   56 2    
   113   55   57 1    
   114   57   58 1    
   115   57   59 1    
   116   57  180 1    
   117   58  181 1    
   118   58  182 1    
   119   58  183 1    
   120   59   60 am   BACKBONE|DICT|INTERRES
   121   59  184 1    
   122   60   61 2    
   123   60   62 1    
   124   62   63 1    
   125   62   64 1    
   126   62  185 1    
   127   63  186 1    
   128   63  187 1    
   129   63  188 1    
   130   64   65 am   BACKBONE|DICT|INTERRES
   131   64  189 1    
   132   65   66 2    
   133   67   68 2    
   134   67   69 am   BACKBONE|DICT|INTERRES
   135   69   70 1    
   136   69  190 1    
   137   70   71 1    
   138   70   72 1    
   139   70  191 1    
   140   71  192 1    
   141   71  193 1    
   142   71  194 1    
   143   72   73 2    
   144   72   74 am   BACKBONE|DICT|INTERRES
   145   74   75 1    
   146   74  195 1    
   147   75   76 1    
   148   75   77 1    
   149   75  196 1    
   150   76  197 1    
   151   76  198 1    
   152   76  199 1    
   153   77   78 2    
   154   77   79 am   BACKBONE|DICT|INTERRES
   155   79   80 1    
   156   79  200 1    
   157   80   81 1    
   158   80   82 1    
   159   80  201 1    
   160   81  202 1    
   161   81  203 1    
   162   81  204 1    
   163   82   83 2    
   164   82   84 am   BACKBONE|DICT|INTERRES
   165   84   85 1    
   166   84  205 1    
   167   85   86 1    
   168   85   87 1    
   169   85  206 1    
   170   86  207 1    
   171   86  208 1    
   172   86  209 1    
   173   87   88 2    
   174   87   89 am   BACKBONE|DICT|INTERRES
   175   89   90 1    
   176   89  210 1    
   177   90   91 1    
   178   90   92 1    
   179   90  211 1    
   180   91  212 1    
   181   91  213 1    
   182   91  214 1    
   183   92   93 2    
   184   92   94 am   BACKBONE|DICT|INTERRES
   185   94   95 1    
   186   94  215 1    
   187   95   96 1    
   188   95   97 1    
   189   95  216 1    
   190   96  217 1    
   191   96  218 1    
   192   96  219 1    
   193   97   98 2    
   194   97   99 am   BACKBONE|DICT|INTERRES
   195   99  100 1    
   196   99  220 1    
   197  100  101 1    
   198  100  102 1    
   199  100  221 1    
   200  101  222 1    
   201  101  223 1    
   202  101  224 1    
   203  102  103 2    
   204  102  104 am   BACKBONE|DICT|INTERRES
   205  104  105 1    
   206  104  225 1    
   207  105  106 1    
   208  105  107 1    
   209  105  226 1    
   210  106  227 1    
   211  106  228 1    
   212  106  229 1    
   213  107  108 2    
   214  107  109 am   BACKBONE|DICT|INTERRES
   215  109  110 1    
   216  109  230 1    
   217  110  111 1    
   218  110  112 1    
   219  110  231 1    
   220  111  232 1    
   221  111  233 1    
   222  111  234 1    
   223  112  113 2    
   224  112  114 am   BACKBONE|DICT|INTERRES
   225  114  115 1    
   226  114  235 1    
   227  115  116 1    
   228  115  117 1    
   229  115  236 1    
   230  116  237 1    
   231  116  238 1    
   232  116  239 1    
   233  117  118 2    
   234  117  119 am   BACKBONE|DICT|INTERRES
   235  119  120 1    
   236  119  240 1    
   237  120  121 1    
   238  120  124 1    
   239  120  241 1    
   240  121  122 am   BACKBONE|DICT|INTERRES
   241  121  123 2    
   242  122  242 1    
   243  122  243 1    
   244  124  125 1    
   245  124  244 1    
   246  124  245 1    
   247  125  126 1    
   248  126  246 1    
   249  126  247 1    
@<TRIPOS>SUBSTRUCTURE
     1 UNK         1 GROUP             0       ****    0 ROOT    
