@<TRIPOS>MOLECULE
3R540
247   249    1
SMALL
USER_CHARGES


@<TRIPOS>ATOM
      1 CA          1.2764  -10.1672  -50.9983 C.3       0 UNK        -0.1800 
      2 C           0.8342  -11.0786  -49.8617 C.2       0 UNK         0.5000 
      3 O           1.2179  -10.8553  -48.7131 O.2       0 UNK        -0.5000 
      4 N           0.0389  -12.1066  -50.1793 N.am      1 UNK        -0.5000 
      5 CA         -0.5224  -13.0634  -49.2207 C.3       1 UNK         0.1400 
      6 C6         -1.1597  -14.2854  -49.9259 C.3       23 UNK        -0.0398 
      7 S7          0.0022  -15.2149  -50.9789 S.3       23 UNK        -0.2404 
      8 C8          0.7740  -16.3149  -49.7477 C.3       23 UNK        -0.0205 
      9 C9          1.4751  -17.5184  -50.3713 C.ar      23 UNK        -0.0193 
     10 C10         2.3174  -17.3715  -51.4776 C.ar      23 UNK        -0.1150 
     11 C11         2.9481  -18.4815  -52.0454 C.ar      23 UNK        -0.0193 
     12 C12         2.7753  -19.7420  -51.4659 C.ar      23 UNK        -0.1150 
     13 C13         1.9328  -19.9091  -50.3647 C.ar      23 UNK        -0.0193 
     14 C14         1.2831  -18.7933  -49.8295 C.ar      23 UNK        -0.1150 
     15 C15         1.6875  -21.3023  -49.7995 C.3       23 UNK        -0.0205 
     16 S16         2.5495  -21.5848  -48.2181 S.3       23 UNK        -0.2404 
     17 C17         1.2370  -21.1773  -47.0209 C.3       23 UNK        -0.0398 
     18 CA          0.5364  -22.4356  -46.4579 C.3       11 UNK         0.1400 
     19 N           1.4157  -23.2651  -45.6336 N.am      11 UNK        -0.5000 
     20 C           1.1635  -24.5419  -45.3118 C.2       10 UNK         0.5000 
     21 O           0.2060  -25.1824  -45.7453 O.2       10 UNK        -0.5000 
     22 CA          2.1280  -25.2054  -44.3108 C.3       10 UNK         0.1400 
     23 CB          3.3229  -25.8296  -45.0468 C.3       10 UNK        -0.1800 
     24 N           2.6217  -24.2733  -43.2951 N.am      10 UNK        -0.5000 
     25 C           1.8596  -23.6933  -42.3563 C.2       9 UNK         0.5000 
     26 O           0.6564  -23.9107  -42.2208 O.2       9 UNK        -0.5000 
     27 CA          2.5515  -22.6499  -41.4582 C.3       9 UNK         0.1400 
     28 CB          3.2244  -23.3305  -40.2572 C.3       9 UNK        -0.1800 
     29 N           3.5402  -21.8425  -42.1803 N.am      9 UNK        -0.5000 
     30 C           3.2478  -21.0298  -43.2033 C.2       8 UNK         0.5000 
     31 O           2.1046  -20.8587  -43.6381 O.2       8 UNK        -0.5000 
     32 CA          4.4299  -20.3457  -43.8979 C.3       8 UNK         0.1400 
     33 CB          5.1283  -21.3374  -44.8500 C.3       8 UNK        -0.1800 
     34 N           3.9120  -19.2047  -44.6425 N.am      8 UNK        -0.5000 
     35 C           4.6306  -18.2363  -45.2191 C.2       7 UNK         0.5000 
     36 O           5.8592  -18.1673  -45.1682 O.2       7 UNK        -0.5000 
     37 CA          3.8392  -17.1607  -45.9853 C.3       7 UNK         0.1400 
     38 CB          3.6353  -17.5969  -47.4425 C.3       7 UNK        -0.1800 
     39 N           2.5367  -16.8596  -45.3823 N.am      7 UNK        -0.5000 
     40 C           2.3730  -16.1786  -44.2397 C.2       6 UNK         0.5000 
     41 O           3.3172  -15.7386  -43.5820 O.2       6 UNK        -0.5000 
     42 CA          0.9360  -15.9678  -43.7124 C.3       6 UNK         0.1400 
     43 CB          0.6555  -14.4854  -43.3938 C.3       6 UNK        -0.1800 
     44 N          -0.1395  -16.5404  -44.5336 N.am      6 UNK        -0.5000 
     45 C          -0.5615  -16.1764  -45.7514 C.2       5 UNK         0.5000 
     46 O          -0.0605  -15.2752  -46.4241 O.2       5 UNK        -0.5000 
     47 CA         -1.7673  -16.9509  -46.3111 C.3       5 UNK         0.1400 
     48 CB         -1.4280  -18.4316  -46.5545 C.3       5 UNK        -0.1800 
     49 N          -2.9851  -16.7887  -45.5108 N.am      5 UNK        -0.5000 
     50 C          -3.2471  -17.2176  -44.2662 C.2       4 UNK         0.5000 
     51 O          -2.4534  -17.8815  -43.5994 O.2       4 UNK        -0.5000 
     52 CA         -4.6061  -16.8141  -43.6524 C.3       4 UNK         0.1400 
     53 CB         -4.4963  -16.5778  -42.1358 C.3       4 UNK        -0.1800 
     54 N          -5.1396  -15.6012  -44.2747 N.am      4 UNK        -0.5000 
     55 C          -6.0400  -15.5543  -45.2660 C.2       3 UNK         0.5000 
     56 O          -6.6058  -16.5438  -45.7291 O.2       3 UNK        -0.5000 
     57 CA         -6.3023  -14.1614  -45.8792 C.3       3 UNK         0.1400 
     58 CB         -7.4758  -13.4713  -45.1679 C.3       3 UNK        -0.1800 
     59 N          -5.1238  -13.2840  -45.8346 N.am      3 UNK        -0.5000 
     60 C          -3.9754  -13.5352  -46.4781 C.2       2 UNK         0.5000 
     61 O          -3.8225  -14.5032  -47.2280 O.2       2 UNK        -0.5000 
     62 CA         -2.7882  -12.6023  -46.1674 C.3       2 UNK         0.1400 
     63 CB         -2.3088  -12.8131  -44.7220 C.3       2 UNK        -0.1800 
     64 N          -1.6720  -12.8791  -47.0711 N.am      2 UNK        -0.5000 
     65 C          -1.5799  -12.3996  -48.3156 C.2       1 UNK         0.5000 
     66 O          -2.3232  -11.5259  -48.7718 O.2       1 UNK        -0.5000 
     67 C          -0.7270  -22.0442  -45.6722 C.2       11 UNK         0.5000 
     68 O          -1.8248  -22.1615  -46.2105 O.2       11 UNK        -0.5000 
     69 N          -0.5558  -21.6127  -44.4135 N.am      12 UNK        -0.5000 
     70 CA         -1.6375  -21.2039  -43.5130 C.3       12 UNK         0.1400 
     71 CB         -1.0400  -20.6311  -42.2204 C.3       12 UNK        -0.1800 
     72 C          -2.6401  -22.3305  -43.2061 C.2       12 UNK         0.5000 
     73 O          -3.8427  -22.0759  -43.1408 O.2       12 UNK        -0.5000 
     74 N          -2.1350  -23.5650  -43.0843 N.am      13 UNK        -0.5000 
     75 CA         -2.9206  -24.7873  -42.9001 C.3       13 UNK         0.1400 
     76 CB         -1.9617  -25.9435  -42.5755 C.3       13 UNK        -0.1800 
     77 C          -3.8180  -25.1570  -44.1016 C.2       13 UNK         0.5000 
     78 O          -4.7296  -25.9688  -43.9364 O.2       13 UNK        -0.5000 
     79 N          -3.5531  -24.5714  -45.2760 N.am      14 UNK        -0.5000 
     80 CA         -4.2744  -24.8035  -46.5260 C.3       14 UNK         0.1400 
     81 CB         -3.3831  -25.6476  -47.4526 C.3       14 UNK        -0.1800 
     82 C          -4.7230  -23.4772  -47.1711 C.2       14 UNK         0.5000 
     83 O          -4.9349  -23.4227  -48.3846 O.2       14 UNK        -0.5000 
     84 N          -4.8567  -22.4188  -46.3610 N.am      15 UNK        -0.5000 
     85 CA         -5.3119  -21.1032  -46.8000 C.3       15 UNK         0.1400 
     86 CB         -4.9234  -20.0622  -45.7412 C.3       15 UNK        -0.1800 
     87 C          -6.8391  -21.0945  -47.0334 C.2       15 UNK         0.5000 
     88 O          -7.5547  -21.8185  -46.3401 O.2       15 UNK        -0.5000 
     89 N          -7.3710  -20.2836  -47.9586 N.am      16 UNK        -0.5000 
     90 CA         -6.6667  -19.3972  -48.8916 C.3       16 UNK         0.1400 
     91 CB         -7.5923  -18.2198  -49.2343 C.3       16 UNK        -0.1800 
     92 C          -6.2147  -20.1137  -50.1812 C.2       16 UNK         0.5000 
     93 O          -5.5345  -19.4940  -50.9970 O.2       16 UNK        -0.5000 
     94 N          -6.5936  -21.3883  -50.3551 N.am      17 UNK        -0.5000 
     95 CA         -6.3546  -22.1931  -51.5566 C.3       17 UNK         0.1400 
     96 CB         -6.9764  -23.5857  -51.3726 C.3       17 UNK        -0.1800 
     97 C          -4.8731  -22.3047  -51.9591 C.2       17 UNK         0.5000 
     98 O          -4.5504  -22.1004  -53.1286 O.2       17 UNK        -0.5000 
     99 N          -3.9950  -22.5819  -50.9854 N.am      18 UNK        -0.5000 
    100 CA        -2.5476  -22.6853  -51.1954 C.3       18 UNK         0.1400 
    101 CB        -1.8893  -23.2687  -49.9382 C.3       18 UNK        -0.1800 
    102 C         -1.8867  -21.3500  -51.5855 C.2       18 UNK         0.5000 
    103 O         -0.9171  -21.3534  -52.3433 O.2       18 UNK        -0.5000 
    104 N         -2.4357  -20.2378  -51.0799 N.am      19 UNK        -0.5000 
    105 CA        -2.0236  -18.8821  -51.4344 C.3       19 UNK         0.1400 
    106 CB        -2.5439  -17.8949  -50.3774 C.3       19 UNK        -0.1800 
    107 C         -2.4953  -18.5011  -52.8463 C.2       19 UNK         0.5000 
    108 O         -1.6955  -18.0171  -53.6467 O.2       19 UNK        -0.5000 
    109 N         -3.7754  -18.7707  -53.1381 N.am      20 UNK        -0.5000 
    110 CA        -4.4191  -18.5218  -54.4297 C.3       20 UNK         0.1400 
    111 CB        -5.9218  -18.8154  -54.3041 C.3       20 UNK        -0.1800 
    112 C         -3.8049  -19.3255  -55.5925 C.2       20 UNK         0.5000 
    113 O         -3.7807  -18.8350  -56.7217 O.2       20 UNK        -0.5000 
    114 N         -3.3109  -20.5347  -55.2959 N.am      21 UNK        -0.5000 
    115 CA        -2.6189  -21.4122  -56.2391 C.3       21 UNK         0.1400 
    116 CB        -2.5480  -22.8259  -55.6404 C.3       21 UNK        -0.1800 
    117 C         -1.2073  -20.9266  -56.6274 C.2       21 UNK         0.5000 
    118 O         -0.6993  -21.3527  -57.6662 O.2       21 UNK        -0.5000 
    119 N         -0.5866  -20.0782  -55.7964 N.am      22 UNK        -0.5000 
    120 CA         0.7541  -19.5216  -56.0303 C.3       22 UNK         0.1400 
    121 C          0.7794  -18.4127  -57.1219 C.2       22 UNK         0.5000 
    122 N          1.9365  -18.1484  -57.7133 N.am      22 UNK        -0.7600 
    123 O         -0.2243  -17.7709  -57.4239 O.2       22 UNK        -0.5000 
    124 C124        1.4106  -19.0505  -54.7049 C.3       23 UNK        -0.0398 
    125 S125        3.2087  -19.3849  -54.6741 S.3       23 UNK        -0.2404 
    126 C126        3.7828  -18.3185  -53.3084 C.3       23 UNK        -0.0205 
    127 H127        0.8726  -10.4907  -51.9581 H         1 UNK         0.0600 
    128 H128        2.3638  -10.1599  -51.0723 H         1 UNK         0.0600 
    129 H129        0.9390   -9.1473  -50.8140 H         1 UNK         0.0600 
    130 H130       -0.2468  -12.2354  -51.1390 H         1 UNK         0.3000 
    131 H131        0.2943  -13.4184  -48.5879 H         1 UNK         0.0600 
    132 H132       -1.5943  -14.9690  -49.1946 H         1 UNK         0.0800 
    133 H133       -1.9905  -13.9659  -50.5580 H         1 UNK         0.0800 
    134 H134        1.4935  -15.7363  -49.1687 H         1 UNK         0.0800 
    135 H135        0.0135  -16.6536  -49.0442 H         1 UNK         0.0800 
    136 H136        2.4616  -16.3927  -51.9126 H         1 UNK         0.1150 
    137 H137        3.2650  -20.6006  -51.9035 H         1 UNK         0.1150 
    138 H138        0.6174  -18.9185  -48.9939 H         1 UNK         0.1150 
    139 H139        0.6160  -21.4639  -49.6824 H         1 UNK         0.0800 
    140 H140        2.0227  -22.0580  -50.5114 H         1 UNK         0.0800 
    141 H141        0.5060  -20.5370  -47.5098 H         1 UNK         0.0800 
    142 H142        1.6741  -20.5792  -46.2215 H         1 UNK         0.0800 
    143 H143        0.2057  -23.0370  -47.3083 H         1 UNK         0.0600 
    144 H144        2.2083  -22.8046  -45.2134 H         1 UNK         0.3000 
    145 H145        1.5820  -26.0028  -43.8022 H         1 UNK         0.0600 
    146 H146        3.9748  -26.3661  -44.3571 H         1 UNK         0.0600 
    147 H147        2.9872  -26.5456  -45.7983 H         1 UNK         0.0600 
    148 H148        3.9218  -25.0743  -45.5575 H         1 UNK         0.0600 
    149 H149        3.6025  -24.0390  -43.3300 H         1 UNK         0.3000 
    150 H150        1.7816  -21.9755  -41.0790 H         1 UNK         0.0600 
    151 H151        4.0277  -23.9991  -40.5691 H         1 UNK         0.0600 
    152 H152        2.5044  -23.9236  -39.6916 H         1 UNK         0.0600 
    153 H153        3.6461  -22.5947  -39.5723 H         1 UNK         0.0600 
    154 H154        4.5012  -21.9352  -41.8837 H         1 UNK         0.3000 
    155 H155        5.1311  -19.9917  -43.1397 H         1 UNK         0.0600 
    156 H156        4.4552  -21.6800  -45.6369 H         1 UNK         0.0600 
    157 H157        5.4835  -22.2181  -44.3139 H         1 UNK         0.0600 
    158 H158        5.9969  -20.8876  -45.3305 H         1 UNK         0.0600 
    159 H159        2.9018  -19.1713  -44.6845 H         1 UNK         0.3000 
    160 H160        4.4384  -16.2476  -45.9864 H         1 UNK         0.0600 
    161 H161        2.9835  -18.4676  -47.5158 H         1 UNK         0.0600 
    162 H162        4.5842  -17.8598  -47.9121 H         1 UNK         0.0600 
    163 H163        3.1999  -16.7929  -48.0324 H         1 UNK         0.0600 
    164 H164        1.7138  -17.1610  -45.8798 H         1 UNK         0.3000 
    165 H165        0.8950  -16.5119  -42.7677 H         1 UNK         0.0600 
    166 H166        1.3911  -14.0868  -42.6942 H         1 UNK         0.0600 
    167 H167       -0.3229  -14.3627  -42.9302 H         1 UNK         0.0600 
    168 H168        0.6892  -13.8625  -44.2879 H         1 UNK         0.0600 
    169 H169       -0.6960  -17.2563  -44.0723 H         1 UNK         0.3000 
    170 H170       -1.9946  -16.5127  -47.2836 H         1 UNK         0.0600 
    171 H171       -0.5518  -18.5133  -47.1917 H         1 UNK         0.0600 
    172 H172       -1.2033  -18.9647  -45.6322 H         1 UNK         0.0600 
    173 H173       -2.2455  -18.9511  -47.0540 H         1 UNK         0.0600 
    174 H174       -3.6864  -16.2097  -45.9572 H         1 UNK         0.3000 
    175 H175       -5.2913  -17.6483  -43.8139 H         1 UNK         0.0600 
    176 H176       -5.4581  -16.2887  -41.7118 H         1 UNK         0.0600 
    177 H177       -4.1763  -17.4830  -41.6181 H         1 UNK         0.0600 
    178 H178       -3.7763  -15.7926  -41.9020 H         1 UNK         0.0600 
    179 H179       -4.7294  -14.7307  -43.9703 H         1 UNK         0.3000 
    180 H180       -6.5747  -14.3086  -46.9265 H         1 UNK         0.0600 
    181 H181       -7.2536  -13.2773  -44.1179 H         1 UNK         0.0600 
    182 H182       -8.3729  -14.0910  -45.2046 H         1 UNK         0.0600 
    183 H183       -7.7201  -12.5204  -45.6416 H         1 UNK         0.0600 
    184 H184       -5.1886  -12.4715  -45.2379 H         1 UNK         0.3000 
    185 H185       -3.1120  -11.5662  -46.2867 H         1 UNK         0.0600 
    186 H186       -3.0691  -12.5055  -44.0035 H         1 UNK         0.0600 
    187 H187       -2.0770  -13.8598  -44.5249 H         1 UNK         0.0600 
    188 H188       -1.4143  -12.2260  -44.5128 H         1 UNK         0.0600 
    189 H189       -1.0495  -13.6328  -46.7943 H         1 UNK         0.3000 
    190 H190        0.3898  -21.5090  -44.0551 H         1 UNK         0.3000 
    191 H191       -2.1921  -20.4100  -44.0106 H         1 UNK         0.0600 
    192 H192       -0.3659  -19.8008  -42.4324 H         1 UNK         0.0600 
    193 H193       -1.8251  -20.2513  -41.5655 H         1 UNK         0.0600 
    194 H194       -0.4831  -21.3857  -41.6655 H         1 UNK         0.0600 
    195 H195       -1.1253  -23.6749  -43.0848 H         1 UNK         0.3000 
    196 H196       -3.5773  -24.6358  -42.0412 H         1 UNK         0.0600 
    197 H197       -2.5064  -26.8747  -42.4146 H         1 UNK         0.0600 
    198 H198       -1.3930  -25.7411  -41.6678 H         1 UNK         0.0600 
    199 H199       -1.2510  -26.1128  -43.3855 H         1 UNK         0.0600 
    200 H200       -2.8028  -23.8915  -45.3294 H         1 UNK         0.3000 
    201 H201       -5.1929  -25.3626  -46.3390 H         1 UNK         0.0600 
    202 H202       -3.8504  -25.8102  -48.4245 H         1 UNK         0.0600 
    203 H203       -2.4179  -25.1677  -47.6158 H         1 UNK         0.0600 
    204 H204       -3.1919  -26.6292  -47.0190 H         1 UNK         0.0600 
    205 H205       -4.6835  -22.5338  -45.3719 H         1 UNK         0.3000 
    206 H206       -4.7807  -20.8723  -47.7237 H         1 UNK         0.0600 
    207 H207       -3.8456  -20.0469  -45.5892 H         1 UNK         0.0600 
    208 H208       -5.2230  -19.0589  -46.0452 H         1 UNK         0.0600 
    209 H209       -5.3944  -20.2690  -44.7794 H         1 UNK         0.0600 
    210 H210       -8.3754  -20.2904  -48.0597 H         1 UNK         0.3000 
    211 H211       -5.7794  -18.9761  -48.4173 H         1 UNK         0.0600 
    212 H212       -8.5056  -18.5536  -49.7284 H         1 UNK         0.0600 
    213 H213       -7.0978  -17.5120  -49.9013 H         1 UNK         0.0600 
    214 H214       -7.8764  -17.6695  -48.3366 H         1 UNK         0.0600 
    215 H215       -7.1279  -21.8303  -49.6217 H         1 UNK         0.3000 
    216 H216       -6.8753  -21.7003  -52.3800 H         1 UNK         0.0600 
    217 H217       -6.8270  -24.2007  -52.2611 H         1 UNK         0.0600 
    218 H218       -8.0510  -23.5187  -51.2023 H         1 UNK         0.0600 
    219 H219       -6.5354  -24.1166  -50.5282 H         1 UNK         0.0600 
    220 H220       -4.3452  -22.7802  -50.0502 H         1 UNK         0.3000 
    221 H221       -2.3784  -23.3829  -52.0185 H         1 UNK         0.0600 
    222 H222       -2.0720  -22.6503  -49.0582 H         1 UNK         0.0600 
    223 H223       -2.2734  -24.2672  -49.7380 H         1 UNK         0.0600 
    224 H224       -0.8103  -23.3615  -50.0640 H         1 UNK         0.0600 
    225 H225       -3.2695  -20.3287  -50.5187 H         1 UNK         0.3000 
    226 H226       -0.9340  -18.8356  -51.4374 H         1 UNK         0.0600 
    227 H227       -2.3523  -16.8665  -50.6780 H         1 UNK         0.0600 
    228 H228       -3.6176  -17.9823  -50.2204 H         1 UNK         0.0600 
    229 H229       -2.0524  -18.0552  -49.4194 H         1 UNK         0.0600 
    230 H230       -4.3711  -19.1486  -52.4048 H         1 UNK         0.3000 
    231 H231       -4.2952  -17.4621  -54.6611 H         1 UNK         0.0600 
    232 H232       -6.1056  -19.8593  -54.0478 H         1 UNK         0.0600 
    233 H233       -6.4411  -18.6093  -55.2408 H         1 UNK         0.0600 
    234 H234       -6.3817  -18.1967  -53.5331 H         1 UNK         0.0600 
    235 H235       -3.4598  -20.9007  -54.3612 H         1 UNK         0.3000 
    236 H236       -3.2104  -21.4611  -57.1556 H         1 UNK         0.0600 
    237 H237       -2.0040  -22.8333  -54.6949 H         1 UNK         0.0600 
    238 H238       -3.5449  -23.2268  -55.4570 H         1 UNK         0.0600 
    239 H239       -2.0420  -23.5155  -56.3173 H         1 UNK         0.0600 
    240 H240       -1.0899  -19.7163  -54.9966 H         1 UNK         0.3000 
    241 H241        1.3489  -20.3502  -56.4209 H         1 UNK         0.0600 
    242 H242        2.7784  -18.6430  -57.4598 H         1 UNK         0.3800 
    243 H243        1.9767  -17.4276  -58.4172 H         1 UNK         0.3800 
    244 H244        0.9778  -19.5874  -53.8585 H         1 UNK         0.0800 
    245 H245        1.2175  -17.9934  -54.5111 H         1 UNK         0.0800 
    246 H246        3.7707  -17.2821  -53.6493 H         1 UNK         0.0800 
    247 H247        4.8225  -18.5577  -53.0821 H         1 UNK         0.0800 
@<TRIPOS>BOND
     1    1    2 1    
     2    1  127 1    
     3    1  128 1    
     4    1  129 1    
     5    2    3 2    
     6    2    4 am   BACKBONE|DICT|INTERRES
     7    4    5 1    
     8    4  130 1    
     9    5    6 1    
    10    5   65 1    
    11    5  131 1    
    12    6    7 1    
    13    6  132 1    
    14    6  133 1    
    15    7    8 1    
    16    8    9 1    
    17    8  134 1    
    18    8  135 1    
    19    9   10 ar   
    20    9   14 ar   
    21   10   11 ar   
    22   10  136 1    
    23   11   12 ar   
    24   11  126 1    
    25   12   13 ar   
    26   12  137 1    
    27   13   14 ar   
    28   13   15 1    
    29   14  138 1    
    30   15   16 1    
    31   15  139 1    
    32   15  140 1    
    33   16   17 1    
    34   17   18 1    
    35   17  141 1    
    36   17  142 1    
    37   18   19 1    
    38   18   67 1    
    39   18  143 1    
    40   19   20 am   BACKBONE|DICT|INTERRES
    41   19  144 1    
    42   20   21 2    
    43   20   22 1    
    44   22   23 1    
    45   22   24 1    
    46   22  145 1    
    47   23  146 1    
    48   23  147 1    
    49   23  148 1    
    50   24   25 am   BACKBONE|DICT|INTERRES
    51   24  149 1    
    52   25   26 2    
    53   25   27 1    
    54   27   28 1    
    55   27   29 1    
    56   27  150 1    
    57   28  151 1    
    58   28  152 1    
    59   28  153 1    
    60   29   30 am   BACKBONE|DICT|INTERRES
    61   29  154 1    
    62   30   31 2    
    63   30   32 1    
    64   32   33 1    
    65   32   34 1    
    66   32  155 1    
    67   33  156 1    
    68   33  157 1    
    69   33  158 1    
    70   34   35 am   BACKBONE|DICT|INTERRES
    71   34  159 1    
    72   35   36 2    
    73   35   37 1    
    74   37   38 1    
    75   37   39 1    
    76   37  160 1    
    77   38  161 1    
    78   38  162 1    
    79   38  163 1    
    80   39   40 am   BACKBONE|DICT|INTERRES
    81   39  164 1    
    82   40   41 2    
    83   40   42 1    
    84   42   43 1    
    85   42   44 1    
    86   42  165 1    
    87   43  166 1    
    88   43  167 1    
    89   43  168 1    
    90   44   45 am   BACKBONE|DICT|INTERRES
    91   44  169 1    
    92   45   46 2    
    93   45   47 1    
    94   47   48 1    
    95   47   49 1    
    96   47  170 1    
    97   48  171 1    
    98   48  172 1    
    99   48  173 1    
   100   49   50 am   BACKBONE|DICT|INTERRES
   101   49  174 1    
   102   50   51 2    
   103   50   52 1    
   104   52   53 1    
   105   52   54 1    
   106   52  175 1    
   107   53  176 1    
   108   53  177 1    
   109   53  178 1    
   110   54   55 am   BACKBONE|DICT|INTERRES
   111   54  179 1    
   112   55   56 2    
   113   55   57 1    
   114   57   58 1    
   115   57   59 1    
   116   57  180 1    
   117   58  181 1    
   118   58  182 1    
   119   58  183 1    
   120   59   60 am   BACKBONE|DICT|INTERRES
   121   59  184 1    
   122   60   61 2    
   123   60   62 1    
   124   62   63 1    
   125   62   64 1    
   126   62  185 1    
   127   63  186 1    
   128   63  187 1    
   129   63  188 1    
   130   64   65 am   BACKBONE|DICT|INTERRES
   131   64  189 1    
   132   65   66 2    
   133   67   68 2    
   134   67   69 am   BACKBONE|DICT|INTERRES
   135   69   70 1    
   136   69  190 1    
   137   70   71 1    
   138   70   72 1    
   139   70  191 1    
   140   71  192 1    
   141   71  193 1    
   142   71  194 1    
   143   72   73 2    
   144   72   74 am   BACKBONE|DICT|INTERRES
   145   74   75 1    
   146   74  195 1    
   147   75   76 1    
   148   75   77 1    
   149   75  196 1    
   150   76  197 1    
   151   76  198 1    
   152   76  199 1    
   153   77   78 2    
   154   77   79 am   BACKBONE|DICT|INTERRES
   155   79   80 1    
   156   79  200 1    
   157   80   81 1    
   158   80   82 1    
   159   80  201 1    
   160   81  202 1    
   161   81  203 1    
   162   81  204 1    
   163   82   83 2    
   164   82   84 am   BACKBONE|DICT|INTERRES
   165   84   85 1    
   166   84  205 1    
   167   85   86 1    
   168   85   87 1    
   169   85  206 1    
   170   86  207 1    
   171   86  208 1    
   172   86  209 1    
   173   87   88 2    
   174   87   89 am   BACKBONE|DICT|INTERRES
   175   89   90 1    
   176   89  210 1    
   177   90   91 1    
   178   90   92 1    
   179   90  211 1    
   180   91  212 1    
   181   91  213 1    
   182   91  214 1    
   183   92   93 2    
   184   92   94 am   BACKBONE|DICT|INTERRES
   185   94   95 1    
   186   94  215 1    
   187   95   96 1    
   188   95   97 1    
   189   95  216 1    
   190   96  217 1    
   191   96  218 1    
   192   96  219 1    
   193   97   98 2    
   194   97   99 am   BACKBONE|DICT|INTERRES
   195   99  100 1    
   196   99  220 1    
   197  100  101 1    
   198  100  102 1    
   199  100  221 1    
   200  101  222 1    
   201  101  223 1    
   202  101  224 1    
   203  102  103 2    
   204  102  104 am   BACKBONE|DICT|INTERRES
   205  104  105 1    
   206  104  225 1    
   207  105  106 1    
   208  105  107 1    
   209  105  226 1    
   210  106  227 1    
   211  106  228 1    
   212  106  229 1    
   213  107  108 2    
   214  107  109 am   BACKBONE|DICT|INTERRES
   215  109  110 1    
   216  109  230 1    
   217  110  111 1    
   218  110  112 1    
   219  110  231 1    
   220  111  232 1    
   221  111  233 1    
   222  111  234 1    
   223  112  113 2    
   224  112  114 am   BACKBONE|DICT|INTERRES
   225  114  115 1    
   226  114  235 1    
   227  115  116 1    
   228  115  117 1    
   229  115  236 1    
   230  116  237 1    
   231  116  238 1    
   232  116  239 1    
   233  117  118 2    
   234  117  119 am   BACKBONE|DICT|INTERRES
   235  119  120 1    
   236  119  240 1    
   237  120  121 1    
   238  120  124 1    
   239  120  241 1    
   240  121  122 am   BACKBONE|DICT|INTERRES
   241  121  123 2    
   242  122  242 1    
   243  122  243 1    
   244  124  125 1    
   245  124  244 1    
   246  124  245 1    
   247  125  126 1    
   248  126  246 1    
   249  126  247 1    
@<TRIPOS>SUBSTRUCTURE
     1 UNK         1 GROUP             0       ****    0 ROOT    
