@<TRIPOS>MOLECULE
3R540
247   249    1
SMALL
USER_CHARGES


@<TRIPOS>ATOM
      1 CA         -1.8249  -13.6244  -53.5926 C.3       0 UNK        -0.1800 
      2 C          -0.7743  -13.4523  -52.5053 C.2       0 UNK         0.5000 
      3 O           0.2037  -12.7344  -52.7163 O.2       0 UNK        -0.5000 
      4 N          -0.9731  -14.0978  -51.3480 N.am      1 UNK        -0.5000 
      5 CA         -0.0547  -14.0626  -50.2009 C.3       1 UNK         0.1400 
      6 C6         -0.4427  -15.0760  -49.0997 C.3       23 UNK        -0.0398 
      7 S7         -0.3217  -16.7982  -49.6639 S.3       23 UNK        -0.2404 
      8 C8          1.3371  -17.2525  -49.0598 C.3       23 UNK        -0.0205 
      9 C9          1.6705  -18.6910  -49.4202 C.ar      23 UNK        -0.0193 
     10 C10         1.6235  -19.0949  -50.7548 C.ar      23 UNK        -0.1150 
     11 C11         1.8544  -20.4231  -51.1106 C.ar      23 UNK        -0.0193 
     12 C12         2.1831  -21.3522  -50.1172 C.ar      23 UNK        -0.1150 
     13 C13         2.2735  -20.9532  -48.7775 C.ar      23 UNK        -0.0193 
     14 C14         2.0112  -19.6220  -48.4352 C.ar      23 UNK        -0.1150 
     15 C15         2.6623  -21.9522  -47.6976 C.3       23 UNK        -0.0205 
     16 S16         1.2019  -22.6148  -46.8454 S.3       23 UNK        -0.2404 
     17 C17         1.9812  -23.7735  -45.6735 C.3       23 UNK        -0.0398 
     18 CA          1.0762  -24.2433  -44.5068 C.3       11 UNK         0.1400 
     19 N           0.8929  -23.2043  -43.4843 N.am      11 UNK        -0.5000 
     20 C           0.6511  -23.4678  -42.1909 C.2       10 UNK         0.5000 
     21 O           0.5602  -24.6078  -41.7332 O.2       10 UNK        -0.5000 
     22 CA          0.4788  -22.2669  -41.2437 C.3       10 UNK         0.1400 
     23 CB          1.8358  -21.6344  -40.8979 C.3       10 UNK        -0.1800 
     24 N          -0.4209  -21.2498  -41.7833 N.am      10 UNK        -0.5000 
     25 C          -1.7503  -21.3913  -41.8821 C.2       9 UNK         0.5000 
     26 O          -2.3628  -22.3910  -41.5059 O.2       9 UNK        -0.5000 
     27 CA         -2.5306  -20.2245  -42.5171 C.3       9 UNK         0.1400 
     28 CB         -2.9090  -19.1830  -41.4534 C.3       9 UNK        -0.1800 
     29 N          -1.7948  -19.5655  -43.5946 N.am      9 UNK        -0.5000 
     30 C          -1.4596  -20.1490  -44.7532 C.2       8 UNK         0.5000 
     31 O          -1.7836  -21.2948  -45.0583 O.2       8 UNK        -0.5000 
     32 CA         -0.5738  -19.3245  -45.7026 C.3       8 UNK         0.1400 
     33 CB         -1.4185  -18.2930  -46.4646 C.3       8 UNK        -0.1800 
     34 N           0.5204  -18.6508  -44.9997 N.am      8 UNK        -0.5000 
     35 C           1.4830  -19.2753  -44.3039 C.2       7 UNK         0.5000 
     36 O           1.5842  -20.4976  -44.2116 O.2       7 UNK        -0.5000 
     37 CA          2.4665  -18.3818  -43.5324 C.3       7 UNK         0.1400 
     38 CB          3.6262  -17.9344  -44.4358 C.3       7 UNK        -0.1800 
     39 N           1.7909  -17.2158  -42.9625 N.am      7 UNK        -0.5000 
     40 C           0.9752  -17.2668  -41.8988 C.2       6 UNK         0.5000 
     41 O           0.7664  -18.2917  -41.2496 O.2       6 UNK        -0.5000 
     42 CA          0.2382  -15.9661  -41.5224 C.3       6 UNK         0.1400 
     43 CB          1.1223  -15.0812  -40.6314 C.3       6 UNK        -0.1800 
     44 N          -0.1899  -15.1985  -42.6937 N.am      6 UNK        -0.5000 
     45 C          -1.1121  -15.6137  -43.5740 C.2       5 UNK         0.5000 
     46 O          -1.7548  -16.6540  -43.4390 O.2       5 UNK        -0.5000 
     47 CA         -1.3147  -14.7569  -44.8420 C.3       5 UNK         0.1400 
     48 CB         -2.4752  -13.7721  -44.6449 C.3       5 UNK        -0.1800 
     49 N          -0.1192  -14.0213  -45.2696 N.am      5 UNK        -0.5000 
     50 C           1.0653  -14.5764  -45.5670 C.2       4 UNK         0.5000 
     51 O           1.2505  -15.7931  -45.5388 O.2       4 UNK        -0.5000 
     52 CA          2.2356  -13.6437  -45.9462 C.3       4 UNK         0.1400 
     53 CB          3.0569  -14.2081  -47.1189 C.3       4 UNK        -0.1800 
     54 N           1.8147  -12.2745  -46.2583 N.am      4 UNK        -0.5000 
     55 C           1.5913  -11.3142  -45.3486 C.2       3 UNK         0.5000 
     56 O           1.7186  -11.4914  -44.1368 O.2       3 UNK        -0.5000 
     57 CA          1.1230   -9.9355  -45.8603 C.3       3 UNK         0.1400 
     58 CB          2.3047   -8.9554  -45.9150 C.3       3 UNK        -0.1800 
     59 N           0.4796   -9.9740  -47.1753 N.am      3 UNK        -0.5000 
     60 C          -0.6897  -10.5684  -47.4481 C.2       2 UNK         0.5000 
     61 O          -1.3759  -11.1373  -46.5987 O.2       2 UNK        -0.5000 
     62 CA         -1.1554  -10.5736  -48.9210 C.3       2 UNK         0.1400 
     63 CB         -0.4539   -9.5196  -49.8067 C.3       2 UNK        -0.1800 
     64 N          -1.0286  -11.9064  -49.5210 N.am      2 UNK        -0.5000 
     65 C           0.0816  -12.6595  -49.5766 C.2       1 UNK         0.5000 
     66 O           1.1785  -12.2997  -49.1459 O.2       1 UNK        -0.5000 
     67 C          -0.2609  -24.8744  -44.9677 C.2       11 UNK         0.5000 
     68 O          -0.2542  -25.9992  -45.4721 O.2       11 UNK        -0.5000 
     69 N          -1.3762  -24.1593  -44.7545 N.am      12 UNK        -0.5000 
     70 CA         -2.7646  -24.5622  -44.9738 C.3       12 UNK         0.1400 
     71 CB         -3.1717  -25.6612  -43.9675 C.3       12 UNK        -0.1800 
     72 C          -3.0391  -24.9180  -46.4466 C.2       12 UNK         0.5000 
     73 O          -3.0128  -24.0269  -47.2946 O.2       12 UNK        -0.5000 
     74 N          -3.2957  -26.2015  -46.7371 N.am      13 UNK        -0.5000 
     75 CA         -3.6418  -26.7241  -48.0625 C.3       13 UNK         0.1400 
     76 CB         -3.9241  -28.2291  -47.9514 C.3       13 UNK        -0.1800 
     77 C          -2.5917  -26.4515  -49.1581 C.2       13 UNK         0.5000 
     78 O          -2.9520  -26.3838  -50.3340 O.2       13 UNK        -0.5000 
     79 N          -1.3273  -26.2576  -48.7593 N.am      14 UNK        -0.5000 
     80 CA         -0.2342  -25.8561  -49.6442 C.3       14 UNK         0.1400 
     81 CB          1.0950  -25.9806  -48.8897 C.3       14 UNK        -0.1800 
     82 C          -0.4021  -24.4391  -50.2308 C.2       14 UNK         0.5000 
     83 O           0.1269  -24.1784  -51.3117 O.2       14 UNK        -0.5000 
     84 N          -1.1656  -23.5647  -49.5574 N.am      15 UNK        -0.5000 
     85 CA         -1.4919  -22.2140  -50.0156 C.3       15 UNK         0.1400 
     86 CB         -1.7513  -21.3054  -48.8038 C.3       15 UNK        -0.1800 
     87 C          -2.6759  -22.2268  -51.0019 C.2       15 UNK         0.5000 
     88 O          -3.6761  -21.5446  -50.7722 O.2       15 UNK        -0.5000 
     89 N          -2.5528  -23.0261  -52.0713 N.am      16 UNK        -0.5000 
     90 CA         -3.5235  -23.2223  -53.1531 C.3       16 UNK         0.1400 
     91 CB         -3.6276  -21.9453  -54.0158 C.3       16 UNK        -0.1800 
     92 C          -4.8927  -23.7042  -52.6307 C.2       16 UNK         0.5000 
     93 O          -5.9102  -23.0588  -52.8813 O.2       16 UNK        -0.5000 
     94 N          -4.8830  -24.8037  -51.8614 N.am      17 UNK        -0.5000 
     95 CA         -6.0345  -25.3839  -51.1554 C.3       17 UNK         0.1400 
     96 CB         -7.1080  -25.8858  -52.1445 C.3       17 UNK        -0.1800 
     97 C          -6.5966  -24.4386  -50.0708 C.2       17 UNK         0.5000 
     98 O          -7.8071  -24.3985  -49.8473 O.2       17 UNK        -0.5000 
     99 N          -5.6873  -23.6912  -49.4271 N.am      18 UNK        -0.5000 
    100 CA        -5.9208  -22.6722  -48.3986 C.3       18 UNK         0.1400 
    101 CB        -6.5706  -23.2862  -47.1406 C.3       18 UNK        -0.1800 
    102 C         -6.6626  -21.4183  -48.9121 C.2       18 UNK         0.5000 
    103 O         -7.2285  -20.6755  -48.1082 O.2       18 UNK        -0.5000 
    104 N         -6.6278  -21.1784  -50.2310 N.am      19 UNK        -0.5000 
    105 CA        -7.1561  -19.9700  -50.8658 C.3       19 UNK         0.1400 
    106 CB        -7.4032  -20.2440  -52.3568 C.3       19 UNK        -0.1800 
    107 C         -6.2220  -18.7560  -50.7017 C.2       19 UNK         0.5000 
    108 O         -6.6984  -17.6241  -50.7913 O.2       19 UNK        -0.5000 
    109 N         -4.9200  -19.0106  -50.4857 N.am      20 UNK        -0.5000 
    110 CA        -3.8340  -18.0313  -50.3457 C.3       20 UNK         0.1400 
    111 CB        -4.0470  -17.1553  -49.0925 C.3       20 UNK        -0.1800 
    112 C         -3.5918  -17.2139  -51.6335 C.2       20 UNK         0.5000 
    113 O         -3.1944  -16.0493  -51.5645 O.2       20 UNK        -0.5000 
    114 N         -3.8605  -17.8450  -52.7848 N.am      21 UNK        -0.5000 
    115 CA        -3.8287  -17.2291  -54.1107 C.3       21 UNK         0.1400 
    116 CB        -4.9372  -17.8684  -54.9627 C.3       21 UNK        -0.1800 
    117 C         -2.4688  -17.3661  -54.8201 C.2       21 UNK         0.5000 
    118 O         -2.1925  -16.5866  -55.7330 O.2       21 UNK        -0.5000 
    119 N         -1.6599  -18.3566  -54.4238 N.am      22 UNK        -0.5000 
    120 CA        -0.3079  -18.5956  -54.9553 C.3       22 UNK         0.1400 
    121 C          0.7588  -17.5960  -54.4174 C.2       22 UNK         0.5000 
    122 N          1.9548  -17.5908  -54.9920 N.am      22 UNK        -0.7600 
    123 O          0.5257  -16.8258  -53.4898 O.2       22 UNK        -0.5000 
    124 C124        0.1184  -20.0830  -54.8057 C.3       23 UNK        -0.0398 
    125 S125       -0.0163  -20.7361  -53.1071 S.3       23 UNK        -0.2404 
    126 C126        1.7230  -20.8275  -52.5702 C.3       23 UNK        -0.0205 
    127 H127       -2.0627  -12.6615  -54.0445 H         1 UNK         0.0600 
    128 H128       -1.4467  -14.2848  -54.3726 H         1 UNK         0.0600 
    129 H129       -2.7492  -14.0476  -53.2013 H         1 UNK         0.0600 
    130 H130       -1.7651  -14.7315  -51.2702 H         1 UNK         0.3000 
    131 H131        0.9348  -14.3359  -50.5742 H         1 UNK         0.0600 
    132 H132       -1.4624  -14.8951  -48.7569 H         1 UNK         0.0800 
    133 H133        0.1893  -14.9638  -48.2207 H         1 UNK         0.0800 
    134 H134        1.3861  -17.1052  -47.9799 H         1 UNK         0.0800 
    135 H135        2.0809  -16.5905  -49.5047 H         1 UNK         0.0800 
    136 H136        1.3614  -18.3770  -51.5187 H         1 UNK         0.1150 
    137 H137        2.3614  -22.3843  -50.3847 H         1 UNK         0.1150 
    138 H138        2.0653  -19.3162  -47.4002 H         1 UNK         0.1150 
    139 H139        3.2320  -22.7753  -48.1314 H         1 UNK         0.0800 
    140 H140        3.3158  -21.4694  -46.9692 H         1 UNK         0.0800 
    141 H141        2.3391  -24.6382  -46.2326 H         1 UNK         0.0800 
    142 H142        2.8770  -23.3032  -45.2654 H         1 UNK         0.0800 
    143 H143        1.6251  -25.0580  -44.0291 H         1 UNK         0.0600 
    144 H144        0.9915  -22.2385  -43.7915 H         1 UNK         0.3000 
    145 H145        0.0437  -22.6392  -40.3137 H         1 UNK         0.0600 
    146 H146        1.7191  -20.8121  -40.1918 H         1 UNK         0.0600 
    147 H147        2.4993  -22.3672  -40.4371 H         1 UNK         0.0600 
    148 H148        2.3423  -21.2470  -41.7812 H         1 UNK         0.0600 
    149 H149        0.0020  -20.3877  -42.1006 H         1 UNK         0.3000 
    150 H150       -3.4511  -20.6318  -42.9402 H         1 UNK         0.0600 
    151 H151       -3.4781  -19.6400  -40.6429 H         1 UNK         0.0600 
    152 H152       -3.5263  -18.3917  -41.8792 H         1 UNK         0.0600 
    153 H153       -2.0258  -18.7174  -41.0147 H         1 UNK         0.0600 
    154 H154       -1.5480  -18.5905  -43.4502 H         1 UNK         0.3000 
    155 H155       -0.1200  -20.0010  -46.4257 H         1 UNK         0.0600 
    156 H156       -0.7918  -17.5564  -46.9617 H         1 UNK         0.0600 
    157 H157       -2.0261  -18.7792  -47.2271 H         1 UNK         0.0600 
    158 H158       -2.1015  -17.7552  -45.8084 H         1 UNK         0.0600 
    159 H159        0.5509  -17.6387  -45.0538 H         1 UNK         0.3000 
    160 H160        2.8871  -18.9706  -42.7146 H         1 UNK         0.0600 
    161 H161        4.3264  -17.2984  -43.8942 H         1 UNK         0.0600 
    162 H162        3.2782  -17.3838  -45.3094 H         1 UNK         0.0600 
    163 H163        4.1851  -18.7972  -44.8001 H         1 UNK         0.0600 
    164 H164        1.8469  -16.3600  -43.4974 H         1 UNK         0.3000 
    165 H165       -0.6525  -16.2422  -40.9538 H         1 UNK         0.0600 
    166 H166        0.5823  -14.1957  -40.2956 H         1 UNK         0.0600 
    167 H167        1.4433  -15.6224  -39.7403 H         1 UNK         0.0600 
    168 H168        2.0196  -14.7491  -41.1552 H         1 UNK         0.0600 
    169 H169        0.2876  -14.3270  -42.8717 H         1 UNK         0.3000 
    170 H170       -1.5835  -15.4346  -45.6534 H         1 UNK         0.0600 
    171 H171       -3.3751  -14.2881  -44.3074 H         1 UNK         0.0600 
    172 H172       -2.2343  -13.0090  -43.9038 H         1 UNK         0.0600 
    173 H173       -2.7253  -13.2679  -45.5783 H         1 UNK         0.0600 
    174 H174       -0.2096  -13.0169  -45.3379 H         1 UNK         0.3000 
    175 H175        2.8967  -13.6144  -45.0777 H         1 UNK         0.0600 
    176 H176        2.4567  -14.3282  -48.0193 H         1 UNK         0.0600 
    177 H177        3.8948  -13.5547  -47.3620 H         1 UNK         0.0600 
    178 H178        3.4733  -15.1859  -46.8735 H         1 UNK         0.0600 
    179 H179        1.6560  -12.0683  -47.2409 H         1 UNK         0.3000 
    180 H180        0.3948   -9.5527  -45.1423 H         1 UNK         0.0600 
    181 H181        3.0589   -9.2752  -46.6352 H         1 UNK         0.0600 
    182 H182        2.7923   -8.8755  -44.9424 H         1 UNK         0.0600 
    183 H183        1.9752   -7.9545  -46.1943 H         1 UNK         0.0600 
    184 H184        0.9959   -9.5665  -47.9414 H         1 UNK         0.3000 
    185 H185       -2.2199  -10.3357  -48.9056 H         1 UNK         0.0600 
    186 H186       -0.5604   -8.5185  -49.3868 H         1 UNK         0.0600 
    187 H187        0.6110   -9.7197  -49.9290 H         1 UNK         0.0600 
    188 H188       -0.8963   -9.4971  -50.8027 H         1 UNK         0.0600 
    189 H189       -1.8812  -12.3015  -49.8917 H         1 UNK         0.3000 
    190 H190       -1.2629  -23.1918  -44.4718 H         1 UNK         0.3000 
    191 H191       -3.3725  -23.6819  -44.7599 H         1 UNK         0.0600 
    192 H192       -2.5753  -26.5675  -44.0766 H         1 UNK         0.0600 
    193 H193       -4.2214  -25.9337  -44.0847 H         1 UNK         0.0600 
    194 H194       -3.0459  -25.3092  -42.9432 H         1 UNK         0.0600 
    195 H195       -3.2637  -26.8733  -45.9841 H         1 UNK         0.3000 
    196 H196       -4.5636  -26.2282  -48.3701 H         1 UNK         0.0600 
    197 H197       -4.2146  -28.6453  -48.9171 H         1 UNK         0.0600 
    198 H198       -4.7394  -28.4281  -47.2556 H         1 UNK         0.0600 
    199 H199       -3.0461  -28.7776  -47.6078 H         1 UNK         0.0600 
    200 H200       -1.1192  -26.3113  -47.7705 H         1 UNK         0.3000 
    201 H201       -0.2109  -26.5522  -50.4852 H         1 UNK         0.0600 
    202 H202        1.2799  -27.0094  -48.5805 H         1 UNK         0.0600 
    203 H203        1.0955  -25.3583  -47.9979 H         1 UNK         0.0600 
    204 H204        1.9346  -25.6688  -49.5122 H         1 UNK         0.0600 
    205 H205       -1.6182  -23.8575  -48.6968 H         1 UNK         0.3000 
    206 H206       -0.6300  -21.8047  -50.5399 H         1 UNK         0.0600 
    207 H207       -1.8798  -20.2718  -49.1179 H         1 UNK         0.0600 
    208 H208       -0.9095  -21.3197  -48.1189 H         1 UNK         0.0600 
    209 H209       -2.6398  -21.5985  -48.2460 H         1 UNK         0.0600 
    210 H210       -1.6837  -23.5425  -52.1537 H         1 UNK         0.3000 
    211 H211       -3.1334  -24.0203  -53.7861 H         1 UNK         0.0600 
    212 H212       -4.0066  -21.0975  -53.4453 H         1 UNK         0.0600 
    213 H213       -4.3006  -22.0975  -54.8604 H         1 UNK         0.0600 
    214 H214       -2.6571  -21.6665  -54.4242 H         1 UNK         0.0600 
    215 H215       -3.9956  -25.2567  -51.6635 H         1 UNK         0.3000 
    216 H216       -5.6577  -26.2587  -50.6250 H         1 UNK         0.0600 
    217 H217       -7.8780  -26.4574  -51.6253 H         1 UNK         0.0600 
    218 H218       -6.6730  -26.5409  -52.8993 H         1 UNK         0.0600 
    219 H219       -7.6067  -25.0642  -52.6591 H         1 UNK         0.0600 
    220 H220       -4.7247  -23.7794  -49.7193 H         1 UNK         0.3000 
    221 H221       -4.9313  -22.3191  -48.1084 H         1 UNK         0.0600 
    222 H222       -7.6084  -23.5696  -47.3167 H         1 UNK         0.0600 
    223 H223       -6.0312  -24.1735  -46.8102 H         1 UNK         0.0600 
    224 H224       -6.5629  -22.5770  -46.3123 H         1 UNK         0.0600 
    225 H225       -6.1263  -21.8230  -50.8293 H         1 UNK         0.3000 
    226 H226       -8.1137  -19.7215  -50.4036 H         1 UNK         0.0600 
    227 H227       -8.0588  -21.1035  -52.4984 H         1 UNK         0.0600 
    228 H228       -7.8789  -19.3880  -52.8370 H         1 UNK         0.0600 
    229 H229       -6.4722  -20.4400  -52.8896 H         1 UNK         0.0600 
    230 H230       -4.6232  -19.9851  -50.4723 H         1 UNK         0.3000 
    231 H231       -2.9221  -18.6061  -50.1928 H         1 UNK         0.0600 
    232 H232       -4.2250  -17.7686  -48.2094 H         1 UNK         0.0600 
    233 H233       -4.8933  -16.4781  -49.2079 H         1 UNK         0.0600 
    234 H234       -3.1710  -16.5430  -48.8865 H         1 UNK         0.0600 
    235 H235       -4.1933  -18.7960  -52.7342 H         1 UNK         0.3000 
    236 H236       -4.0462  -16.1628  -54.0195 H         1 UNK         0.0600 
    237 H237       -4.9777  -17.4172  -55.9550 H         1 UNK         0.0600 
    238 H238       -4.7777  -18.9394  -55.0950 H         1 UNK         0.0600 
    239 H239       -5.9164  -17.7295  -54.5036 H         1 UNK         0.0600 
    240 H240       -1.9282  -18.9231  -53.6339 H         1 UNK         0.3000 
    241 H241       -0.3577  -18.4017  -56.0287 H         1 UNK         0.0600 
    242 H242        2.6509  -16.9461  -54.6516 H         1 UNK         0.3800 
    243 H243        2.1783  -18.1909  -55.7702 H         1 UNK         0.3800 
    244 H244       -0.5292  -20.6964  -55.4330 H         1 UNK         0.0800 
    245 H245        1.1241  -20.2503  -55.1932 H         1 UNK         0.0800 
    246 H246        2.3440  -20.1635  -53.1729 H         1 UNK         0.0800 
    247 H247        2.0952  -21.8403  -52.7314 H         1 UNK         0.0800 
@<TRIPOS>BOND
     1    1    2 1    
     2    1  127 1    
     3    1  128 1    
     4    1  129 1    
     5    2    3 2    
     6    2    4 am   BACKBONE|DICT|INTERRES
     7    4    5 1    
     8    4  130 1    
     9    5    6 1    
    10    5   65 1    
    11    5  131 1    
    12    6    7 1    
    13    6  132 1    
    14    6  133 1    
    15    7    8 1    
    16    8    9 1    
    17    8  134 1    
    18    8  135 1    
    19    9   10 ar   
    20    9   14 ar   
    21   10   11 ar   
    22   10  136 1    
    23   11   12 ar   
    24   11  126 1    
    25   12   13 ar   
    26   12  137 1    
    27   13   14 ar   
    28   13   15 1    
    29   14  138 1    
    30   15   16 1    
    31   15  139 1    
    32   15  140 1    
    33   16   17 1    
    34   17   18 1    
    35   17  141 1    
    36   17  142 1    
    37   18   19 1    
    38   18   67 1    
    39   18  143 1    
    40   19   20 am   BACKBONE|DICT|INTERRES
    41   19  144 1    
    42   20   21 2    
    43   20   22 1    
    44   22   23 1    
    45   22   24 1    
    46   22  145 1    
    47   23  146 1    
    48   23  147 1    
    49   23  148 1    
    50   24   25 am   BACKBONE|DICT|INTERRES
    51   24  149 1    
    52   25   26 2    
    53   25   27 1    
    54   27   28 1    
    55   27   29 1    
    56   27  150 1    
    57   28  151 1    
    58   28  152 1    
    59   28  153 1    
    60   29   30 am   BACKBONE|DICT|INTERRES
    61   29  154 1    
    62   30   31 2    
    63   30   32 1    
    64   32   33 1    
    65   32   34 1    
    66   32  155 1    
    67   33  156 1    
    68   33  157 1    
    69   33  158 1    
    70   34   35 am   BACKBONE|DICT|INTERRES
    71   34  159 1    
    72   35   36 2    
    73   35   37 1    
    74   37   38 1    
    75   37   39 1    
    76   37  160 1    
    77   38  161 1    
    78   38  162 1    
    79   38  163 1    
    80   39   40 am   BACKBONE|DICT|INTERRES
    81   39  164 1    
    82   40   41 2    
    83   40   42 1    
    84   42   43 1    
    85   42   44 1    
    86   42  165 1    
    87   43  166 1    
    88   43  167 1    
    89   43  168 1    
    90   44   45 am   BACKBONE|DICT|INTERRES
    91   44  169 1    
    92   45   46 2    
    93   45   47 1    
    94   47   48 1    
    95   47   49 1    
    96   47  170 1    
    97   48  171 1    
    98   48  172 1    
    99   48  173 1    
   100   49   50 am   BACKBONE|DICT|INTERRES
   101   49  174 1    
   102   50   51 2    
   103   50   52 1    
   104   52   53 1    
   105   52   54 1    
   106   52  175 1    
   107   53  176 1    
   108   53  177 1    
   109   53  178 1    
   110   54   55 am   BACKBONE|DICT|INTERRES
   111   54  179 1    
   112   55   56 2    
   113   55   57 1    
   114   57   58 1    
   115   57   59 1    
   116   57  180 1    
   117   58  181 1    
   118   58  182 1    
   119   58  183 1    
   120   59   60 am   BACKBONE|DICT|INTERRES
   121   59  184 1    
   122   60   61 2    
   123   60   62 1    
   124   62   63 1    
   125   62   64 1    
   126   62  185 1    
   127   63  186 1    
   128   63  187 1    
   129   63  188 1    
   130   64   65 am   BACKBONE|DICT|INTERRES
   131   64  189 1    
   132   65   66 2    
   133   67   68 2    
   134   67   69 am   BACKBONE|DICT|INTERRES
   135   69   70 1    
   136   69  190 1    
   137   70   71 1    
   138   70   72 1    
   139   70  191 1    
   140   71  192 1    
   141   71  193 1    
   142   71  194 1    
   143   72   73 2    
   144   72   74 am   BACKBONE|DICT|INTERRES
   145   74   75 1    
   146   74  195 1    
   147   75   76 1    
   148   75   77 1    
   149   75  196 1    
   150   76  197 1    
   151   76  198 1    
   152   76  199 1    
   153   77   78 2    
   154   77   79 am   BACKBONE|DICT|INTERRES
   155   79   80 1    
   156   79  200 1    
   157   80   81 1    
   158   80   82 1    
   159   80  201 1    
   160   81  202 1    
   161   81  203 1    
   162   81  204 1    
   163   82   83 2    
   164   82   84 am   BACKBONE|DICT|INTERRES
   165   84   85 1    
   166   84  205 1    
   167   85   86 1    
   168   85   87 1    
   169   85  206 1    
   170   86  207 1    
   171   86  208 1    
   172   86  209 1    
   173   87   88 2    
   174   87   89 am   BACKBONE|DICT|INTERRES
   175   89   90 1    
   176   89  210 1    
   177   90   91 1    
   178   90   92 1    
   179   90  211 1    
   180   91  212 1    
   181   91  213 1    
   182   91  214 1    
   183   92   93 2    
   184   92   94 am   BACKBONE|DICT|INTERRES
   185   94   95 1    
   186   94  215 1    
   187   95   96 1    
   188   95   97 1    
   189   95  216 1    
   190   96  217 1    
   191   96  218 1    
   192   96  219 1    
   193   97   98 2    
   194   97   99 am   BACKBONE|DICT|INTERRES
   195   99  100 1    
   196   99  220 1    
   197  100  101 1    
   198  100  102 1    
   199  100  221 1    
   200  101  222 1    
   201  101  223 1    
   202  101  224 1    
   203  102  103 2    
   204  102  104 am   BACKBONE|DICT|INTERRES
   205  104  105 1    
   206  104  225 1    
   207  105  106 1    
   208  105  107 1    
   209  105  226 1    
   210  106  227 1    
   211  106  228 1    
   212  106  229 1    
   213  107  108 2    
   214  107  109 am   BACKBONE|DICT|INTERRES
   215  109  110 1    
   216  109  230 1    
   217  110  111 1    
   218  110  112 1    
   219  110  231 1    
   220  111  232 1    
   221  111  233 1    
   222  111  234 1    
   223  112  113 2    
   224  112  114 am   BACKBONE|DICT|INTERRES
   225  114  115 1    
   226  114  235 1    
   227  115  116 1    
   228  115  117 1    
   229  115  236 1    
   230  116  237 1    
   231  116  238 1    
   232  116  239 1    
   233  117  118 2    
   234  117  119 am   BACKBONE|DICT|INTERRES
   235  119  120 1    
   236  119  240 1    
   237  120  121 1    
   238  120  124 1    
   239  120  241 1    
   240  121  122 am   BACKBONE|DICT|INTERRES
   241  121  123 2    
   242  122  242 1    
   243  122  243 1    
   244  124  125 1    
   245  124  244 1    
   246  124  245 1    
   247  125  126 1    
   248  126  246 1    
   249  126  247 1    
@<TRIPOS>SUBSTRUCTURE
     1 UNK         1 GROUP             0       ****    0 ROOT    
