@<TRIPOS>MOLECULE
3R540
247   249    1
SMALL
USER_CHARGES


@<TRIPOS>ATOM
      1 CA          5.0251  -10.6660  -49.2801 C.3       0 UNK        -0.1800 
      2 C           4.1209  -11.7082  -48.6389 C.2       0 UNK         0.5000 
      3 O           3.5183  -11.4432  -47.5981 O.2       0 UNK        -0.5000 
      4 N           4.0157  -12.8941  -49.2501 N.am      1 UNK        -0.5000 
      5 CA          3.1688  -13.9961  -48.7858 C.3       1 UNK         0.1400 
      6 C6          3.4732  -15.3099  -49.5465 C.3       23 UNK        -0.0398 
      7 S7          3.2255  -16.7865  -48.5035 S.3       23 UNK        -0.2404 
      8 C8          2.4466  -17.9429  -49.6716 C.3       23 UNK        -0.0205 
      9 C9          0.9304  -17.8407  -49.6428 C.ar      23 UNK        -0.0193 
     10 C10         0.2624  -16.9088  -50.4415 C.ar      23 UNK        -0.1150 
     11 C11        -1.1329  -16.8343  -50.4270 C.ar      23 UNK        -0.0193 
     12 C12        -1.8604  -17.6977  -49.6012 C.ar      23 UNK        -0.1150 
     13 C13        -1.2049  -18.6463  -48.8115 C.ar      23 UNK        -0.0193 
     14 C14         0.1903  -18.7042  -48.8312 C.ar      23 UNK        -0.1150 
     15 C15        -1.9918  -19.6191  -47.9458 C.3       23 UNK        -0.0205 
     16 S16        -2.3978  -21.1315  -48.8681 S.3       23 UNK        -0.2404 
     17 C17        -2.8728  -22.2922  -47.5415 C.3       23 UNK        -0.0398 
     18 CA         -1.7593  -23.3325  -47.2609 C.3       11 UNK         0.1400 
     19 N          -0.5824  -22.7401  -46.6128 N.am      11 UNK        -0.5000 
     20 C           0.6061  -23.3497  -46.4965 C.2       10 UNK         0.5000 
     21 O           0.8539  -24.4572  -46.9714 O.2       10 UNK        -0.5000 
     22 CA          1.6784  -22.6313  -45.6587 C.3       10 UNK         0.1400 
     23 CB          2.4413  -21.5996  -46.5005 C.3       10 UNK        -0.1800 
     24 N           1.1091  -21.9866  -44.4740 N.am      10 UNK        -0.5000 
     25 C           0.6687  -22.6642  -43.4027 C.2       9 UNK         0.5000 
     26 O           0.7308  -23.8883  -43.3061 O.2       9 UNK        -0.5000 
     27 CA          0.0114  -21.8612  -42.2638 C.3       9 UNK         0.1400 
     28 CB          1.0624  -21.4503  -41.2229 C.3       9 UNK        -0.1800 
     29 N          -0.7030  -20.6728  -42.7260 N.am      9 UNK        -0.5000 
     30 C          -1.7401  -20.6817  -43.5770 C.2       8 UNK         0.5000 
     31 O          -2.2441  -21.7108  -44.0276 O.2       8 UNK        -0.5000 
     32 CA         -2.2695  -19.3150  -44.0542 C.3       8 UNK         0.1400 
     33 CB         -3.4822  -18.8916  -43.2134 C.3       8 UNK        -0.1800 
     34 N          -1.2736  -18.2399  -44.0283 N.am      8 UNK        -0.5000 
     35 C          -0.0691  -18.2521  -44.6209 C.2       7 UNK         0.5000 
     36 O           0.3481  -19.1854  -45.3064 O.2       7 UNK        -0.5000 
     37 CA          0.8451  -17.0432  -44.3476 C.3       7 UNK         0.1400 
     38 CB          0.7180  -16.0220  -45.4825 C.3       7 UNK        -0.1800 
     39 N           0.5750  -16.3744  -43.0687 N.am      7 UNK        -0.5000 
     40 C           0.7090  -16.9395  -41.8592 C.2       6 UNK         0.5000 
     41 O           1.0580  -18.1103  -41.7015 O.2       6 UNK        -0.5000 
     42 CA          0.3346  -16.0907  -40.6249 C.3       6 UNK         0.1400 
     43 CB          1.3045  -16.3150  -39.4457 C.3       6 UNK        -0.1800 
     44 N           0.1390  -14.6569  -40.8884 N.am      6 UNK        -0.5000 
     45 C           1.0654  -13.7486  -41.2272 C.2       5 UNK         0.5000 
     46 O           2.2548  -14.0084  -41.4235 O.2       5 UNK        -0.5000 
     47 CA          0.5611  -12.2944  -41.3185 C.3       5 UNK         0.1400 
     48 CB          0.4447  -11.6791  -39.9143 C.3       5 UNK        -0.1800 
     49 N           1.4296  -11.4404  -42.1279 N.am      5 UNK        -0.5000 
     50 C           1.5537  -11.5158  -43.4572 C.2       4 UNK         0.5000 
     51 O           0.9362  -12.3203  -44.1624 O.2       4 UNK        -0.5000 
     52 CA          2.5528  -10.5322  -44.0963 C.3       4 UNK         0.1400 
     53 CB          3.9554  -11.1562  -44.1549 C.3       4 UNK        -0.1800 
     54 N           2.1396  -10.1841  -45.4512 N.am      4 UNK        -0.5000 
     55 C           1.1243   -9.3675  -45.7653 C.2       3 UNK         0.5000 
     56 O           0.5429   -8.6470  -44.9532 O.2       3 UNK        -0.5000 
     57 CA          0.6388   -9.4292  -47.2246 C.3       3 UNK         0.1400 
     58 CB          1.5815   -8.6649  -48.1675 C.3       3 UNK        -0.1800 
     59 N           0.5414  -10.8328  -47.6297 N.am      3 UNK        -0.5000 
     60 C          -0.5279  -11.6009  -47.3759 C.2       2 UNK         0.5000 
     61 O          -1.6239  -11.1423  -47.0494 O.2       2 UNK        -0.5000 
     62 CA         -0.3477  -13.1323  -47.4124 C.3       2 UNK         0.1400 
     63 CB         -1.3891  -13.8319  -48.3066 C.3       2 UNK        -0.1800 
     64 N           1.0224  -13.5828  -47.6905 N.am      2 UNK        -0.5000 
     65 C           1.6788  -13.5953  -48.8579 C.2       1 UNK         0.5000 
     66 O           1.1932  -13.2554  -49.9381 O.2       1 UNK        -0.5000 
     67 C          -2.2931  -24.5318  -46.4485 C.2       11 UNK         0.5000 
     68 O          -2.6486  -25.5546  -47.0357 O.2       11 UNK        -0.5000 
     69 N          -2.2853  -24.4130  -45.1123 N.am      12 UNK        -0.5000 
     70 CA         -2.6303  -25.4898  -44.1832 C.3       12 UNK         0.1400 
     71 CB         -2.7301  -24.9311  -42.7564 C.3       12 UNK        -0.1800 
     72 C          -1.6421  -26.6707  -44.2450 C.2       12 UNK         0.5000 
     73 O          -2.0819  -27.8201  -44.2532 O.2       12 UNK        -0.5000 
     74 N          -0.3362  -26.3729  -44.3231 N.am      13 UNK        -0.5000 
     75 CA          0.7381  -27.3588  -44.4715 C.3       13 UNK         0.1400 
     76 CB          2.1001  -26.6816  -44.2579 C.3       13 UNK        -0.1800 
     77 C           0.7011  -28.0857  -45.8280 C.2       13 UNK         0.5000 
     78 O           0.9234  -29.2964  -45.8719 O.2       13 UNK        -0.5000 
     79 N           0.3917  -27.3458  -46.9029 N.am      14 UNK        -0.5000 
     80 CA          0.1568  -27.8870  -48.2446 C.3       14 UNK         0.1400 
     81 CB          0.1157  -26.7307  -49.2561 C.3       14 UNK        -0.1800 
     82 C          -1.1368  -28.7205  -48.3388 C.2       14 UNK         0.5000 
     83 O          -1.2305  -29.5928  -49.2030 O.2       14 UNK        -0.5000 
     84 N          -2.0978  -28.4276  -47.4501 N.am      15 UNK        -0.5000 
     85 CA         -3.4360  -29.0099  -47.3378 C.3       15 UNK         0.1400 
     86 CB         -3.3577  -30.4970  -46.9350 C.3       15 UNK        -0.1800 
     87 C          -4.2821  -28.7575  -48.6010 C.2       15 UNK         0.5000 
     88 O          -4.9802  -29.6571  -49.0737 O.2       15 UNK        -0.5000 
     89 N          -4.1899  -27.5337  -49.1335 N.am      16 UNK        -0.5000 
     90 CA         -4.8613  -27.1011  -50.3519 C.3       16 UNK         0.1400 
     91 CB         -3.9758  -27.4214  -51.5685 C.3       16 UNK        -0.1800 
     92 C          -5.1418  -25.5984  -50.2672 C.2       16 UNK         0.5000 
     93 O          -4.3619  -24.8578  -49.6629 O.2       16 UNK        -0.5000 
     94 N          -6.2252  -25.1619  -50.9185 N.am      17 UNK        -0.5000 
     95 CA         -6.6545  -23.7656  -51.0109 C.3       17 UNK         0.1400 
     96 CB         -8.1682  -23.7292  -51.2892 C.3       17 UNK        -0.1800 
     97 C          -5.8395  -22.9804  -52.0602 C.2       17 UNK         0.5000 
     98 O          -6.4124  -22.3642  -52.9607 O.2       17 UNK        -0.5000 
     99 N          -4.5064  -23.0023  -51.9206 N.am      18 UNK        -0.5000 
    100 CA        -3.5452  -22.3273  -52.8004 C.3       18 UNK         0.1400 
    101 CB        -2.1192  -22.7460  -52.4133 C.3       18 UNK        -0.1800 
    102 C         -3.6934  -20.7922  -52.8189 C.2       18 UNK         0.5000 
    103 O         -3.2975  -20.1567  -53.7952 O.2       18 UNK        -0.5000 
    104 N         -4.3346  -20.2378  -51.7801 N.am      19 UNK        -0.5000 
    105 CA        -4.7562  -18.8426  -51.6607 C.3       19 UNK         0.1400 
    106 CB        -5.4674  -18.6609  -50.3108 C.3       19 UNK        -0.1800 
    107 C         -5.6657  -18.3555  -52.8071 C.2       19 UNK         0.5000 
    108 O         -5.6761  -17.1598  -53.0972 O.2       19 UNK        -0.5000 
    109 N         -6.3859  -19.2778  -53.4643 N.am      20 UNK        -0.5000 
    110 CA        -7.2140  -19.0005  -54.6396 C.3       20 UNK         0.1400 
    111 CB        -8.0460  -20.2472  -54.9745 C.3       20 UNK        -0.1800 
    112 C         -6.4025  -18.5474  -55.8710 C.2       20 UNK         0.5000 
    113 O         -6.9398  -17.8265  -56.7127 O.2       20 UNK        -0.5000 
    114 N         -5.1250  -18.9493  -55.9511 N.am      21 UNK        -0.5000 
    115 CA        -4.2018  -18.5541  -57.0170 C.3       21 UNK         0.1400 
    116 CB        -3.0725  -19.5919  -57.1155 C.3       21 UNK        -0.1800 
    117 C         -3.6220  -17.1389  -56.8191 C.2       21 UNK         0.5000 
    118 O         -3.0552  -16.5882  -57.7640 O.2       21 UNK        -0.5000 
    119 N         -3.7629  -16.5746  -55.6119 N.am      22 UNK        -0.5000 
    120 CA        -3.2692  -15.2364  -55.2458 C.3       22 UNK         0.1400 
    121 C         -4.1374  -14.0610  -55.7862 C.2       22 UNK         0.5000 
    122 N         -5.3123  -14.3019  -56.3567 N.am      22 UNK        -0.7600 
    123 O         -3.7320  -12.9056  -55.6938 O.2       22 UNK        -0.5000 
    124 C124       -3.0488  -15.0952  -53.7170 C.3       23 UNK        -0.0398 
    125 S125       -1.9766  -16.3963  -53.0196 S.3       23 UNK        -0.2404 
    126 C126       -1.8489  -15.8175  -51.3015 C.3       23 UNK        -0.0205 
    127 H127        5.5777  -11.0752  -50.1261 H         1 UNK         0.0600 
    128 H128        5.7453  -10.2957  -48.5507 H         1 UNK         0.0600 
    129 H129        4.4329   -9.8229  -49.6351 H         1 UNK         0.0600 
    130 H130        4.5038  -13.0463  -50.1210 H         1 UNK         0.3000 
    131 H131        3.4344  -14.1481  -47.7366 H         1 UNK         0.0600 
    132 H132        4.5207  -15.3327  -49.8505 H         1 UNK         0.0800 
    133 H133        2.9014  -15.3786  -50.4727 H         1 UNK         0.0800 
    134 H134        2.7508  -18.9566  -49.4059 H         1 UNK         0.0800 
    135 H135        2.8219  -17.7754  -50.6823 H         1 UNK         0.0800 
    136 H136        0.8230  -16.2436  -51.0822 H         1 UNK         0.1150 
    137 H137       -2.9372  -17.6372  -49.5787 H         1 UNK         0.1150 
    138 H138        0.7000  -19.4319  -48.2189 H         1 UNK         0.1150 
    139 H139       -1.4021  -19.8853  -47.0704 H         1 UNK         0.0800 
    140 H140       -2.9079  -19.1520  -47.5821 H         1 UNK         0.0800 
    141 H141       -3.7838  -22.7927  -47.8751 H         1 UNK         0.0800 
    142 H142       -3.1423  -21.7456  -46.6367 H         1 UNK         0.0800 
    143 H143       -1.4356  -23.7363  -48.2231 H         1 UNK         0.0600 
    144 H144       -0.7111  -21.8469  -46.1621 H         1 UNK         0.3000 
    145 H145        2.3975  -23.3832  -45.3268 H         1 UNK         0.0600 
    146 H146        3.2450  -21.1388  -45.9262 H         1 UNK         0.0600 
    147 H147        2.8921  -22.0666  -47.3771 H         1 UNK         0.0600 
    148 H148        1.7862  -20.8055  -46.8525 H         1 UNK         0.0600 
    149 H149        0.9798  -20.9813  -44.5185 H         1 UNK         0.3000 
    150 H150       -0.7152  -22.5116  -41.7740 H         1 UNK         0.0600 
    151 H151        1.5760  -22.3244  -40.8205 H         1 UNK         0.0600 
    152 H152        0.6047  -20.9264  -40.3836 H         1 UNK         0.0600 
    153 H153        1.8195  -20.7942  -41.6544 H         1 UNK         0.0600 
    154 H154       -0.3260  -19.7813  -42.4292 H         1 UNK         0.3000 
    155 H155       -2.6002  -19.4358  -45.0857 H         1 UNK         0.0600 
    156 H156       -3.2091  -18.7209  -42.1712 H         1 UNK         0.0600 
    157 H157       -4.2563  -19.6602  -43.2285 H         1 UNK         0.0600 
    158 H158       -3.9300  -17.9753  -43.5987 H         1 UNK         0.0600 
    159 H159       -1.5130  -17.4261  -43.4821 H         1 UNK         0.3000 
    160 H160        1.8741  -17.4078  -44.3249 H         1 UNK         0.0600 
    161 H161       -0.2953  -15.6251  -45.5458 H         1 UNK         0.0600 
    162 H162        0.9513  -16.4756  -46.4470 H         1 UNK         0.0600 
    163 H163        1.4042  -15.1882  -45.3351 H         1 UNK         0.0600 
    164 H164        0.2914  -15.4066  -43.1127 H         1 UNK         0.3000 
    165 H165       -0.6409  -16.4624  -40.3085 H         1 UNK         0.0600 
    166 H166        2.3290  -16.0471  -39.7048 H         1 UNK         0.0600 
    167 H167        1.0124  -15.7260  -38.5763 H         1 UNK         0.0600 
    168 H168        1.3120  -17.3613  -39.1379 H         1 UNK         0.0600 
    169 H169       -0.8092  -14.3316  -40.7565 H         1 UNK         0.3000 
    170 H170       -0.4295  -12.3024  -41.7785 H         1 UNK         0.0600 
    171 H171        1.4118  -11.6400  -39.4113 H         1 UNK         0.0600 
    172 H172        0.0482  -10.6645  -39.9592 H         1 UNK         0.0600 
    173 H173       -0.2289  -12.2599  -39.2829 H         1 UNK         0.0600 
    174 H174        2.0050  -10.7843  -41.6206 H         1 UNK         0.3000 
    175 H175        2.5951   -9.6210  -43.4959 H         1 UNK         0.0600 
    176 H176        3.9626  -12.0717  -44.7483 H         1 UNK         0.0600 
    177 H177        4.6757  -10.4670  -44.5961 H         1 UNK         0.0600 
    178 H178        4.3144  -11.4091  -43.1565 H         1 UNK         0.0600 
    179 H179        2.5753  -10.7230  -46.1955 H         1 UNK         0.3000 
    180 H180       -0.3443   -8.9570  -47.2822 H         1 UNK         0.0600 
    181 H181        1.2674   -8.7655  -49.2064 H         1 UNK         0.0600 
    182 H182        2.6107   -9.0133  -48.0924 H         1 UNK         0.0600 
    183 H183        1.5831   -7.6008  -47.9290 H         1 UNK         0.0600 
    184 H184        1.4129  -11.2903  -47.8654 H         1 UNK         0.3000 
    185 H185       -0.5463  -13.4533  -46.3897 H         1 UNK         0.0600 
    186 H186       -1.2493  -14.9125  -48.2982 H         1 UNK         0.0600 
    187 H187       -2.4015  -13.6342  -47.9532 H         1 UNK         0.0600 
    188 H188       -1.3357  -13.4853  -49.3379 H         1 UNK         0.0600 
    189 H189        1.5445  -13.8357  -46.8634 H         1 UNK         0.3000 
    190 H190       -2.0383  -23.5171  -44.7023 H         1 UNK         0.3000 
    191 H191       -3.6155  -25.8663  -44.4664 H         1 UNK         0.0600 
    192 H192       -3.0665  -25.7006  -42.0606 H         1 UNK         0.0600 
    193 H193       -3.4428  -24.1079  -42.7024 H         1 UNK         0.0600 
    194 H194       -1.7682  -24.5661  -42.3984 H         1 UNK         0.0600 
    195 H195       -0.0472  -25.4037  -44.2307 H         1 UNK         0.3000 
    196 H196        0.6100  -28.1112  -43.6904 H         1 UNK         0.0600 
    197 H197        2.2721  -25.8860  -44.9831 H         1 UNK         0.0600 
    198 H198        2.1721  -26.2478  -43.2605 H         1 UNK         0.0600 
    199 H199        2.9144  -27.4001  -44.3584 H         1 UNK         0.0600 
    200 H200        0.3064  -26.3389  -46.7986 H         1 UNK         0.3000 
    201 H201        0.9934  -28.5397  -48.5019 H         1 UNK         0.0600 
    202 H202       -0.0308  -27.1029  -50.2708 H         1 UNK         0.0600 
    203 H203       -0.6982  -26.0375  -49.0409 H         1 UNK         0.0600 
    204 H204        1.0479  -26.1656  -49.2481 H         1 UNK         0.0600 
    205 H205       -1.9239  -27.6456  -46.8316 H         1 UNK         0.3000 
    206 H206       -3.9318  -28.4748  -46.5267 H         1 UNK         0.0600 
    207 H207       -2.7577  -30.6274  -46.0342 H         1 UNK         0.0600 
    208 H208       -4.3501  -30.8968  -46.7243 H         1 UNK         0.0600 
    209 H209       -2.9187  -31.1099  -47.7227 H         1 UNK         0.0600 
    210 H210       -3.6444  -26.8182  -48.6620 H         1 UNK         0.3000 
    211 H211       -5.8162  -27.6221  -50.4498 H         1 UNK         0.0600 
    212 H212       -4.4486  -27.0961  -52.4960 H         1 UNK         0.0600 
    213 H213       -3.7951  -28.4931  -51.6542 H         1 UNK         0.0600 
    214 H214       -3.0070  -26.9246  -51.4999 H         1 UNK         0.0600 
    215 H215       -6.7868  -25.8291  -51.4279 H         1 UNK         0.3000 
    216 H216       -6.4851  -23.2805  -50.0472 H         1 UNK         0.0600 
    217 H217       -8.4137  -24.1930  -52.2454 H         1 UNK         0.0600 
    218 H218       -8.5374  -22.7031  -51.3169 H         1 UNK         0.0600 
    219 H219       -8.7250  -24.2505  -50.5103 H         1 UNK         0.0600 
    220 H220       -4.1261  -23.5318  -51.1422 H         1 UNK         0.3000 
    221 H221       -3.7335  -22.6755  -53.8179 H         1 UNK         0.0600 
    222 H222       -1.9882  -23.8247  -52.5009 H         1 UNK         0.0600 
    223 H223       -1.8773  -22.4629  -51.3898 H         1 UNK         0.0600 
    224 H224       -1.3830  -22.2750  -53.0660 H         1 UNK         0.0600 
    225 H225       -4.5974  -20.8490  -51.0218 H         1 UNK         0.3000 
    226 H226       -3.8558  -18.2291  -51.6731 H         1 UNK         0.0600 
    227 H227       -6.3991  -19.2266  -50.2699 H         1 UNK         0.0600 
    228 H228       -4.8430  -18.9917  -49.4810 H         1 UNK         0.0600 
    229 H229       -5.7115  -17.6120  -50.1376 H         1 UNK         0.0600 
    230 H230       -6.3209  -20.2490  -53.1792 H         1 UNK         0.3000 
    231 H231       -7.9002  -18.1911  -54.3821 H         1 UNK         0.0600 
    232 H232       -7.4112  -21.0918  -55.2458 H         1 UNK         0.0600 
    233 H233       -8.7160  -20.0567  -55.8138 H         1 UNK         0.0600 
    234 H234       -8.6624  -20.5507  -54.1281 H         1 UNK         0.0600 
    235 H235       -4.7294  -19.5021  -55.1984 H         1 UNK         0.3000 
    236 H236       -4.7422  -18.5572  -57.9659 H         1 UNK         0.0600 
    237 H237       -3.4687  -20.5995  -57.2423 H         1 UNK         0.0600 
    238 H238       -2.4289  -19.3856  -57.9715 H         1 UNK         0.0600 
    239 H239       -2.4413  -19.5867  -56.2266 H         1 UNK         0.0600 
    240 H240       -4.2546  -17.0778  -54.8856 H         1 UNK         0.3000 
    241 H241       -2.2916  -15.1152  -55.7165 H         1 UNK         0.0600 
    242 H242       -5.8619  -13.5328  -56.7068 H         1 UNK         0.3800 
    243 H243       -5.6580  -15.2454  -56.4406 H         1 UNK         0.3800 
    244 H244       -4.0045  -15.1134  -53.1911 H         1 UNK         0.0800 
    245 H245       -2.5939  -14.1293  -53.4900 H         1 UNK         0.0800 
    246 H246       -2.8462  -15.6157  -50.9074 H         1 UNK         0.0800 
    247 H247       -1.3074  -14.8707  -51.2833 H         1 UNK         0.0800 
@<TRIPOS>BOND
     1    1    2 1    
     2    1  127 1    
     3    1  128 1    
     4    1  129 1    
     5    2    3 2    
     6    2    4 am   BACKBONE|DICT|INTERRES
     7    4    5 1    
     8    4  130 1    
     9    5    6 1    
    10    5   65 1    
    11    5  131 1    
    12    6    7 1    
    13    6  132 1    
    14    6  133 1    
    15    7    8 1    
    16    8    9 1    
    17    8  134 1    
    18    8  135 1    
    19    9   10 ar   
    20    9   14 ar   
    21   10   11 ar   
    22   10  136 1    
    23   11   12 ar   
    24   11  126 1    
    25   12   13 ar   
    26   12  137 1    
    27   13   14 ar   
    28   13   15 1    
    29   14  138 1    
    30   15   16 1    
    31   15  139 1    
    32   15  140 1    
    33   16   17 1    
    34   17   18 1    
    35   17  141 1    
    36   17  142 1    
    37   18   19 1    
    38   18   67 1    
    39   18  143 1    
    40   19   20 am   BACKBONE|DICT|INTERRES
    41   19  144 1    
    42   20   21 2    
    43   20   22 1    
    44   22   23 1    
    45   22   24 1    
    46   22  145 1    
    47   23  146 1    
    48   23  147 1    
    49   23  148 1    
    50   24   25 am   BACKBONE|DICT|INTERRES
    51   24  149 1    
    52   25   26 2    
    53   25   27 1    
    54   27   28 1    
    55   27   29 1    
    56   27  150 1    
    57   28  151 1    
    58   28  152 1    
    59   28  153 1    
    60   29   30 am   BACKBONE|DICT|INTERRES
    61   29  154 1    
    62   30   31 2    
    63   30   32 1    
    64   32   33 1    
    65   32   34 1    
    66   32  155 1    
    67   33  156 1    
    68   33  157 1    
    69   33  158 1    
    70   34   35 am   BACKBONE|DICT|INTERRES
    71   34  159 1    
    72   35   36 2    
    73   35   37 1    
    74   37   38 1    
    75   37   39 1    
    76   37  160 1    
    77   38  161 1    
    78   38  162 1    
    79   38  163 1    
    80   39   40 am   BACKBONE|DICT|INTERRES
    81   39  164 1    
    82   40   41 2    
    83   40   42 1    
    84   42   43 1    
    85   42   44 1    
    86   42  165 1    
    87   43  166 1    
    88   43  167 1    
    89   43  168 1    
    90   44   45 am   BACKBONE|DICT|INTERRES
    91   44  169 1    
    92   45   46 2    
    93   45   47 1    
    94   47   48 1    
    95   47   49 1    
    96   47  170 1    
    97   48  171 1    
    98   48  172 1    
    99   48  173 1    
   100   49   50 am   BACKBONE|DICT|INTERRES
   101   49  174 1    
   102   50   51 2    
   103   50   52 1    
   104   52   53 1    
   105   52   54 1    
   106   52  175 1    
   107   53  176 1    
   108   53  177 1    
   109   53  178 1    
   110   54   55 am   BACKBONE|DICT|INTERRES
   111   54  179 1    
   112   55   56 2    
   113   55   57 1    
   114   57   58 1    
   115   57   59 1    
   116   57  180 1    
   117   58  181 1    
   118   58  182 1    
   119   58  183 1    
   120   59   60 am   BACKBONE|DICT|INTERRES
   121   59  184 1    
   122   60   61 2    
   123   60   62 1    
   124   62   63 1    
   125   62   64 1    
   126   62  185 1    
   127   63  186 1    
   128   63  187 1    
   129   63  188 1    
   130   64   65 am   BACKBONE|DICT|INTERRES
   131   64  189 1    
   132   65   66 2    
   133   67   68 2    
   134   67   69 am   BACKBONE|DICT|INTERRES
   135   69   70 1    
   136   69  190 1    
   137   70   71 1    
   138   70   72 1    
   139   70  191 1    
   140   71  192 1    
   141   71  193 1    
   142   71  194 1    
   143   72   73 2    
   144   72   74 am   BACKBONE|DICT|INTERRES
   145   74   75 1    
   146   74  195 1    
   147   75   76 1    
   148   75   77 1    
   149   75  196 1    
   150   76  197 1    
   151   76  198 1    
   152   76  199 1    
   153   77   78 2    
   154   77   79 am   BACKBONE|DICT|INTERRES
   155   79   80 1    
   156   79  200 1    
   157   80   81 1    
   158   80   82 1    
   159   80  201 1    
   160   81  202 1    
   161   81  203 1    
   162   81  204 1    
   163   82   83 2    
   164   82   84 am   BACKBONE|DICT|INTERRES
   165   84   85 1    
   166   84  205 1    
   167   85   86 1    
   168   85   87 1    
   169   85  206 1    
   170   86  207 1    
   171   86  208 1    
   172   86  209 1    
   173   87   88 2    
   174   87   89 am   BACKBONE|DICT|INTERRES
   175   89   90 1    
   176   89  210 1    
   177   90   91 1    
   178   90   92 1    
   179   90  211 1    
   180   91  212 1    
   181   91  213 1    
   182   91  214 1    
   183   92   93 2    
   184   92   94 am   BACKBONE|DICT|INTERRES
   185   94   95 1    
   186   94  215 1    
   187   95   96 1    
   188   95   97 1    
   189   95  216 1    
   190   96  217 1    
   191   96  218 1    
   192   96  219 1    
   193   97   98 2    
   194   97   99 am   BACKBONE|DICT|INTERRES
   195   99  100 1    
   196   99  220 1    
   197  100  101 1    
   198  100  102 1    
   199  100  221 1    
   200  101  222 1    
   201  101  223 1    
   202  101  224 1    
   203  102  103 2    
   204  102  104 am   BACKBONE|DICT|INTERRES
   205  104  105 1    
   206  104  225 1    
   207  105  106 1    
   208  105  107 1    
   209  105  226 1    
   210  106  227 1    
   211  106  228 1    
   212  106  229 1    
   213  107  108 2    
   214  107  109 am   BACKBONE|DICT|INTERRES
   215  109  110 1    
   216  109  230 1    
   217  110  111 1    
   218  110  112 1    
   219  110  231 1    
   220  111  232 1    
   221  111  233 1    
   222  111  234 1    
   223  112  113 2    
   224  112  114 am   BACKBONE|DICT|INTERRES
   225  114  115 1    
   226  114  235 1    
   227  115  116 1    
   228  115  117 1    
   229  115  236 1    
   230  116  237 1    
   231  116  238 1    
   232  116  239 1    
   233  117  118 2    
   234  117  119 am   BACKBONE|DICT|INTERRES
   235  119  120 1    
   236  119  240 1    
   237  120  121 1    
   238  120  124 1    
   239  120  241 1    
   240  121  122 am   BACKBONE|DICT|INTERRES
   241  121  123 2    
   242  122  242 1    
   243  122  243 1    
   244  124  125 1    
   245  124  244 1    
   246  124  245 1    
   247  125  126 1    
   248  126  246 1    
   249  126  247 1    
@<TRIPOS>SUBSTRUCTURE
     1 UNK         1 GROUP             0       ****    0 ROOT    
