@<TRIPOS>MOLECULE
3R540
247   249    1
SMALL
USER_CHARGES


@<TRIPOS>ATOM
      1 CA         -2.0482  -17.7134  -47.9394 C.3       0 UNK        -0.1800 
      2 C          -1.9840  -16.2350  -48.2695 C.2       0 UNK         0.5000 
      3 O          -2.6520  -15.4268  -47.6270 O.2       0 UNK        -0.5000 
      4 N          -1.1665  -15.8816  -49.2662 N.am      1 UNK        -0.5000 
      5 CA         -0.9301  -14.5039  -49.7084 C.3       1 UNK         0.1400 
      6 C6         -0.5890  -14.4499  -51.2181 C.3       23 UNK        -0.0398 
      7 S7          0.9185  -15.3709  -51.6904 S.3       23 UNK        -0.2404 
      8 C8          0.2553  -16.7063  -52.7394 C.3       23 UNK        -0.0205 
      9 C9         -0.1130  -17.9537  -51.9480 C.ar      23 UNK        -0.0193 
     10 C10        -1.4303  -18.4237  -51.9235 C.ar      23 UNK        -0.1150 
     11 C11        -1.7434  -19.6308  -51.2895 C.ar      23 UNK        -0.0193 
     12 C12        -0.7319  -20.3540  -50.6518 C.ar      23 UNK        -0.1150 
     13 C13         0.5890  -19.8951  -50.6676 C.ar      23 UNK        -0.0193 
     14 C14         0.8895  -18.6943  -51.3152 C.ar      23 UNK        -0.1150 
     15 C15         1.7065  -20.7257  -50.0526 C.3       23 UNK        -0.0205 
     16 S16         2.4250  -19.9676  -48.5612 S.3       23 UNK        -0.2404 
     17 C17         1.0525  -20.0977  -47.3724 C.3       23 UNK        -0.0398 
     18 CA          0.8751  -21.5345  -46.8011 C.3       11 UNK         0.1400 
     19 N           0.9232  -21.5776  -45.3349 N.am      11 UNK        -0.5000 
     20 C           0.8997  -22.6975  -44.5960 C.2       10 UNK         0.5000 
     21 O           0.8623  -23.8307  -45.0731 O.2       10 UNK        -0.5000 
     22 CA          0.8589  -22.5288  -43.0660 C.3       10 UNK         0.1400 
     23 CB          2.2550  -22.2267  -42.5014 C.3       10 UNK        -0.1800 
     24 N          -0.0853  -21.4958  -42.6414 N.am      10 UNK        -0.5000 
     25 C          -1.4110  -21.5626  -42.8352 C.2       9 UNK         0.5000 
     26 O          -1.9825  -22.5265  -43.3458 O.2       9 UNK        -0.5000 
     27 CA         -2.2302  -20.3200  -42.4439 C.3       9 UNK         0.1400 
     28 CB         -2.4853  -20.2878  -40.9298 C.3       9 UNK        -0.1800 
     29 N          -1.5948  -19.0703  -42.8639 N.am      9 UNK        -0.5000 
     30 C          -1.3149  -18.7521  -44.1357 C.2       8 UNK         0.5000 
     31 O          -1.5950  -19.4665  -45.0975 O.2       8 UNK        -0.5000 
     32 CA         -0.5336  -17.4484  -44.3692 C.3       8 UNK         0.1400 
     33 CB         -1.4566  -16.2263  -44.2716 C.3       8 UNK        -0.1800 
     34 N           0.5958  -17.2975  -43.4561 N.am      8 UNK        -0.5000 
     35 C           1.6442  -18.1308  -43.3997 C.2       7 UNK         0.5000 
     36 O           1.7814  -19.1115  -44.1281 O.2       7 UNK        -0.5000 
     37 CA          2.6929  -17.8473  -42.3147 C.3       7 UNK         0.1400 
     38 CB          3.6514  -16.7338  -42.7621 C.3       7 UNK        -0.1800 
     39 N           2.0647  -17.4888  -41.0443 N.am      7 UNK        -0.5000 
     40 C           1.3511  -18.3391  -40.2919 C.2       6 UNK         0.5000 
     41 O           1.1908  -19.5298  -40.5643 O.2       6 UNK        -0.5000 
     42 CA          0.6658  -17.7410  -39.0505 C.3       6 UNK         0.1400 
     43 CB          1.6535  -17.6409  -37.8783 C.3       6 UNK        -0.1800 
     44 N           0.0869  -16.4219  -39.3146 N.am      6 UNK        -0.5000 
     45 C          -0.9542  -16.2071  -40.1311 C.2       5 UNK         0.5000 
     46 O          -1.5481  -17.1024  -40.7311 O.2       5 UNK        -0.5000 
     47 CA         -1.3797  -14.7430  -40.3425 C.3       5 UNK         0.1400 
     48 CB         -2.3352  -14.2927  -39.2275 C.3       5 UNK        -0.1800 
     49 N          -0.2544  -13.8074  -40.4268 N.am      5 UNK        -0.5000 
     50 C           0.6905  -13.8365  -41.3754 C.2       4 UNK         0.5000 
     51 O           0.7693  -14.7111  -42.2401 O.2       4 UNK        -0.5000 
     52 CA          1.7445  -12.7208  -41.3368 C.3       4 UNK         0.1400 
     53 CB          3.0913  -13.2594  -40.8305 C.3       4 UNK        -0.1800 
     54 N           1.9189  -12.1553  -42.6730 N.am      4 UNK        -0.5000 
     55 C           1.1423  -11.1940  -43.1898 C.2       3 UNK         0.5000 
     56 O           0.2357  -10.6394  -42.5668 O.2       3 UNK        -0.5000 
     57 CA          1.4285  -10.7711  -44.6430 C.3       3 UNK         0.1400 
     58 CB          2.4988   -9.6691  -44.6812 C.3       3 UNK        -0.1800 
     59 N           1.8508  -11.8812  -45.5006 N.am      3 UNK        -0.5000 
     60 C           1.0281  -12.8349  -45.9560 C.2       2 UNK         0.5000 
     61 O          -0.1676  -12.9043  -45.6633 O.2       2 UNK        -0.5000 
     62 CA          1.6616  -13.8917  -46.8840 C.3       2 UNK         0.1400 
     63 CB          2.2463  -15.0466  -46.0556 C.3       2 UNK        -0.1800 
     64 N           0.7089  -14.4397  -47.8522 N.am      2 UNK        -0.5000 
     65 C           0.1039  -13.7508  -48.8326 C.2       1 UNK         0.5000 
     66 O           0.3369  -12.5632  -49.0662 O.2       1 UNK        -0.5000 
     67 C          -0.4123  -22.1807  -47.3479 C.2       11 UNK         0.5000 
     68 O          -0.3389  -23.0440  -48.2241 O.2       11 UNK        -0.5000 
     69 N          -1.5616  -21.7639  -46.7993 N.am      12 UNK        -0.5000 
     70 CA         -2.8871  -22.2601  -47.1608 C.3       12 UNK         0.1400 
     71 CB         -3.9577  -21.4383  -46.4281 C.3       12 UNK        -0.1800 
     72 C          -3.0606  -23.7622  -46.8814 C.2       12 UNK         0.5000 
     73 O          -3.6401  -24.4639  -47.7089 O.2       12 UNK        -0.5000 
     74 N          -2.5282  -24.2367  -45.7471 N.am      13 UNK        -0.5000 
     75 CA         -2.5117  -25.6525  -45.3825 C.3       13 UNK         0.1400 
     76 CB         -2.0874  -25.7979  -43.9131 C.3       13 UNK        -0.1800 
     77 C          -1.6028  -26.4960  -46.2968 C.2       13 UNK         0.5000 
     78 O          -1.9778  -27.6125  -46.6569 O.2       13 UNK        -0.5000 
     79 N          -0.4263  -25.9571  -46.6428 N.am      14 UNK        -0.5000 
     80 CA          0.5849  -26.6339  -47.4499 C.3       14 UNK         0.1400 
     81 CB          1.9460  -25.9463  -47.2527 C.3       14 UNK        -0.1800 
     82 C           0.2240  -26.7044  -48.9430 C.2       14 UNK         0.5000 
     83 O           0.2247  -27.7965  -49.5133 O.2       14 UNK        -0.5000 
     84 N          -0.0277  -25.5430  -49.5607 N.am      15 UNK        -0.5000 
     85 CA         -0.1422  -25.4158  -51.0145 C.3       15 UNK         0.1400 
     86 CB          0.4168  -24.0521  -51.4468 C.3       15 UNK        -0.1800 
     87 C          -1.5784  -25.5766  -51.5318 C.2       15 UNK         0.5000 
     88 O          -1.7533  -26.0196  -52.6668 O.2       15 UNK        -0.5000 
     89 N          -2.5726  -25.1731  -50.7266 N.am      16 UNK        -0.5000 
     90 CA         -4.0124  -25.0813  -51.0249 C.3       16 UNK         0.1400 
     91 CB         -4.6075  -26.4521  -51.3989 C.3       16 UNK        -0.1800 
     92 C          -4.3906  -24.0027  -52.0643 C.2       16 UNK         0.5000 
     93 O          -5.4096  -23.3341  -51.8902 O.2       16 UNK        -0.5000 
     94 N          -3.5693  -23.8243  -53.1022 N.am      17 UNK        -0.5000 
     95 CA         -3.6903  -22.8003  -54.1303 C.3       17 UNK         0.1400 
     96 CB         -4.6153  -23.2960  -55.2538 C.3       17 UNK        -0.1800 
     97 C          -2.2910  -22.4805  -54.6720 C.2       17 UNK         0.5000 
     98 O          -1.4601  -23.3847  -54.7853 O.2       17 UNK        -0.5000 
     99 N          -2.0686  -21.2122  -55.0219 N.am      18 UNK        -0.5000 
    100 CA        -0.8395  -20.6885  -55.6091 C.3       18 UNK         0.1400 
    101 CB         0.3060  -20.6694  -54.5780 C.3       18 UNK        -0.1800 
    102 C         -1.1685  -19.2957  -56.1595 C.2       18 UNK         0.5000 
    103 O         -1.0091  -18.2983  -55.4536 O.2       18 UNK        -0.5000 
    104 N         -1.7149  -19.2698  -57.3836 N.am      19 UNK        -0.5000 
    105 CA        -2.3000  -18.1283  -58.1040 C.3       19 UNK         0.1400 
    106 CB        -1.2989  -16.9698  -58.2849 C.3       19 UNK        -0.1800 
    107 C         -3.6275  -17.6563  -57.4801 C.2       19 UNK         0.5000 
    108 O         -4.6551  -17.6636  -58.1594 O.2       19 UNK        -0.5000 
    109 N         -3.5920  -17.3126  -56.1889 N.am      20 UNK        -0.5000 
    110 CA        -4.7645  -17.1830  -55.3293 C.3       20 UNK         0.1400 
    111 CB        -4.4422  -16.1985  -54.1942 C.3       20 UNK        -0.1800 
    112 C         -5.1367  -18.5647  -54.7625 C.2       20 UNK         0.5000 
    113 O         -4.2819  -19.4527  -54.6954 O.2       20 UNK        -0.5000 
    114 N         -6.3940  -18.7199  -54.3395 N.am      21 UNK        -0.5000 
    115 CA        -6.9187  -19.9528  -53.7586 C.3       21 UNK         0.1400 
    116 CB        -7.3847  -20.8919  -54.8891 C.3       21 UNK        -0.1800 
    117 C         -8.0483  -19.6015  -52.7715 C.2       21 UNK         0.5000 
    118 O         -9.2190  -19.7539  -53.1187 O.2       21 UNK        -0.5000 
    119 N         -7.7530  -19.0893  -51.5710 N.am      22 UNK        -0.5000 
    120 CA        -6.4445  -18.7768  -50.9848 C.3       22 UNK         0.1400 
    121 C         -6.6174  -17.6004  -49.9851 C.2       22 UNK         0.5000 
    122 N         -5.6693  -16.6754  -49.9266 N.am      22 UNK        -0.7600 
    123 O         -7.6030  -17.5268  -49.2534 O.2       22 UNK        -0.5000 
    124 C124       -5.8027  -20.0275  -50.3252 C.3       23 UNK        -0.0398 
    125 S125       -4.0736  -19.7587  -49.8178 S.3       23 UNK        -0.2404 
    126 C126       -3.1631  -20.1755  -51.3295 C.3       23 UNK        -0.0205 
    127 H127       -1.3449  -17.9452  -47.1480 H         1 UNK         0.0600 
    128 H128       -1.7841  -18.3216  -48.8018 H         1 UNK         0.0600 
    129 H129       -3.0476  -17.9941  -47.6073 H         1 UNK         0.0600 
    130 H130       -0.6470  -16.5899  -49.7679 H         1 UNK         0.3000 
    131 H131       -1.8643  -13.9511  -49.5880 H         1 UNK         0.0600 
    132 H132       -1.4386  -14.8284  -51.7875 H         1 UNK         0.0800 
    133 H133       -0.4682  -13.4147  -51.5418 H         1 UNK         0.0800 
    134 H134       -0.5913  -16.3458  -53.3257 H         1 UNK         0.0800 
    135 H135        1.0184  -16.9820  -53.4687 H         1 UNK         0.0800 
    136 H136       -2.2049  -17.8747  -52.4361 H         1 UNK         0.1150 
    137 H137       -0.9766  -21.2855  -50.1638 H         1 UNK         0.1150 
    138 H138        1.9133  -18.3492  -51.3520 H         1 UNK         0.1150 
    139 H139        1.3619  -21.7315  -49.8160 H         1 UNK         0.0800 
    140 H140        2.4974  -20.8497  -50.7935 H         1 UNK         0.0800 
    141 H141        0.1468  -19.7115  -47.8422 H         1 UNK         0.0800 
    142 H142        1.2690  -19.3867  -46.5775 H         1 UNK         0.0800 
    143 H143        1.7044  -22.1589  -47.1404 H         1 UNK         0.0600 
    144 H144        1.0023  -20.6841  -44.8563 H         1 UNK         0.3000 
    145 H145        0.5240  -23.4767  -42.6397 H         1 UNK         0.0600 
    146 H146        2.2361  -22.1750  -41.4127 H         1 UNK         0.0600 
    147 H147        2.9640  -23.0076  -42.7786 H         1 UNK         0.0600 
    148 H148        2.6482  -21.2806  -42.8724 H         1 UNK         0.0600 
    149 H149        0.3051  -20.6739  -42.1953 H         1 UNK         0.3000 
    150 H150       -3.1948  -20.3869  -42.9511 H         1 UNK         0.0600 
    151 H151       -2.9619  -21.2094  -40.5934 H         1 UNK         0.0600 
    152 H152       -3.1451  -19.4631  -40.6598 H         1 UNK         0.0600 
    153 H153       -1.5583  -20.1711  -40.3674 H         1 UNK         0.0600 
    154 H154       -1.3686  -18.4055  -42.1288 H         1 UNK         0.3000 
    155 H155       -0.1174  -17.4805  -45.3760 H         1 UNK         0.0600 
    156 H156       -1.8793  -16.1182  -43.2735 H         1 UNK         0.0600 
    157 H157       -2.2884  -16.3088  -44.9719 H         1 UNK         0.0600 
    158 H158       -0.9217  -15.3070  -44.5094 H         1 UNK         0.0600 
    159 H159        0.5884  -16.4772  -42.8548 H         1 UNK         0.3000 
    160 H160        3.2760  -18.7579  -42.1612 H         1 UNK         0.0600 
    161 H161        3.1205  -15.8090  -42.9863 H         1 UNK         0.0600 
    162 H162        4.1872  -17.0259  -43.6661 H         1 UNK         0.0600 
    163 H163        4.3971  -16.5201  -41.9963 H         1 UNK         0.0600 
    164 H164        2.1028  -16.5176  -40.7748 H         1 UNK         0.3000 
    165 H165       -0.1423  -18.4155  -38.7593 H         1 UNK         0.0600 
    166 H166        1.1566  -17.2903  -36.9735 H         1 UNK         0.0600 
    167 H167        2.0892  -18.6149  -37.6519 H         1 UNK         0.0600 
    168 H168        2.4742  -16.9568  -38.0976 H         1 UNK         0.0600 
    169 H169        0.5174  -15.6298  -38.8609 H         1 UNK         0.3000 
    170 H170       -1.9200  -14.6928  -41.2898 H         1 UNK         0.0600 
    171 H171       -3.1937  -14.9620  -39.1553 H         1 UNK         0.0600 
    172 H172       -1.8438  -14.2829  -38.2538 H         1 UNK         0.0600 
    173 H173       -2.7217  -13.2916  -39.4194 H         1 UNK         0.0600 
    174 H174       -0.2425  -13.0599  -39.7478 H         1 UNK         0.3000 
    175 H175        1.4149  -11.9378  -40.6503 H         1 UNK         0.0600 
    176 H176        3.5029  -14.0175  -41.4959 H         1 UNK         0.0600 
    177 H177        3.8259  -12.4583  -40.7461 H         1 UNK         0.0600 
    178 H178        2.9874  -13.7092  -39.8423 H         1 UNK         0.0600 
    179 H179        2.6032  -12.5976  -43.2676 H         1 UNK         0.3000 
    180 H180        0.5048  -10.3557  -45.0522 H         1 UNK         0.0600 
    181 H181        3.4587  -10.0249  -44.3049 H         1 UNK         0.0600 
    182 H182        2.2025   -8.8159  -44.0693 H         1 UNK         0.0600 
    183 H183        2.6506   -9.3014  -45.6962 H         1 UNK         0.0600 
    184 H184        2.8208  -11.8902  -45.7815 H         1 UNK         0.3000 
    185 H185        2.4704  -13.4212  -47.4469 H         1 UNK         0.0600 
    186 H186        2.7065  -15.8025  -46.6923 H         1 UNK         0.0600 
    187 H187        3.0151  -14.6880  -45.3703 H         1 UNK         0.0600 
    188 H188        1.4788  -15.5336  -45.4554 H         1 UNK         0.0600 
    189 H189        0.4338  -15.4002  -47.7203 H         1 UNK         0.3000 
    190 H190       -1.5325  -21.0301  -46.0937 H         1 UNK         0.3000 
    191 H191       -3.0133  -22.1085  -48.2344 H         1 UNK         0.0600 
    192 H192       -3.8635  -21.5296  -45.3454 H         1 UNK         0.0600 
    193 H193       -4.9601  -21.7676  -46.7039 H         1 UNK         0.0600 
    194 H194       -3.8818  -20.3805  -46.6811 H         1 UNK         0.0600 
    195 H195       -2.1060  -23.5889  -45.0895 H         1 UNK         0.3000 
    196 H196       -3.5290  -26.0377  -45.4793 H         1 UNK         0.0600 
    197 H197       -2.0749  -26.8457  -43.6107 H         1 UNK         0.0600 
    198 H198       -2.7784  -25.2763  -43.2507 H         1 UNK         0.0600 
    199 H199       -1.0897  -25.3928  -43.7401 H         1 UNK         0.0600 
    200 H200       -0.1712  -25.0494  -46.2657 H         1 UNK         0.3000 
    201 H201        0.6803  -27.6590  -47.0853 H         1 UNK         0.0600 
    202 H202        2.2657  -26.0010  -46.2120 H         1 UNK         0.0600 
    203 H203        1.9128  -24.8932  -47.5353 H         1 UNK         0.0600 
    204 H204        2.7189  -26.4251  -47.8551 H         1 UNK         0.0600 
    205 H205       -0.0521  -24.6809  -49.0185 H         1 UNK         0.3000 
    206 H206        0.4678  -26.1840  -51.4951 H         1 UNK         0.0600 
    207 H207        1.4491  -23.9251  -51.1209 H         1 UNK         0.0600 
    208 H208        0.4023  -23.9487  -52.5328 H         1 UNK         0.0600 
    209 H209       -0.1717  -23.2337  -51.0359 H         1 UNK         0.0600 
    210 H210       -2.3133  -24.8346  -49.8094 H         1 UNK         0.3000 
    211 H211       -4.4875  -24.7748  -50.0937 H         1 UNK         0.0600 
    212 H212       -4.2309  -26.8178  -52.3542 H         1 UNK         0.0600 
    213 H213       -5.6932  -26.3913  -51.4826 H         1 UNK         0.0600 
    214 H214       -4.3814  -27.1998  -50.6386 H         1 UNK         0.0600 
    215 H215       -2.7546  -24.4274  -53.1890 H         1 UNK         0.3000 
    216 H216       -4.1112  -21.8959  -53.6888 H         1 UNK         0.0600 
    217 H217       -4.6862  -22.5584  -56.0538 H         1 UNK         0.0600 
    218 H218       -5.6244  -23.4775  -54.8839 H         1 UNK         0.0600 
    219 H219       -4.2480  -24.2237  -55.6941 H         1 UNK         0.0600 
    220 H220       -2.8204  -20.5306  -54.9115 H         1 UNK         0.3000 
    221 H221       -0.5411  -21.3253  -56.4443 H         1 UNK         0.0600 
    222 H222        0.0090  -20.1587  -53.6653 H         1 UNK         0.0600 
    223 H223        0.6163  -21.6777  -54.3049 H         1 UNK         0.0600 
    224 H224        1.1828  -20.1559  -54.9737 H         1 UNK         0.0600 
    225 H225       -1.8412  -20.1589  -57.8474 H         1 UNK         0.3000 
    226 H226       -2.5381  -18.5029  -59.1009 H         1 UNK         0.0600 
    227 H227       -0.3781  -17.3155  -58.7545 H         1 UNK         0.0600 
    228 H228       -1.7196  -16.1945  -58.9262 H         1 UNK         0.0600 
    229 H229       -1.0353  -16.4963  -57.3392 H         1 UNK         0.0600 
    230 H230       -2.7014  -17.4368  -55.7150 H         1 UNK         0.3000 
    231 H231       -5.6082  -16.7960  -55.9045 H         1 UNK         0.0600 
    232 H232       -5.2898  -16.0840  -53.5173 H         1 UNK         0.0600 
    233 H233       -4.2076  -15.2100  -54.5894 H         1 UNK         0.0600 
    234 H234       -3.5897  -16.5287  -53.6023 H         1 UNK         0.0600 
    235 H235       -7.0456  -17.9489  -54.3989 H         1 UNK         0.3000 
    236 H236       -6.1342  -20.4694  -53.2051 H         1 UNK         0.0600 
    237 H237       -6.5653  -21.1339  -55.5643 H         1 UNK         0.0600 
    238 H238       -7.7628  -21.8313  -54.4842 H         1 UNK         0.0600 
    239 H239       -8.1790  -20.4434  -55.4868 H         1 UNK         0.0600 
    240 H240       -8.5181  -18.8200  -50.9669 H         1 UNK         0.3000 
    241 H241       -5.7839  -18.4239  -51.7761 H         1 UNK         0.0600 
    242 H242       -5.7707  -15.9158  -49.2720 H         1 UNK         0.3800 
    243 H243       -4.8363  -16.7356  -50.4886 H         1 UNK         0.3800 
    244 H244       -6.3749  -20.3285  -49.4460 H         1 UNK         0.0800 
    245 H245       -5.8314  -20.8834  -50.9973 H         1 UNK         0.0800 
    246 H246       -3.6892  -19.7744  -52.1944 H         1 UNK         0.0800 
    247 H247       -3.1436  -21.2588  -51.4501 H         1 UNK         0.0800 
@<TRIPOS>BOND
     1    1    2 1    
     2    1  127 1    
     3    1  128 1    
     4    1  129 1    
     5    2    3 2    
     6    2    4 am   BACKBONE|DICT|INTERRES
     7    4    5 1    
     8    4  130 1    
     9    5    6 1    
    10    5   65 1    
    11    5  131 1    
    12    6    7 1    
    13    6  132 1    
    14    6  133 1    
    15    7    8 1    
    16    8    9 1    
    17    8  134 1    
    18    8  135 1    
    19    9   10 ar   
    20    9   14 ar   
    21   10   11 ar   
    22   10  136 1    
    23   11   12 ar   
    24   11  126 1    
    25   12   13 ar   
    26   12  137 1    
    27   13   14 ar   
    28   13   15 1    
    29   14  138 1    
    30   15   16 1    
    31   15  139 1    
    32   15  140 1    
    33   16   17 1    
    34   17   18 1    
    35   17  141 1    
    36   17  142 1    
    37   18   19 1    
    38   18   67 1    
    39   18  143 1    
    40   19   20 am   BACKBONE|DICT|INTERRES
    41   19  144 1    
    42   20   21 2    
    43   20   22 1    
    44   22   23 1    
    45   22   24 1    
    46   22  145 1    
    47   23  146 1    
    48   23  147 1    
    49   23  148 1    
    50   24   25 am   BACKBONE|DICT|INTERRES
    51   24  149 1    
    52   25   26 2    
    53   25   27 1    
    54   27   28 1    
    55   27   29 1    
    56   27  150 1    
    57   28  151 1    
    58   28  152 1    
    59   28  153 1    
    60   29   30 am   BACKBONE|DICT|INTERRES
    61   29  154 1    
    62   30   31 2    
    63   30   32 1    
    64   32   33 1    
    65   32   34 1    
    66   32  155 1    
    67   33  156 1    
    68   33  157 1    
    69   33  158 1    
    70   34   35 am   BACKBONE|DICT|INTERRES
    71   34  159 1    
    72   35   36 2    
    73   35   37 1    
    74   37   38 1    
    75   37   39 1    
    76   37  160 1    
    77   38  161 1    
    78   38  162 1    
    79   38  163 1    
    80   39   40 am   BACKBONE|DICT|INTERRES
    81   39  164 1    
    82   40   41 2    
    83   40   42 1    
    84   42   43 1    
    85   42   44 1    
    86   42  165 1    
    87   43  166 1    
    88   43  167 1    
    89   43  168 1    
    90   44   45 am   BACKBONE|DICT|INTERRES
    91   44  169 1    
    92   45   46 2    
    93   45   47 1    
    94   47   48 1    
    95   47   49 1    
    96   47  170 1    
    97   48  171 1    
    98   48  172 1    
    99   48  173 1    
   100   49   50 am   BACKBONE|DICT|INTERRES
   101   49  174 1    
   102   50   51 2    
   103   50   52 1    
   104   52   53 1    
   105   52   54 1    
   106   52  175 1    
   107   53  176 1    
   108   53  177 1    
   109   53  178 1    
   110   54   55 am   BACKBONE|DICT|INTERRES
   111   54  179 1    
   112   55   56 2    
   113   55   57 1    
   114   57   58 1    
   115   57   59 1    
   116   57  180 1    
   117   58  181 1    
   118   58  182 1    
   119   58  183 1    
   120   59   60 am   BACKBONE|DICT|INTERRES
   121   59  184 1    
   122   60   61 2    
   123   60   62 1    
   124   62   63 1    
   125   62   64 1    
   126   62  185 1    
   127   63  186 1    
   128   63  187 1    
   129   63  188 1    
   130   64   65 am   BACKBONE|DICT|INTERRES
   131   64  189 1    
   132   65   66 2    
   133   67   68 2    
   134   67   69 am   BACKBONE|DICT|INTERRES
   135   69   70 1    
   136   69  190 1    
   137   70   71 1    
   138   70   72 1    
   139   70  191 1    
   140   71  192 1    
   141   71  193 1    
   142   71  194 1    
   143   72   73 2    
   144   72   74 am   BACKBONE|DICT|INTERRES
   145   74   75 1    
   146   74  195 1    
   147   75   76 1    
   148   75   77 1    
   149   75  196 1    
   150   76  197 1    
   151   76  198 1    
   152   76  199 1    
   153   77   78 2    
   154   77   79 am   BACKBONE|DICT|INTERRES
   155   79   80 1    
   156   79  200 1    
   157   80   81 1    
   158   80   82 1    
   159   80  201 1    
   160   81  202 1    
   161   81  203 1    
   162   81  204 1    
   163   82   83 2    
   164   82   84 am   BACKBONE|DICT|INTERRES
   165   84   85 1    
   166   84  205 1    
   167   85   86 1    
   168   85   87 1    
   169   85  206 1    
   170   86  207 1    
   171   86  208 1    
   172   86  209 1    
   173   87   88 2    
   174   87   89 am   BACKBONE|DICT|INTERRES
   175   89   90 1    
   176   89  210 1    
   177   90   91 1    
   178   90   92 1    
   179   90  211 1    
   180   91  212 1    
   181   91  213 1    
   182   91  214 1    
   183   92   93 2    
   184   92   94 am   BACKBONE|DICT|INTERRES
   185   94   95 1    
   186   94  215 1    
   187   95   96 1    
   188   95   97 1    
   189   95  216 1    
   190   96  217 1    
   191   96  218 1    
   192   96  219 1    
   193   97   98 2    
   194   97   99 am   BACKBONE|DICT|INTERRES
   195   99  100 1    
   196   99  220 1    
   197  100  101 1    
   198  100  102 1    
   199  100  221 1    
   200  101  222 1    
   201  101  223 1    
   202  101  224 1    
   203  102  103 2    
   204  102  104 am   BACKBONE|DICT|INTERRES
   205  104  105 1    
   206  104  225 1    
   207  105  106 1    
   208  105  107 1    
   209  105  226 1    
   210  106  227 1    
   211  106  228 1    
   212  106  229 1    
   213  107  108 2    
   214  107  109 am   BACKBONE|DICT|INTERRES
   215  109  110 1    
   216  109  230 1    
   217  110  111 1    
   218  110  112 1    
   219  110  231 1    
   220  111  232 1    
   221  111  233 1    
   222  111  234 1    
   223  112  113 2    
   224  112  114 am   BACKBONE|DICT|INTERRES
   225  114  115 1    
   226  114  235 1    
   227  115  116 1    
   228  115  117 1    
   229  115  236 1    
   230  116  237 1    
   231  116  238 1    
   232  116  239 1    
   233  117  118 2    
   234  117  119 am   BACKBONE|DICT|INTERRES
   235  119  120 1    
   236  119  240 1    
   237  120  121 1    
   238  120  124 1    
   239  120  241 1    
   240  121  122 am   BACKBONE|DICT|INTERRES
   241  121  123 2    
   242  122  242 1    
   243  122  243 1    
   244  124  125 1    
   245  124  244 1    
   246  124  245 1    
   247  125  126 1    
   248  126  246 1    
   249  126  247 1    
@<TRIPOS>SUBSTRUCTURE
     1 UNK         1 GROUP             0       ****    0 ROOT    
