@<TRIPOS>MOLECULE
3R540
247   249    1
SMALL
USER_CHARGES


@<TRIPOS>ATOM
      1 CA         -1.1304  -16.4499  -42.3812 C.3       0 UNK        -0.1800 
      2 C          -1.8426  -16.9216  -43.6377 C.2       0 UNK         0.5000 
      3 O          -2.5419  -17.9324  -43.6027 O.2       0 UNK        -0.5000 
      4 N          -1.6753  -16.1883  -44.7406 N.am      1 UNK        -0.5000 
      5 CA         -2.2912  -16.4603  -46.0355 C.3       1 UNK         0.1400 
      6 C6         -1.4925  -17.5132  -46.8471 C.3       23 UNK        -0.0398 
      7 S7         -2.5473  -18.4624  -47.9873 S.3       23 UNK        -0.2404 
      8 C8         -1.9896  -17.8707  -49.6119 C.3       23 UNK        -0.0205 
      9 C9         -0.5494  -18.2401  -49.9230 C.ar      23 UNK        -0.0193 
     10 C10         0.3580  -17.2436  -50.2838 C.ar      23 UNK        -0.1150 
     11 C11         1.6530  -17.5726  -50.6919 C.ar      23 UNK        -0.0193 
     12 C12         2.0557  -18.9118  -50.6831 C.ar      23 UNK        -0.1150 
     13 C13         1.1618  -19.9173  -50.3005 C.ar      23 UNK        -0.0193 
     14 C14        -0.1413  -19.5759  -49.9290 C.ar      23 UNK        -0.1150 
     15 C15         1.5875  -21.3769  -50.3269 C.3       23 UNK        -0.0205 
     16 S16         2.7550  -21.7909  -48.9925 S.3       23 UNK        -0.2404 
     17 C17         1.7854  -21.4489  -47.4854 C.3       23 UNK        -0.0398 
     18 CA          0.9643  -22.6757  -47.0059 C.3       11 UNK         0.1400 
     19 N           1.1228  -22.9186  -45.5701 N.am      11 UNK        -0.5000 
     20 C           0.7412  -24.0293  -44.9267 C.2       10 UNK         0.5000 
     21 O           0.2363  -24.9998  -45.4915 O.2       10 UNK        -0.5000 
     22 CA          0.9140  -24.0284  -43.3951 C.3       10 UNK         0.1400 
     23 CB          2.3217  -24.5070  -43.0114 C.3       10 UNK        -0.1800 
     24 N           0.6795  -22.7023  -42.8157 N.am      10 UNK        -0.5000 
     25 C          -0.5327  -22.1407  -42.6952 C.2       9 UNK         0.5000 
     26 O          -1.5803  -22.7312  -42.9568 O.2       9 UNK        -0.5000 
     27 CA         -0.5824  -20.6611  -42.2562 C.3       9 UNK         0.1400 
     28 CB         -0.6935  -20.5482  -40.7292 C.3       9 UNK        -0.1800 
     29 N           0.5633  -19.8661  -42.7113 N.am      9 UNK        -0.5000 
     30 C           0.9113  -19.6821  -43.9924 C.2       8 UNK         0.5000 
     31 O           0.2769  -20.1619  -44.9296 O.2       8 UNK        -0.5000 
     32 CA          2.1832  -18.8681  -44.3022 C.3       8 UNK         0.1400 
     33 CB          1.9101  -17.8050  -45.3755 C.3       8 UNK        -0.1800 
     34 N           2.7946  -18.2325  -43.1328 N.am      8 UNK        -0.5000 
     35 C           3.5494  -18.8672  -42.2226 C.2       7 UNK         0.5000 
     36 O           3.7635  -20.0794  -42.2566 O.2       7 UNK        -0.5000 
     37 CA          4.1615  -18.0295  -41.0796 C.3       7 UNK         0.1400 
     38 CB          5.6633  -17.8131  -41.3220 C.3       7 UNK        -0.1800 
     39 N           3.5265  -16.7243  -40.8935 N.am      7 UNK        -0.5000 
     40 C           2.2845  -16.5256  -40.4321 C.2       6 UNK         0.5000 
     41 O           1.5460  -17.4350  -40.0531 O.2       6 UNK        -0.5000 
     42 CA          1.7701  -15.0696  -40.4262 C.3       6 UNK         0.1400 
     43 CB          1.9502  -14.4482  -39.0331 C.3       6 UNK        -0.1800 
     44 N           2.3981  -14.1913  -41.4241 N.am      6 UNK        -0.5000 
     45 C           2.4101  -14.3926  -42.7497 C.2       5 UNK         0.5000 
     46 O           1.9128  -15.3819  -43.2902 O.2       5 UNK        -0.5000 
     47 CA          3.1676  -13.3459  -43.5901 C.3       5 UNK         0.1400 
     48 CB          4.6833  -13.4786  -43.3644 C.3       5 UNK        -0.1800 
     49 N           2.9058  -13.4833  -45.0237 N.am      5 UNK        -0.5000 
     50 C           1.7734  -13.1269  -45.6413 C.2       4 UNK         0.5000 
     51 O           0.8240  -12.5803  -45.0734 O.2       4 UNK        -0.5000 
     52 CA          1.7142  -13.4325  -47.1481 C.3       4 UNK         0.1400 
     53 CB          1.5934  -14.9424  -47.4012 C.3       4 UNK        -0.1800 
     54 N           0.5688  -12.7670  -47.7637 N.am      4 UNK        -0.5000 
     55 C           0.6083  -12.0604  -48.9008 C.2       3 UNK         0.5000 
     56 O           1.6397  -11.8847  -49.5527 O.2       3 UNK        -0.5000 
     57 CA         -0.7169  -11.4267  -49.3842 C.3       3 UNK         0.1400 
     58 CB         -0.7289  -11.1458  -50.9026 C.3       3 UNK        -0.1800 
     59 N          -1.9146  -12.1751  -48.9844 N.am      3 UNK        -0.5000 
     60 C          -2.2450  -13.4237  -49.3429 C.2       2 UNK         0.5000 
     61 O          -1.5845  -14.1329  -50.1033 O.2       2 UNK        -0.5000 
     62 CA         -3.5364  -13.9837  -48.7162 C.3       2 UNK         0.1400 
     63 CB         -4.5294  -14.4136  -49.8087 C.3       2 UNK        -0.1800 
     64 N          -3.2739  -15.1222  -47.8344 N.am      2 UNK        -0.5000 
     65 C          -2.4438  -15.1239  -46.7832 C.2       1 UNK         0.5000 
     66 O          -1.8215  -14.1297  -46.3966 O.2       1 UNK        -0.5000 
     67 C          -0.5248  -22.5567  -47.3918 C.2       11 UNK         0.5000 
     68 O          -0.9201  -23.0667  -48.4367 O.2       11 UNK        -0.5000 
     69 N          -1.3329  -21.9519  -46.5099 N.am      12 UNK        -0.5000 
     70 CA         -2.7892  -21.8422  -46.6256 C.3       12 UNK         0.1400 
     71 CB         -3.3118  -20.9168  -45.5161 C.3       12 UNK        -0.1800 
     72 C          -3.5264  -23.1942  -46.5668 C.2       12 UNK         0.5000 
     73 O          -4.6552  -23.2815  -47.0515 O.2       12 UNK        -0.5000 
     74 N          -2.8947  -24.2157  -45.9724 N.am      13 UNK        -0.5000 
     75 CA         -3.3856  -25.5919  -45.9687 C.3       13 UNK         0.1400 
     76 CB         -2.9014  -26.3104  -44.7000 C.3       13 UNK        -0.1800 
     77 C          -2.9417  -26.3449  -47.2353 C.2       13 UNK         0.5000 
     78 O          -3.7301  -27.1165  -47.7816 O.2       13 UNK        -0.5000 
     79 N          -1.6999  -26.1040  -47.6846 N.am      14 UNK        -0.5000 
     80 CA         -1.1221  -26.6813  -48.9012 C.3       14 UNK         0.1400 
     81 CB          0.3871  -26.3926  -48.9424 C.3       14 UNK        -0.1800 
     82 C          -1.8236  -26.1727  -50.1744 C.2       14 UNK         0.5000 
     83 O          -2.3067  -26.9760  -50.9732 O.2       14 UNK        -0.5000 
     84 N          -1.9199  -24.8451  -50.3065 N.am      15 UNK        -0.5000 
     85 CA         -2.7460  -24.1465  -51.2850 C.3       15 UNK         0.1400 
     86 CB         -2.0212  -22.8639  -51.7346 C.3       15 UNK        -0.1800 
     87 C          -4.0965  -23.8588  -50.6117 C.2       15 UNK         0.5000 
     88 O          -4.3681  -22.7141  -50.2492 O.2       15 UNK        -0.5000 
     89 N          -4.8703  -24.9341  -50.4061 N.am      16 UNK        -0.5000 
     90 CA         -6.0783  -25.0449  -49.5837 C.3       16 UNK         0.1400 
     91 CB         -6.8007  -26.3522  -49.9467 C.3       16 UNK        -0.1800 
     92 C          -7.0426  -23.8450  -49.6600 C.2       16 UNK         0.5000 
     93 O          -7.6936  -23.6459  -50.6868 O.2       16 UNK        -0.5000 
     94 N          -7.1011  -23.0816  -48.5606 N.am      17 UNK        -0.5000 
     95 CA         -7.9097  -21.8761  -48.3523 C.3       17 UNK         0.1400 
     96 CB         -9.4187  -22.1904  -48.4374 C.3       17 UNK        -0.1800 
     97 C          -7.4748  -20.7003  -49.2520 C.2       17 UNK         0.5000 
     98 O          -8.3199  -19.9430  -49.7321 O.2       17 UNK        -0.5000 
     99 N          -6.1537  -20.5716  -49.4418 N.am      18 UNK        -0.5000 
    100 CA        -5.4567  -19.5694  -50.2520 C.3       18 UNK         0.1400 
    101 CB        -5.6954  -18.1442  -49.7078 C.3       18 UNK        -0.1800 
    102 C         -5.7765  -19.7072  -51.7528 C.2       18 UNK         0.5000 
    103 O         -6.0812  -18.7127  -52.4155 O.2       18 UNK        -0.5000 
    104 N         -5.7119  -20.9501  -52.2505 N.am      19 UNK        -0.5000 
    105 CA        -6.0010  -21.3544  -53.6285 C.3       19 UNK         0.1400 
    106 CB        -5.8420  -22.8798  -53.7490 C.3       19 UNK        -0.1800 
    107 C         -5.1202  -20.6164  -54.6570 C.2       19 UNK         0.5000 
    108 O         -3.9655  -20.9962  -54.8559 O.2       19 UNK        -0.5000 
    109 N         -5.6864  -19.5595  -55.2597 N.am      20 UNK        -0.5000 
    110 CA        -5.0448  -18.6054  -56.1734 C.3       20 UNK         0.1400 
    111 CB        -4.6355  -19.2931  -57.4931 C.3       20 UNK        -0.1800 
    112 C         -3.8865  -17.8228  -55.5141 C.2       20 UNK         0.5000 
    113 O         -2.9039  -17.4963  -56.1850 O.2       20 UNK        -0.5000 
    114 N         -4.0209  -17.5448  -54.2065 N.am      21 UNK        -0.5000 
    115 CA        -3.0187  -16.9319  -53.3293 C.3       21 UNK         0.1400 
    116 CB        -2.8628  -15.4267  -53.6397 C.3       21 UNK        -0.1800 
    117 C         -1.7011  -17.7351  -53.3605 C.2       21 UNK         0.5000 
    118 O         -1.7247  -18.9165  -53.0146 O.2       21 UNK        -0.5000 
    119 N         -0.6001  -17.1075  -53.7932 N.am      22 UNK        -0.5000 
    120 CA         0.7055  -17.7617  -53.9798 C.3       22 UNK         0.1400 
    121 C          0.7972  -18.6769  -55.2387 C.2       22 UNK         0.5000 
    122 N         -0.1926  -18.7148  -56.1239 N.am      22 UNK        -0.7600 
    123 O          1.7940  -19.3713  -55.4184 O.2       22 UNK        -0.5000 
    124 C124        1.8959  -16.7605  -53.9449 C.3       23 UNK        -0.0398 
    125 S125        1.8625  -15.5441  -52.5793 S.3       23 UNK        -0.2404 
    126 C126        2.5902  -16.4828  -51.1924 C.3       23 UNK        -0.0205 
    127 H127       -1.8008  -16.4928  -41.5230 H         1 UNK         0.0600 
    128 H128       -0.7781  -15.4239  -42.4876 H         1 UNK         0.0600 
    129 H129       -0.2722  -17.0899  -42.1797 H         1 UNK         0.0600 
    130 H130       -1.1447  -15.3253  -44.7149 H         1 UNK         0.3000 
    131 H131       -3.3000  -16.8353  -45.8470 H         1 UNK         0.0600 
    132 H132       -1.0519  -18.2476  -46.1735 H         1 UNK         0.0800 
    133 H133       -0.6522  -17.0678  -47.3795 H         1 UNK         0.0800 
    134 H134       -2.1366  -16.7933  -49.6805 H         1 UNK         0.0800 
    135 H135       -2.6218  -18.3136  -50.3797 H         1 UNK         0.0800 
    136 H136        0.0412  -16.2102  -50.3053 H         1 UNK         0.1150 
    137 H137        3.0555  -19.1783  -50.9956 H         1 UNK         0.1150 
    138 H138       -0.8472  -20.3489  -49.6594 H         1 UNK         0.1150 
    139 H139        0.7213  -22.0366  -50.2680 H         1 UNK         0.0800 
    140 H140        2.0615  -21.5906  -51.2858 H         1 UNK         0.0800 
    141 H141        1.1708  -20.5563  -47.6140 H         1 UNK         0.0800 
    142 H142        2.5183  -21.1684  -46.7282 H         1 UNK         0.0800 
    143 H143        1.3478  -23.5692  -47.5027 H         1 UNK         0.0600 
    144 H144        1.4449  -22.1365  -45.0208 H         1 UNK         0.3000 
    145 H145        0.1885  -24.7292  -42.9762 H         1 UNK         0.0600 
    146 H146        2.4336  -24.5728  -41.9290 H         1 UNK         0.0600 
    147 H147        2.5206  -25.4992  -43.4189 H         1 UNK         0.0600 
    148 H148        3.0943  -23.8356  -43.3885 H         1 UNK         0.0600 
    149 H149        1.4922  -22.1588  -42.5612 H         1 UNK         0.3000 
    150 H150       -1.4807  -20.2257  -42.6972 H         1 UNK         0.0600 
    151 H151       -1.5534  -21.1067  -40.3572 H         1 UNK         0.0600 
    152 H152       -0.8219  -19.5103  -40.4204 H         1 UNK         0.0600 
    153 H153        0.1947  -20.9389  -40.2312 H         1 UNK         0.0600 
    154 H154        1.1302  -19.4345  -41.9955 H         1 UNK         0.3000 
    155 H155        2.9077  -19.5701  -44.7193 H         1 UNK         0.0600 
    156 H156        1.1169  -17.1232  -45.0699 H         1 UNK         0.0600 
    157 H157        1.6040  -18.2618  -46.3176 H         1 UNK         0.0600 
    158 H158        2.8041  -17.2156  -45.5769 H         1 UNK         0.0600 
    159 H159        2.6234  -17.2365  -43.0319 H         1 UNK         0.3000 
    160 H160        4.0416  -18.6010  -40.1569 H         1 UNK         0.0600 
    161 H161        5.8447  -17.2313  -42.2267 H         1 UNK         0.0600 
    162 H162        6.1834  -18.7654  -41.4342 H         1 UNK         0.0600 
    163 H163        6.1268  -17.2889  -40.4861 H         1 UNK         0.0600 
    164 H164        4.0592  -15.9178  -41.1830 H         1 UNK         0.3000 
    165 H165        0.7019  -15.1021  -40.6425 H         1 UNK         0.0600 
    166 H166        1.5002  -13.4566  -38.9811 H         1 UNK         0.0600 
    167 H167        1.4719  -15.0599  -38.2668 H         1 UNK         0.0600 
    168 H168        3.0040  -14.3545  -38.7677 H         1 UNK         0.0600 
    169 H169        2.8455  -13.3625  -41.0595 H         1 UNK         0.3000 
    170 H170        2.8474  -12.3522  -43.2701 H         1 UNK         0.0600 
    171 H171        4.9456  -13.3222  -42.3174 H         1 UNK         0.0600 
    172 H172        5.0480  -14.4664  -43.6501 H         1 UNK         0.0600 
    173 H173        5.2341  -12.7381  -43.9450 H         1 UNK         0.0600 
    174 H174        3.6192  -13.9568  -45.5576 H         1 UNK         0.3000 
    175 H175        2.6446  -13.0729  -47.5922 H         1 UNK         0.0600 
    176 H176        0.7851  -15.3755  -46.8137 H         1 UNK         0.0600 
    177 H177        1.3961  -15.1549  -48.4513 H         1 UNK         0.0600 
    178 H178        2.5147  -15.4589  -47.1341 H         1 UNK         0.0600 
    179 H179       -0.3049  -12.8604  -47.2559 H         1 UNK         0.3000 
    180 H180       -0.7839  -10.4635  -48.8766 H         1 UNK         0.0600 
    181 H181       -0.5822  -12.0564  -51.4844 H         1 UNK         0.0600 
    182 H182        0.0656  -10.4517  -51.1790 H         1 UNK         0.0600 
    183 H183       -1.6718  -10.6965  -51.2140 H         1 UNK         0.0600 
    184 H184       -2.5148  -11.6984  -48.3258 H         1 UNK         0.3000 
    185 H185       -4.0096  -13.2048  -48.1150 H         1 UNK         0.0600 
    186 H186       -4.7841  -13.5724  -50.4544 H         1 UNK         0.0600 
    187 H187       -4.1154  -15.1969  -50.4446 H         1 UNK         0.0600 
    188 H188       -5.4592  -14.7853  -49.3778 H         1 UNK         0.0600 
    189 H189       -3.7308  -15.9871  -48.0825 H         1 UNK         0.3000 
    190 H190       -0.9033  -21.4854  -45.7164 H         1 UNK         0.3000 
    191 H191       -3.0110  -21.3910  -47.5946 H         1 UNK         0.0600 
    192 H192       -3.2352  -21.3808  -44.5331 H         1 UNK         0.0600 
    193 H193       -4.3609  -20.6685  -45.6802 H         1 UNK         0.0600 
    194 H194       -2.7573  -19.9801  -45.4787 H         1 UNK         0.0600 
    195 H195       -1.9795  -24.0543  -45.5763 H         1 UNK         0.3000 
    196 H196       -4.4776  -25.5855  -45.9476 H         1 UNK         0.0600 
    197 H197       -3.3135  -27.3187  -44.6452 H         1 UNK         0.0600 
    198 H198       -3.2182  -25.7797  -43.8019 H         1 UNK         0.0600 
    199 H199       -1.8159  -26.4009  -44.6690 H         1 UNK         0.0600 
    200 H200       -1.1041  -25.4843  -47.1504 H         1 UNK         0.3000 
    201 H201       -1.2569  -27.7640  -48.8544 H         1 UNK         0.0600 
    202 H202        0.8874  -26.7807  -48.0549 H         1 UNK         0.0600 
    203 H203        0.5958  -25.3246  -49.0029 H         1 UNK         0.0600 
    204 H204        0.8491  -26.8649  -49.8101 H         1 UNK         0.0600 
    205 H205       -1.5282  -24.2531  -49.5733 H         1 UNK         0.3000 
    206 H206       -2.9183  -24.7693  -52.1651 H         1 UNK         0.0600 
    207 H207       -1.0639  -23.0952  -52.2015 H         1 UNK         0.0600 
    208 H208       -2.6158  -22.3129  -52.4646 H         1 UNK         0.0600 
    209 H209       -1.8288  -22.1918  -50.8980 H         1 UNK         0.0600 
    210 H210       -4.5106  -25.8160  -50.7440 H         1 UNK         0.3000 
    211 H211       -5.7401  -25.1455  -48.5516 H         1 UNK         0.0600 
    212 H212       -7.0928  -26.3711  -50.9974 H         1 UNK         0.0600 
    213 H213       -7.7057  -26.4781  -49.3509 H         1 UNK         0.0600 
    214 H214       -6.1661  -27.2185  -49.7580 H         1 UNK         0.0600 
    215 H215       -6.4255  -23.2793  -47.8256 H         1 UNK         0.3000 
    216 H216       -7.7048  -21.5561  -47.3297 H         1 UNK         0.0600 
    217 H217      -10.0134  -21.3310  -48.1258 H         1 UNK         0.0600 
    218 H218       -9.6861  -23.0218  -47.7853 H         1 UNK         0.0600 
    219 H219       -9.7254  -22.4464  -49.4518 H         1 UNK         0.0600 
    220 H220       -5.5617  -21.3191  -49.0973 H         1 UNK         0.3000 
    221 H221       -4.3954  -19.7949  -50.1466 H         1 UNK         0.0600 
    222 H222       -6.7236  -17.8152  -49.8598 H         1 UNK         0.0600 
    223 H223       -5.4814  -18.0857  -48.6411 H         1 UNK         0.0600 
    224 H224       -5.0491  -17.4265  -50.2118 H         1 UNK         0.0600 
    225 H225       -5.4211  -21.6858  -51.6151 H         1 UNK         0.3000 
    226 H226       -7.0467  -21.1130  -53.8289 H         1 UNK         0.0600 
    227 H227       -6.5202  -23.4041  -53.0766 H         1 UNK         0.0600 
    228 H228       -6.0679  -23.2153  -54.7619 H         1 UNK         0.0600 
    229 H229       -4.8262  -23.2007  -53.5179 H         1 UNK         0.0600 
    230 H230       -6.6269  -19.3145  -54.9811 H         1 UNK         0.3000 
    231 H231       -5.8050  -17.8619  -56.4163 H         1 UNK         0.0600 
    232 H232       -5.4736  -19.8331  -57.9336 H         1 UNK         0.0600 
    233 H233       -3.8193  -20.0009  -57.3462 H         1 UNK         0.0600 
    234 H234       -4.3014  -18.5599  -58.2281 H         1 UNK         0.0600 
    235 H235       -4.8435  -17.9056  -53.7313 H         1 UNK         0.3000 
    236 H236       -3.4064  -17.0178  -52.3138 H         1 UNK         0.0600 
    237 H237       -2.1699  -14.9524  -52.9427 H         1 UNK         0.0600 
    238 H238       -2.4981  -15.2473  -54.6516 H         1 UNK         0.0600 
    239 H239       -3.8173  -14.9104  -53.5381 H         1 UNK         0.0600 
    240 H240       -0.6584  -16.1380  -54.0657 H         1 UNK         0.3000 
    241 H241        0.8368  -18.4436  -53.1405 H         1 UNK         0.0600 
    242 H242       -0.1091  -19.3160  -56.9276 H         1 UNK         0.3800 
    243 H243       -1.0414  -18.1730  -55.9949 H         1 UNK         0.3800 
    244 H244        2.8425  -17.3016  -53.8995 H         1 UNK         0.0800 
    245 H245        1.9240  -16.1904  -54.8750 H         1 UNK         0.0800 
    246 H246        2.7992  -15.7944  -50.3730 H         1 UNK         0.0800 
    247 H247        3.5508  -16.8984  -51.5000 H         1 UNK         0.0800 
@<TRIPOS>BOND
     1    1    2 1    
     2    1  127 1    
     3    1  128 1    
     4    1  129 1    
     5    2    3 2    
     6    2    4 am   BACKBONE|DICT|INTERRES
     7    4    5 1    
     8    4  130 1    
     9    5    6 1    
    10    5   65 1    
    11    5  131 1    
    12    6    7 1    
    13    6  132 1    
    14    6  133 1    
    15    7    8 1    
    16    8    9 1    
    17    8  134 1    
    18    8  135 1    
    19    9   10 ar   
    20    9   14 ar   
    21   10   11 ar   
    22   10  136 1    
    23   11   12 ar   
    24   11  126 1    
    25   12   13 ar   
    26   12  137 1    
    27   13   14 ar   
    28   13   15 1    
    29   14  138 1    
    30   15   16 1    
    31   15  139 1    
    32   15  140 1    
    33   16   17 1    
    34   17   18 1    
    35   17  141 1    
    36   17  142 1    
    37   18   19 1    
    38   18   67 1    
    39   18  143 1    
    40   19   20 am   BACKBONE|DICT|INTERRES
    41   19  144 1    
    42   20   21 2    
    43   20   22 1    
    44   22   23 1    
    45   22   24 1    
    46   22  145 1    
    47   23  146 1    
    48   23  147 1    
    49   23  148 1    
    50   24   25 am   BACKBONE|DICT|INTERRES
    51   24  149 1    
    52   25   26 2    
    53   25   27 1    
    54   27   28 1    
    55   27   29 1    
    56   27  150 1    
    57   28  151 1    
    58   28  152 1    
    59   28  153 1    
    60   29   30 am   BACKBONE|DICT|INTERRES
    61   29  154 1    
    62   30   31 2    
    63   30   32 1    
    64   32   33 1    
    65   32   34 1    
    66   32  155 1    
    67   33  156 1    
    68   33  157 1    
    69   33  158 1    
    70   34   35 am   BACKBONE|DICT|INTERRES
    71   34  159 1    
    72   35   36 2    
    73   35   37 1    
    74   37   38 1    
    75   37   39 1    
    76   37  160 1    
    77   38  161 1    
    78   38  162 1    
    79   38  163 1    
    80   39   40 am   BACKBONE|DICT|INTERRES
    81   39  164 1    
    82   40   41 2    
    83   40   42 1    
    84   42   43 1    
    85   42   44 1    
    86   42  165 1    
    87   43  166 1    
    88   43  167 1    
    89   43  168 1    
    90   44   45 am   BACKBONE|DICT|INTERRES
    91   44  169 1    
    92   45   46 2    
    93   45   47 1    
    94   47   48 1    
    95   47   49 1    
    96   47  170 1    
    97   48  171 1    
    98   48  172 1    
    99   48  173 1    
   100   49   50 am   BACKBONE|DICT|INTERRES
   101   49  174 1    
   102   50   51 2    
   103   50   52 1    
   104   52   53 1    
   105   52   54 1    
   106   52  175 1    
   107   53  176 1    
   108   53  177 1    
   109   53  178 1    
   110   54   55 am   BACKBONE|DICT|INTERRES
   111   54  179 1    
   112   55   56 2    
   113   55   57 1    
   114   57   58 1    
   115   57   59 1    
   116   57  180 1    
   117   58  181 1    
   118   58  182 1    
   119   58  183 1    
   120   59   60 am   BACKBONE|DICT|INTERRES
   121   59  184 1    
   122   60   61 2    
   123   60   62 1    
   124   62   63 1    
   125   62   64 1    
   126   62  185 1    
   127   63  186 1    
   128   63  187 1    
   129   63  188 1    
   130   64   65 am   BACKBONE|DICT|INTERRES
   131   64  189 1    
   132   65   66 2    
   133   67   68 2    
   134   67   69 am   BACKBONE|DICT|INTERRES
   135   69   70 1    
   136   69  190 1    
   137   70   71 1    
   138   70   72 1    
   139   70  191 1    
   140   71  192 1    
   141   71  193 1    
   142   71  194 1    
   143   72   73 2    
   144   72   74 am   BACKBONE|DICT|INTERRES
   145   74   75 1    
   146   74  195 1    
   147   75   76 1    
   148   75   77 1    
   149   75  196 1    
   150   76  197 1    
   151   76  198 1    
   152   76  199 1    
   153   77   78 2    
   154   77   79 am   BACKBONE|DICT|INTERRES
   155   79   80 1    
   156   79  200 1    
   157   80   81 1    
   158   80   82 1    
   159   80  201 1    
   160   81  202 1    
   161   81  203 1    
   162   81  204 1    
   163   82   83 2    
   164   82   84 am   BACKBONE|DICT|INTERRES
   165   84   85 1    
   166   84  205 1    
   167   85   86 1    
   168   85   87 1    
   169   85  206 1    
   170   86  207 1    
   171   86  208 1    
   172   86  209 1    
   173   87   88 2    
   174   87   89 am   BACKBONE|DICT|INTERRES
   175   89   90 1    
   176   89  210 1    
   177   90   91 1    
   178   90   92 1    
   179   90  211 1    
   180   91  212 1    
   181   91  213 1    
   182   91  214 1    
   183   92   93 2    
   184   92   94 am   BACKBONE|DICT|INTERRES
   185   94   95 1    
   186   94  215 1    
   187   95   96 1    
   188   95   97 1    
   189   95  216 1    
   190   96  217 1    
   191   96  218 1    
   192   96  219 1    
   193   97   98 2    
   194   97   99 am   BACKBONE|DICT|INTERRES
   195   99  100 1    
   196   99  220 1    
   197  100  101 1    
   198  100  102 1    
   199  100  221 1    
   200  101  222 1    
   201  101  223 1    
   202  101  224 1    
   203  102  103 2    
   204  102  104 am   BACKBONE|DICT|INTERRES
   205  104  105 1    
   206  104  225 1    
   207  105  106 1    
   208  105  107 1    
   209  105  226 1    
   210  106  227 1    
   211  106  228 1    
   212  106  229 1    
   213  107  108 2    
   214  107  109 am   BACKBONE|DICT|INTERRES
   215  109  110 1    
   216  109  230 1    
   217  110  111 1    
   218  110  112 1    
   219  110  231 1    
   220  111  232 1    
   221  111  233 1    
   222  111  234 1    
   223  112  113 2    
   224  112  114 am   BACKBONE|DICT|INTERRES
   225  114  115 1    
   226  114  235 1    
   227  115  116 1    
   228  115  117 1    
   229  115  236 1    
   230  116  237 1    
   231  116  238 1    
   232  116  239 1    
   233  117  118 2    
   234  117  119 am   BACKBONE|DICT|INTERRES
   235  119  120 1    
   236  119  240 1    
   237  120  121 1    
   238  120  124 1    
   239  120  241 1    
   240  121  122 am   BACKBONE|DICT|INTERRES
   241  121  123 2    
   242  122  242 1    
   243  122  243 1    
   244  124  125 1    
   245  124  244 1    
   246  124  245 1    
   247  125  126 1    
   248  126  246 1    
   249  126  247 1    
@<TRIPOS>SUBSTRUCTURE
     1 UNK         1 GROUP             0       ****    0 ROOT    
