@<TRIPOS>MOLECULE
3R540
247   249    1
SMALL
USER_CHARGES


@<TRIPOS>ATOM
      1 CA          2.0600  -14.1823  -52.3433 C.3       0 UNK        -0.1800 
      2 C           2.7938  -13.0948  -51.5720 C.2       0 UNK         0.5000 
      3 O           2.8361  -11.9496  -52.0210 O.2       0 UNK        -0.5000 
      4 N           3.3837  -13.4547  -50.4257 N.am      1 UNK        -0.5000 
      5 CA          4.1249  -12.5609  -49.5303 C.3       1 UNK         0.1400 
      6 C6          5.0259  -13.3409  -48.5341 C.3       23 UNK        -0.0398 
      7 S7          4.1812  -14.6413  -47.5572 S.3       23 UNK        -0.2404 
      8 C8          4.3142  -16.1022  -48.6517 C.3       23 UNK        -0.0205 
      9 C9          2.9806  -16.7595  -49.0168 C.ar      23 UNK        -0.0193 
     10 C10         1.7664  -16.0607  -48.9987 C.ar      23 UNK        -0.1150 
     11 C11         0.5740  -16.6849  -49.3713 C.ar      23 UNK        -0.0193 
     12 C12         0.5908  -18.0246  -49.7685 C.ar      23 UNK        -0.1150 
     13 C13         1.7922  -18.7376  -49.7966 C.ar      23 UNK        -0.0193 
     14 C14         2.9786  -18.0993  -49.4195 C.ar      23 UNK        -0.1150 
     15 C15         1.8221  -20.1845  -50.2703 C.3       23 UNK        -0.0205 
     16 S16         1.8727  -21.3675  -48.8870 S.3       23 UNK        -0.2404 
     17 C17         0.1206  -21.4317  -48.3909 C.3       23 UNK        -0.0398 
     18 CA         -0.1658  -22.5989  -47.4145 C.3       11 UNK         0.1400 
     19 N           0.4217  -22.3919  -46.0875 N.am      11 UNK        -0.5000 
     20 C           0.4849  -23.3272  -45.1287 C.2       10 UNK         0.5000 
     21 O           0.1316  -24.4949  -45.2927 O.2       10 UNK        -0.5000 
     22 CA          0.9802  -22.8789  -43.7400 C.3       10 UNK         0.1400 
     23 CB          2.5147  -22.8660  -43.6738 C.3       10 UNK        -0.1800 
     24 N           0.4535  -21.5696  -43.3510 N.am      10 UNK        -0.5000 
     25 C          -0.8425  -21.3151  -43.1165 C.2       9 UNK         0.5000 
     26 O          -1.7215  -22.1778  -43.1378 O.2       9 UNK        -0.5000 
     27 CA         -1.2285  -19.8432  -42.8666 C.3       9 UNK         0.1400 
     28 CB         -0.9874  -19.4468  -41.4027 C.3       9 UNK        -0.1800 
     29 N          -0.5194  -18.9173  -43.7516 N.am      9 UNK        -0.5000 
     30 C          -0.6456  -18.9052  -45.0860 C.2       8 UNK         0.5000 
     31 O          -1.4207  -19.6282  -45.7065 O.2       8 UNK        -0.5000 
     32 CA          0.2924  -17.9779  -45.8691 C.3       8 UNK         0.1400 
     33 CB         -0.2736  -16.5571  -45.9274 C.3       8 UNK        -0.1800 
     34 N           1.6466  -17.9629  -45.3184 N.am      8 UNK        -0.5000 
     35 C           2.4709  -19.0199  -45.3371 C.2       7 UNK         0.5000 
     36 O           2.1760  -20.1028  -45.8365 O.2       7 UNK        -0.5000 
     37 CA          3.8234  -18.8644  -44.6202 C.3       7 UNK         0.1400 
     38 CB          4.8405  -18.1570  -45.5254 C.3       7 UNK        -0.1800 
     39 N           3.7006  -18.1300  -43.3623 N.am      7 UNK        -0.5000 
     40 C           3.0165  -18.5608  -42.2925 C.2       6 UNK         0.5000 
     41 O           2.4886  -19.6703  -42.2198 O.2       6 UNK        -0.5000 
     42 CA          2.8450  -17.5525  -41.1391 C.3       6 UNK         0.1400 
     43 CB          4.0131  -17.6581  -40.1480 C.3       6 UNK        -0.1800 
     44 N           2.7328  -16.1700  -41.6180 N.am      6 UNK        -0.5000 
     45 C           1.7210  -15.7174  -42.3710 C.2       5 UNK         0.5000 
     46 O           0.7483  -16.4079  -42.6822 O.2       5 UNK        -0.5000 
     47 CA          1.8792  -14.2932  -42.9370 C.3       5 UNK         0.1400 
     48 CB          2.7359  -14.3295  -44.2125 C.3       5 UNK        -0.1800 
     49 N           0.6010  -13.6508  -43.2479 N.am      5 UNK        -0.5000 
     50 C          -0.2960  -13.2640  -42.3287 C.2       4 UNK         0.5000 
     51 O          -0.1323  -13.4261  -41.1180 O.2       4 UNK        -0.5000 
     52 CA         -1.5675  -12.5353  -42.8136 C.3       4 UNK         0.1400 
     53 CB         -1.6247  -11.1099  -42.2380 C.3       4 UNK        -0.1800 
     54 N          -1.6662  -12.4410  -44.2706 N.am      4 UNK        -0.5000 
     55 C          -2.2574  -13.3423  -45.0647 C.2       3 UNK         0.5000 
     56 O          -2.8030  -14.3643  -44.6495 O.2       3 UNK        -0.5000 
     57 CA         -2.2371  -13.0546  -46.5815 C.3       3 UNK         0.1400 
     58 CB         -3.5967  -12.5141  -47.0501 C.3       3 UNK        -0.1800 
     59 N          -1.1818  -12.1241  -47.0055 N.am      3 UNK        -0.5000 
     60 C           0.1256  -12.4044  -46.9585 C.2       2 UNK         0.5000 
     61 O           0.5760  -13.4554  -46.5043 O.2       2 UNK        -0.5000 
     62 CA          1.1022  -11.3401  -47.4668 C.3       2 UNK         0.1400 
     63 CB          1.6208  -10.4908  -46.2905 C.3       2 UNK        -0.1800 
     64 N           2.1899  -12.0567  -48.1214 N.am      2 UNK        -0.5000 
     65 C           3.1893  -11.5419  -48.8429 C.2       1 UNK         0.5000 
     66 O           3.3627  -10.3345  -49.0165 O.2       1 UNK        -0.5000 
     67 C          -1.6787  -22.8832  -47.3253 C.2       11 UNK         0.5000 
     68 O          -2.1484  -23.8251  -47.9633 O.2       11 UNK        -0.5000 
     69 N          -2.4109  -22.0970  -46.5222 N.am      12 UNK        -0.5000 
     70 CA         -3.8590  -22.2010  -46.3137 C.3       12 UNK         0.1400 
     71 CB         -4.3407  -21.0558  -45.4113 C.3       12 UNK        -0.1800 
     72 C          -4.3134  -23.5562  -45.7492 C.2       12 UNK         0.5000 
     73 O          -5.3866  -24.0302  -46.1219 O.2       12 UNK        -0.5000 
     74 N          -3.4673  -24.1918  -44.9272 N.am      13 UNK        -0.5000 
     75 CA         -3.6686  -25.5477  -44.4069 C.3       13 UNK         0.1400 
     76 CB         -2.5809  -25.8529  -43.3664 C.3       13 UNK        -0.1800 
     77 C          -3.7007  -26.6390  -45.5012 C.2       13 UNK         0.5000 
     78 O          -4.2747  -27.7038  -45.2708 O.2       13 UNK        -0.5000 
     79 N          -3.1128  -26.3487  -46.6695 N.am      14 UNK        -0.5000 
     80 CA         -3.1258  -27.1850  -47.8701 C.3       14 UNK         0.1400 
     81 CB         -1.6674  -27.4390  -48.2906 C.3       14 UNK        -0.1800 
     82 C          -3.9233  -26.5256  -49.0163 C.2       14 UNK         0.5000 
     83 O          -3.8201  -26.9813  -50.1565 O.2       14 UNK        -0.5000 
     84 N          -4.6578  -25.4390  -48.7179 N.am      15 UNK        -0.5000 
     85 CA         -5.4146  -24.5755  -49.6383 C.3       15 UNK         0.1400 
     86 CB         -6.6522  -25.3238  -50.1727 C.3       15 UNK        -0.1800 
     87 C          -4.5668  -23.9683  -50.7804 C.2       15 UNK         0.5000 
     88 O          -5.1099  -23.6366  -51.8362 O.2       15 UNK        -0.5000 
     89 N          -3.2450  -23.8681  -50.5630 N.am      16 UNK        -0.5000 
     90 CA         -2.1977  -23.5511  -51.5398 C.3       16 UNK         0.1400 
     91 CB         -2.1940  -22.0444  -51.8452 C.3       16 UNK        -0.1800 
     92 C          -2.2963  -24.4252  -52.8096 C.2       16 UNK         0.5000 
     93 O          -2.2249  -23.9075  -53.9276 O.2       16 UNK        -0.5000 
     94 N          -2.5540  -25.7261  -52.6007 N.am      17 UNK        -0.5000 
     95 CA         -2.9000  -26.7686  -53.5739 C.3       17 UNK         0.1400 
     96 CB         -1.7835  -26.9815  -54.6147 C.3       17 UNK        -0.1800 
     97 C          -4.2708  -26.5364  -54.2395 C.2       17 UNK         0.5000 
     98 O          -5.1424  -27.4029  -54.1586 O.2       17 UNK        -0.5000 
     99 N          -4.4373  -25.3675  -54.8641 N.am      18 UNK        -0.5000 
    100 CA        -5.6700  -24.8965  -55.4901 C.3       18 UNK         0.1400 
    101 CB        -5.7983  -25.5067  -56.8987 C.3       18 UNK        -0.1800 
    102 C         -5.7659  -23.3583  -55.5410 C.2       18 UNK         0.5000 
    103 O         -6.8085  -22.8487  -55.9544 O.2       18 UNK        -0.5000 
    104 N         -4.7058  -22.6303  -55.1504 N.am      19 UNK        -0.5000 
    105 CA        -4.6395  -21.1673  -55.2490 C.3       19 UNK         0.1400 
    106 CB        -3.1669  -20.7346  -55.3393 C.3       19 UNK        -0.1800 
    107 C         -5.3841  -20.4181  -54.1224 C.2       19 UNK         0.5000 
    108 O         -5.4973  -19.1946  -54.1966 O.2       19 UNK        -0.5000 
    109 N         -5.8669  -21.1457  -53.1035 N.am      20 UNK        -0.5000 
    110 CA        -6.6850  -20.6900  -51.9693 C.3       20 UNK         0.1400 
    111 CB        -7.9937  -20.0294  -52.4507 C.3       20 UNK        -0.1800 
    112 C         -5.9381  -19.8251  -50.9310 C.2       20 UNK         0.5000 
    113 O         -6.5729  -19.3252  -50.0019 O.2       20 UNK        -0.5000 
    114 N         -4.6105  -19.7098  -51.0774 N.am      21 UNK        -0.5000 
    115 CA        -3.6676  -19.0096  -50.2017 C.3       21 UNK         0.1400 
    116 CB        -3.5470  -19.7266  -48.8441 C.3       21 UNK        -0.1800 
    117 C         -3.9684  -17.5044  -50.0718 C.2       21 UNK         0.5000 
    118 O         -4.2028  -17.0039  -48.9700 O.2       21 UNK        -0.5000 
    119 N         -3.8980  -16.8123  -51.2152 N.am      22 UNK        -0.5000 
    120 CA        -3.9917  -15.3479  -51.3498 C.3       22 UNK         0.1400 
    121 C         -5.4214  -14.7839  -51.0739 C.2       22 UNK         0.5000 
    122 N         -5.5814  -13.4729  -50.9409 N.am      22 UNK        -0.7600 
    123 O         -6.4094  -15.5136  -51.0306 O.2       22 UNK        -0.5000 
    124 C124       -2.8683  -14.5911  -50.5730 C.3       23 UNK        -0.0398 
    125 S125       -1.1862  -15.2152  -50.9291 S.3       23 UNK        -0.2404 
    126 C126       -0.7347  -15.9159  -49.3137 C.3       23 UNK        -0.0205 
    127 H127        1.0397  -13.8652  -52.5583 H         1 UNK         0.0600 
    128 H128        2.0137  -15.1181  -51.7858 H         1 UNK         0.0600 
    129 H129        2.5634  -14.3751  -53.2905 H         1 UNK         0.0600 
    130 H130        3.3017  -14.4104  -50.1106 H         1 UNK         0.3000 
    131 H131        4.7997  -11.9751  -50.1588 H         1 UNK         0.0600 
    132 H132        5.4973  -12.6478  -47.8352 H         1 UNK         0.0800 
    133 H133        5.8544  -13.7978  -49.0768 H         1 UNK         0.0800 
    134 H134        4.8281  -15.8396  -49.5767 H         1 UNK         0.0800 
    135 H135        4.9553  -16.8310  -48.1556 H         1 UNK         0.0800 
    136 H136        1.7292  -15.0276  -48.6896 H         1 UNK         0.1150 
    137 H137       -0.3298  -18.5088  -50.0598 H         1 UNK         0.1150 
    138 H138        3.9079  -18.6510  -49.4484 H         1 UNK         0.1150 
    139 H139        0.9680  -20.3995  -50.9143 H         1 UNK         0.0800 
    140 H140        2.7078  -20.3380  -50.8884 H         1 UNK         0.0800 
    141 H141       -0.4696  -21.5438  -49.3002 H         1 UNK         0.0800 
    142 H142       -0.1636  -20.4745  -47.9534 H         1 UNK         0.0800 
    143 H143        0.2903  -23.4997  -47.8315 H         1 UNK         0.0600 
    144 H144        0.8218  -21.4753  -45.9058 H         1 UNK         0.3000 
    145 H145        0.6206  -23.6089  -43.0116 H         1 UNK         0.0600 
    146 H146        2.9216  -23.8510  -43.9051 H         1 UNK         0.0600 
    147 H147        2.9464  -22.1600  -44.3824 H         1 UNK         0.0600 
    148 H148        2.8638  -22.5945  -42.6774 H         1 UNK         0.0600 
    149 H149        1.1235  -20.8129  -43.2652 H         1 UNK         0.3000 
    150 H150       -2.2960  -19.7409  -43.0712 H         1 UNK         0.0600 
    151 H151       -1.2923  -18.4165  -41.2177 H         1 UNK         0.0600 
    152 H152        0.0620  -19.5396  -41.1247 H         1 UNK         0.0600 
    153 H153       -1.5617  -20.0834  -40.7286 H         1 UNK         0.0600 
    154 H154        0.1039  -18.2440  -43.3184 H         1 UNK         0.3000 
    155 H155        0.3563  -18.3549  -46.8911 H         1 UNK         0.0600 
    156 H156       -1.2552  -16.5461  -46.4020 H         1 UNK         0.0600 
    157 H157        0.3829  -15.9187  -46.5116 H         1 UNK         0.0600 
    158 H158       -0.3869  -16.1099  -44.9412 H         1 UNK         0.0600 
    159 H159        1.9338  -17.1225  -44.8422 H         1 UNK         0.3000 
    160 H160        4.2004  -19.8644  -44.3960 H         1 UNK         0.0600 
    161 H161        4.9411  -18.6780  -46.4785 H         1 UNK         0.0600 
    162 H162        5.8277  -18.1291  -45.0642 H         1 UNK         0.0600 
    163 H163        4.5404  -17.1307  -45.7385 H         1 UNK         0.0600 
    164 H164        4.1130  -17.2101  -43.3299 H         1 UNK         0.3000 
    165 H165        1.9230  -17.8051  -40.6111 H         1 UNK         0.0600 
    166 H166        3.8650  -16.9991  -39.2923 H         1 UNK         0.0600 
    167 H167        4.1055  -18.6742  -39.7619 H         1 UNK         0.0600 
    168 H168        4.9639  -17.3963  -40.6140 H         1 UNK         0.0600 
    169 H169        3.5007  -15.5518  -41.3980 H         1 UNK         0.3000 
    170 H170        2.3910  -13.6804  -42.1921 H         1 UNK         0.0600 
    171 H171        2.8834  -13.3292  -44.6196 H         1 UNK         0.0600 
    172 H172        3.7250  -14.7451  -44.0170 H         1 UNK         0.0600 
    173 H173        2.2738  -14.9369  -44.9912 H         1 UNK         0.0600 
    174 H174        0.3851  -13.5287  -44.2289 H         1 UNK         0.3000 
    175 H175       -2.4246  -13.0899  -42.4257 H         1 UNK         0.0600 
    176 H176       -0.7791  -10.5070  -42.5718 H         1 UNK         0.0600 
    177 H177       -2.5403  -10.6000  -42.5382 H         1 UNK         0.0600 
    178 H178       -1.6077  -11.1241  -41.1475 H         1 UNK         0.0600 
    179 H179       -1.2438  -11.6315  -44.7003 H         1 UNK         0.3000 
    180 H180       -2.0670  -14.0098  -47.0808 H         1 UNK         0.0600 
    181 H181       -3.6209  -12.3887  -48.1327 H         1 UNK         0.0600 
    182 H182       -3.8252  -11.5503  -46.5936 H         1 UNK         0.0600 
    183 H183       -4.4021  -13.2016  -46.7876 H         1 UNK         0.0600 
    184 H184       -1.4856  -11.2347  -47.3756 H         1 UNK         0.3000 
    185 H185        0.6020  -10.7040  -48.1994 H         1 UNK         0.0600 
    186 H186        2.1619  -11.0991  -45.5647 H         1 UNK         0.0600 
    187 H187        2.2907   -9.7009  -46.6289 H         1 UNK         0.0600 
    188 H188        0.7970  -10.0070  -45.7644 H         1 UNK         0.0600 
    189 H189        2.1475  -13.0593  -47.9851 H         1 UNK         0.3000 
    190 H190       -1.9559  -21.3045  -46.0713 H         1 UNK         0.3000 
    191 H191       -4.3379  -22.0887  -47.2876 H         1 UNK         0.0600 
    192 H192       -3.8852  -21.1054  -44.4226 H         1 UNK         0.0600 
    193 H193       -5.4223  -21.0926  -45.2766 H         1 UNK         0.0600 
    194 H194       -4.1020  -20.0832  -45.8410 H         1 UNK         0.0600 
    195 H195       -2.6178  -23.7158  -44.6490 H         1 UNK         0.3000 
    196 H196       -4.6364  -25.5658  -43.9018 H         1 UNK         0.0600 
    197 H197       -2.7501  -26.8235  -42.8986 H         1 UNK         0.0600 
    198 H198       -2.5713  -25.1057  -42.5724 H         1 UNK         0.0600 
    199 H199       -1.5888  -25.8762  -43.8170 H         1 UNK         0.0600 
    200 H200       -2.6687  -25.4433  -46.7791 H         1 UNK         0.3000 
    201 H201       -3.5985  -28.1474  -47.6659 H         1 UNK         0.0600 
    202 H202       -1.1025  -27.9081  -47.4850 H         1 UNK         0.0600 
    203 H203       -1.1601  -26.5109  -48.5577 H         1 UNK         0.0600 
    204 H204       -1.6134  -28.1052  -49.1525 H         1 UNK         0.0600 
    205 H205       -4.6903  -25.1507  -47.7471 H         1 UNK         0.3000 
    206 H206       -5.7665  -23.7312  -49.0442 H         1 UNK         0.0600 
    207 H207       -7.3023  -24.6557  -50.7390 H         1 UNK         0.0600 
    208 H208       -6.3718  -26.1447  -50.8338 H         1 UNK         0.0600 
    209 H209       -7.2460  -25.7365  -49.3572 H         1 UNK         0.0600 
    210 H210       -2.9082  -24.1051  -49.6325 H         1 UNK         0.3000 
    211 H211       -1.2456  -23.7983  -51.0680 H         1 UNK         0.0600 
    212 H212       -3.1170  -21.7418  -52.3350 H         1 UNK         0.0600 
    213 H213       -1.3620  -21.7769  -52.4975 H         1 UNK         0.0600 
    214 H214       -2.0906  -21.4599  -50.9344 H         1 UNK         0.0600 
    215 H215       -2.7014  -26.0131  -51.6386 H         1 UNK         0.3000 
    216 H216       -2.9845  -27.6901  -52.9954 H         1 UNK         0.0600 
    217 H217       -2.0179  -27.8256  -55.2642 H         1 UNK         0.0600 
    218 H218       -0.8317  -27.1989  -54.1302 H         1 UNK         0.0600 
    219 H219       -1.6416  -26.1111  -55.2554 H         1 UNK         0.0600 
    220 H220       -3.6500  -24.7281  -54.8426 H         1 UNK         0.3000 
    221 H221       -6.5152  -25.2324  -54.8857 H         1 UNK         0.0600 
    222 H222       -4.9623  -25.2165  -57.5360 H         1 UNK         0.0600 
    223 H223       -5.8272  -26.5956  -56.8593 H         1 UNK         0.0600 
    224 H224       -6.7159  -25.1792  -57.3890 H         1 UNK         0.0600 
    225 H225       -3.8809  -23.0832  -54.7771 H         1 UNK         0.3000 
    226 H226       -5.1180  -20.8650  -56.1830 H         1 UNK         0.0600 
    227 H227       -2.6856  -21.1706  -56.2148 H         1 UNK         0.0600 
    228 H228       -3.0783  -19.6513  -55.4304 H         1 UNK         0.0600 
    229 H229       -2.5950  -21.0375  -54.4651 H         1 UNK         0.0600 
    230 H230       -5.6521  -22.1385  -53.0856 H         1 UNK         0.3000 
    231 H231       -6.9664  -21.5995  -51.4369 H         1 UNK         0.0600 
    232 H232       -7.8133  -19.0602  -52.9162 H         1 UNK         0.0600 
    233 H233       -8.5115  -20.6599  -53.1735 H         1 UNK         0.0600 
    234 H234       -8.6777  -19.8648  -51.6175 H         1 UNK         0.0600 
    235 H235       -4.2118  -20.1473  -51.8941 H         1 UNK         0.3000 
    236 H236       -2.6928  -19.0798  -50.6861 H         1 UNK         0.0600 
    237 H237       -4.4794  -19.6860  -48.2809 H         1 UNK         0.0600 
    238 H238       -3.2818  -20.7737  -48.9799 H         1 UNK         0.0600 
    239 H239       -2.7716  -19.2713  -48.2264 H         1 UNK         0.0600 
    240 H240       -3.7546  -17.3178  -52.0770 H         1 UNK         0.3000 
    241 H241       -3.8275  -15.1609  -52.4114 H         1 UNK         0.0600 
    242 H242       -6.5105  -13.1141  -50.7835 H         1 UNK         0.3800 
    243 H243       -4.8125  -12.8265  -51.0157 H         1 UNK         0.3800 
    244 H244       -2.8689  -13.5336  -50.8384 H         1 UNK         0.0800 
    245 H245       -3.0563  -14.6275  -49.4990 H         1 UNK         0.0800 
    246 H246       -1.5224  -16.5748  -48.9515 H         1 UNK         0.0800 
    247 H247       -0.6580  -15.1033  -48.5915 H         1 UNK         0.0800 
@<TRIPOS>BOND
     1    1    2 1    
     2    1  127 1    
     3    1  128 1    
     4    1  129 1    
     5    2    3 2    
     6    2    4 am   BACKBONE|DICT|INTERRES
     7    4    5 1    
     8    4  130 1    
     9    5    6 1    
    10    5   65 1    
    11    5  131 1    
    12    6    7 1    
    13    6  132 1    
    14    6  133 1    
    15    7    8 1    
    16    8    9 1    
    17    8  134 1    
    18    8  135 1    
    19    9   10 ar   
    20    9   14 ar   
    21   10   11 ar   
    22   10  136 1    
    23   11   12 ar   
    24   11  126 1    
    25   12   13 ar   
    26   12  137 1    
    27   13   14 ar   
    28   13   15 1    
    29   14  138 1    
    30   15   16 1    
    31   15  139 1    
    32   15  140 1    
    33   16   17 1    
    34   17   18 1    
    35   17  141 1    
    36   17  142 1    
    37   18   19 1    
    38   18   67 1    
    39   18  143 1    
    40   19   20 am   BACKBONE|DICT|INTERRES
    41   19  144 1    
    42   20   21 2    
    43   20   22 1    
    44   22   23 1    
    45   22   24 1    
    46   22  145 1    
    47   23  146 1    
    48   23  147 1    
    49   23  148 1    
    50   24   25 am   BACKBONE|DICT|INTERRES
    51   24  149 1    
    52   25   26 2    
    53   25   27 1    
    54   27   28 1    
    55   27   29 1    
    56   27  150 1    
    57   28  151 1    
    58   28  152 1    
    59   28  153 1    
    60   29   30 am   BACKBONE|DICT|INTERRES
    61   29  154 1    
    62   30   31 2    
    63   30   32 1    
    64   32   33 1    
    65   32   34 1    
    66   32  155 1    
    67   33  156 1    
    68   33  157 1    
    69   33  158 1    
    70   34   35 am   BACKBONE|DICT|INTERRES
    71   34  159 1    
    72   35   36 2    
    73   35   37 1    
    74   37   38 1    
    75   37   39 1    
    76   37  160 1    
    77   38  161 1    
    78   38  162 1    
    79   38  163 1    
    80   39   40 am   BACKBONE|DICT|INTERRES
    81   39  164 1    
    82   40   41 2    
    83   40   42 1    
    84   42   43 1    
    85   42   44 1    
    86   42  165 1    
    87   43  166 1    
    88   43  167 1    
    89   43  168 1    
    90   44   45 am   BACKBONE|DICT|INTERRES
    91   44  169 1    
    92   45   46 2    
    93   45   47 1    
    94   47   48 1    
    95   47   49 1    
    96   47  170 1    
    97   48  171 1    
    98   48  172 1    
    99   48  173 1    
   100   49   50 am   BACKBONE|DICT|INTERRES
   101   49  174 1    
   102   50   51 2    
   103   50   52 1    
   104   52   53 1    
   105   52   54 1    
   106   52  175 1    
   107   53  176 1    
   108   53  177 1    
   109   53  178 1    
   110   54   55 am   BACKBONE|DICT|INTERRES
   111   54  179 1    
   112   55   56 2    
   113   55   57 1    
   114   57   58 1    
   115   57   59 1    
   116   57  180 1    
   117   58  181 1    
   118   58  182 1    
   119   58  183 1    
   120   59   60 am   BACKBONE|DICT|INTERRES
   121   59  184 1    
   122   60   61 2    
   123   60   62 1    
   124   62   63 1    
   125   62   64 1    
   126   62  185 1    
   127   63  186 1    
   128   63  187 1    
   129   63  188 1    
   130   64   65 am   BACKBONE|DICT|INTERRES
   131   64  189 1    
   132   65   66 2    
   133   67   68 2    
   134   67   69 am   BACKBONE|DICT|INTERRES
   135   69   70 1    
   136   69  190 1    
   137   70   71 1    
   138   70   72 1    
   139   70  191 1    
   140   71  192 1    
   141   71  193 1    
   142   71  194 1    
   143   72   73 2    
   144   72   74 am   BACKBONE|DICT|INTERRES
   145   74   75 1    
   146   74  195 1    
   147   75   76 1    
   148   75   77 1    
   149   75  196 1    
   150   76  197 1    
   151   76  198 1    
   152   76  199 1    
   153   77   78 2    
   154   77   79 am   BACKBONE|DICT|INTERRES
   155   79   80 1    
   156   79  200 1    
   157   80   81 1    
   158   80   82 1    
   159   80  201 1    
   160   81  202 1    
   161   81  203 1    
   162   81  204 1    
   163   82   83 2    
   164   82   84 am   BACKBONE|DICT|INTERRES
   165   84   85 1    
   166   84  205 1    
   167   85   86 1    
   168   85   87 1    
   169   85  206 1    
   170   86  207 1    
   171   86  208 1    
   172   86  209 1    
   173   87   88 2    
   174   87   89 am   BACKBONE|DICT|INTERRES
   175   89   90 1    
   176   89  210 1    
   177   90   91 1    
   178   90   92 1    
   179   90  211 1    
   180   91  212 1    
   181   91  213 1    
   182   91  214 1    
   183   92   93 2    
   184   92   94 am   BACKBONE|DICT|INTERRES
   185   94   95 1    
   186   94  215 1    
   187   95   96 1    
   188   95   97 1    
   189   95  216 1    
   190   96  217 1    
   191   96  218 1    
   192   96  219 1    
   193   97   98 2    
   194   97   99 am   BACKBONE|DICT|INTERRES
   195   99  100 1    
   196   99  220 1    
   197  100  101 1    
   198  100  102 1    
   199  100  221 1    
   200  101  222 1    
   201  101  223 1    
   202  101  224 1    
   203  102  103 2    
   204  102  104 am   BACKBONE|DICT|INTERRES
   205  104  105 1    
   206  104  225 1    
   207  105  106 1    
   208  105  107 1    
   209  105  226 1    
   210  106  227 1    
   211  106  228 1    
   212  106  229 1    
   213  107  108 2    
   214  107  109 am   BACKBONE|DICT|INTERRES
   215  109  110 1    
   216  109  230 1    
   217  110  111 1    
   218  110  112 1    
   219  110  231 1    
   220  111  232 1    
   221  111  233 1    
   222  111  234 1    
   223  112  113 2    
   224  112  114 am   BACKBONE|DICT|INTERRES
   225  114  115 1    
   226  114  235 1    
   227  115  116 1    
   228  115  117 1    
   229  115  236 1    
   230  116  237 1    
   231  116  238 1    
   232  116  239 1    
   233  117  118 2    
   234  117  119 am   BACKBONE|DICT|INTERRES
   235  119  120 1    
   236  119  240 1    
   237  120  121 1    
   238  120  124 1    
   239  120  241 1    
   240  121  122 am   BACKBONE|DICT|INTERRES
   241  121  123 2    
   242  122  242 1    
   243  122  243 1    
   244  124  125 1    
   245  124  244 1    
   246  124  245 1    
   247  125  126 1    
   248  126  246 1    
   249  126  247 1    
@<TRIPOS>SUBSTRUCTURE
     1 UNK         1 GROUP             0       ****    0 ROOT    
