@<TRIPOS>MOLECULE
3R540
247   249    1
SMALL
USER_CHARGES


@<TRIPOS>ATOM
      1 CA          5.8534  -10.0603  -50.7632 C.3       0 UNK        -0.1800 
      2 C           5.7885  -10.5664  -49.3292 C.2       0 UNK         0.5000 
      3 O           6.7177  -10.3347  -48.5556 O.2       0 UNK        -0.5000 
      4 N           4.6972  -11.2574  -48.9750 N.am      1 UNK        -0.5000 
      5 CA          4.4525  -11.8256  -47.6416 C.3       1 UNK         0.1400 
      6 C6          3.2703  -12.8242  -47.6457 C.3       23 UNK        -0.0398 
      7 S7          3.5270  -14.2136  -48.7992 S.3       23 UNK        -0.2404 
      8 C8          3.0014  -15.6220  -47.7743 C.3       23 UNK        -0.0205 
      9 C9          2.6278  -16.8230  -48.6299 C.ar      23 UNK        -0.0193 
     10 C10         1.5296  -16.7498  -49.4937 C.ar      23 UNK        -0.1150 
     11 C11         1.1513  -17.8538  -50.2623 C.ar      23 UNK        -0.0193 
     12 C12         1.8963  -19.0321  -50.1779 C.ar      23 UNK        -0.1150 
     13 C13         2.9798  -19.1286  -49.2992 C.ar      23 UNK        -0.0193 
     14 C14         3.3471  -18.0179  -48.5334 C.ar      23 UNK        -0.1150 
     15 C15         3.7330  -20.4436  -49.1599 C.3       23 UNK        -0.0205 
     16 S16         3.0935  -21.4505  -47.7806 S.3       23 UNK        -0.2404 
     17 C17         1.3688  -21.7148  -48.3116 C.3       23 UNK        -0.0398 
     18 CA          0.6271  -22.7762  -47.4694 C.3       11 UNK         0.1400 
     19 N           0.3884  -22.3408  -46.0886 N.am      11 UNK        -0.5000 
     20 C          -0.1336  -23.1149  -45.1260 C.2       10 UNK         0.5000 
     21 O          -0.4443  -24.2942  -45.2901 O.2       10 UNK        -0.5000 
     22 CA         -0.4069  -22.4545  -43.7640 C.3       10 UNK         0.1400 
     23 CB          0.8956  -22.2466  -42.9770 C.3       10 UNK        -0.1800 
     24 N          -1.1280  -21.1881  -43.8892 N.am      10 UNK        -0.5000 
     25 C          -2.3651  -21.0673  -44.3933 C.2       9 UNK         0.5000 
     26 O          -3.0468  -22.0207  -44.7709 O.2       9 UNK        -0.5000 
     27 CA         -2.9217  -19.6385  -44.5397 C.3       9 UNK         0.1400 
     28 CB         -3.4592  -19.1193  -43.1980 C.3       9 UNK        -0.1800 
     29 N          -1.9405  -18.6935  -45.0734 N.am      9 UNK        -0.5000 
     30 C          -1.3472  -18.8071  -46.2704 C.2       8 UNK         0.5000 
     31 O          -1.5803  -19.7120  -47.0680 O.2       8 UNK        -0.5000 
     32 CA         -0.2604  -17.7741  -46.6042 C.3       8 UNK         0.1400 
     33 CB         -0.8875  -16.4282  -47.0031 C.3       8 UNK        -0.1800 
     34 N           0.6868  -17.5929  -45.5024 N.am      8 UNK        -0.5000 
     35 C           1.4558  -18.5764  -45.0087 C.2       7 UNK         0.5000 
     36 O           1.4783  -19.7216  -45.4550 O.2       7 UNK        -0.5000 
     37 CA          2.2836  -18.2466  -43.7575 C.3       7 UNK         0.1400 
     38 CB          3.5829  -17.5175  -44.1314 C.3       7 UNK        -0.1800 
     39 N           1.5113  -17.4563  -42.7983 N.am      7 UNK        -0.5000 
     40 C           0.4682  -17.9366  -42.1031 C.2       6 UNK         0.5000 
     41 O           0.0928  -19.1071  -42.1576 O.2       6 UNK        -0.5000 
     42 CA         -0.3160  -16.9338  -41.2363 C.3       6 UNK         0.1400 
     43 CB          0.3250  -16.8028  -39.8470 C.3       6 UNK        -0.1800 
     44 N          -0.4107  -15.6107  -41.8529 N.am      6 UNK        -0.5000 
     45 C          -1.0618  -15.3451  -42.9949 C.2       5 UNK         0.5000 
     46 O          -1.7170  -16.1825  -43.6142 O.2       5 UNK        -0.5000 
     47 CA         -0.9108  -13.9207  -43.5639 C.3       5 UNK         0.1400 
     48 CB         -2.0612  -13.0221  -43.0885 C.3       5 UNK        -0.1800 
     49 N           0.3663  -13.3029  -43.1989 N.am      5 UNK        -0.5000 
     50 C           1.5682  -13.7190  -43.6146 C.2       4 UNK         0.5000 
     51 O           1.7152  -14.6339  -44.4274 O.2       4 UNK        -0.5000 
     52 CA          2.7942  -13.0273  -42.9772 C.3       4 UNK         0.1400 
     53 CB          4.1301  -13.5650  -43.5204 C.3       4 UNK        -0.1800 
     54 N           2.7671  -11.5647  -43.0956 N.am      4 UNK        -0.5000 
     55 C           2.0121  -10.7435  -42.3481 C.2       3 UNK         0.5000 
     56 O           1.2045  -11.1533  -41.5121 O.2       3 UNK        -0.5000 
     57 CA          2.1712   -9.2209  -42.5363 C.3       3 UNK         0.1400 
     58 CB          2.9239   -8.6117  -41.3429 C.3       3 UNK        -0.1800 
     59 N           2.8634   -8.8400  -43.7663 N.am      3 UNK        -0.5000 
     60 C           2.3271   -8.8661  -44.9923 C.2       2 UNK         0.5000 
     61 O           1.1695   -9.2173  -45.2246 O.2       2 UNK        -0.5000 
     62 CA          3.2398   -8.4537  -46.1672 C.3       2 UNK         0.1400 
     63 CB          4.5030   -7.6704  -45.7432 C.3       2 UNK        -0.1800 
     64 N           3.6103   -9.6083  -46.9895 N.am      2 UNK        -0.5000 
     65 C           4.2096  -10.7365  -46.5758 C.2       1 UNK         0.5000 
     66 O           4.5594  -10.9412  -45.4127 O.2       1 UNK        -0.5000 
     67 C          -0.6804  -23.1843  -48.1752 C.2       11 UNK         0.5000 
     68 O          -0.7213  -24.2446  -48.7997 O.2       11 UNK        -0.5000 
     69 N          -1.7283  -22.3590  -48.0396 N.am      12 UNK        -0.5000 
     70 CA         -3.0560  -22.5928  -48.6048 C.3       12 UNK         0.1400 
     71 CB         -3.9483  -21.3705  -48.3493 C.3       12 UNK        -0.1800 
     72 C          -3.7169  -23.8817  -48.0886 C.2       12 UNK         0.5000 
     73 O          -4.3485  -24.5879  -48.8749 O.2       12 UNK        -0.5000 
     74 N          -3.5324  -24.1827  -46.7973 N.am      13 UNK        -0.5000 
     75 CA         -3.9711  -25.4293  -46.1776 C.3       13 UNK         0.1400 
     76 CB         -3.9441  -25.2803  -44.6486 C.3       13 UNK        -0.1800 
     77 C          -3.1251  -26.6340  -46.6293 C.2       13 UNK         0.5000 
     78 O          -3.6904  -27.6531  -47.0262 O.2       13 UNK        -0.5000 
     79 N          -1.7926  -26.4994  -46.5610 N.am      14 UNK        -0.5000 
     80 CA         -0.8307  -27.5702  -46.8334 C.3       14 UNK         0.1400 
     81 CB          0.5725  -27.1277  -46.3909 C.3       14 UNK        -0.1800 
     82 C          -0.8093  -28.0293  -48.3009 C.2       14 UNK         0.5000 
     83 O          -0.7958  -29.2337  -48.5585 O.2       14 UNK        -0.5000 
     84 N          -0.8093  -27.0694  -49.2342 N.am      15 UNK        -0.5000 
     85 CA         -0.7803  -27.3273  -50.6760 C.3       15 UNK         0.1400 
     86 CB         -0.0816  -26.1484  -51.3743 C.3       15 UNK        -0.1800 
     87 C          -2.1830  -27.5443  -51.2742 C.2       15 UNK         0.5000 
     88 O          -2.2820  -27.8928  -52.4510 O.2       15 UNK        -0.5000 
     89 N          -3.2335  -27.2871  -50.4783 N.am      16 UNK        -0.5000 
     90 CA         -4.6518  -27.2299  -50.8582 C.3       16 UNK         0.1400 
     91 CB         -5.1600  -28.5972  -51.3595 C.3       16 UNK        -0.1800 
     92 C          -4.9680  -26.0760  -51.8373 C.2       16 UNK         0.5000 
     93 O          -6.0016  -26.0956  -52.5080 O.2       16 UNK        -0.5000 
     94 N          -4.0869  -25.0653  -51.8743 N.am      17 UNK        -0.5000 
     95 CA         -4.1937  -23.8648  -52.7013 C.3       17 UNK         0.1400 
     96 CB         -2.8137  -23.1982  -52.8180 C.3       17 UNK        -0.1800 
     97 C          -5.2610  -22.8698  -52.2083 C.2       17 UNK         0.5000 
     98 O          -5.5287  -21.8944  -52.9079 O.2       17 UNK        -0.5000 
     99 N          -5.8886  -23.1325  -51.0513 N.am      18 UNK        -0.5000 
    100 CA        -7.0485  -22.4041  -50.5238 C.3       18 UNK         0.1400 
    101 CB        -7.4916  -23.0471  -49.2000 C.3       18 UNK        -0.1800 
    102 C         -8.2357  -22.3465  -51.5057 C.2       18 UNK         0.5000 
    103 O         -8.9179  -21.3242  -51.5739 O.2       18 UNK        -0.5000 
    104 N         -8.4134  -23.4137  -52.2984 N.am      19 UNK        -0.5000 
    105 CA        -9.3972  -23.5076  -53.3810 C.3       19 UNK         0.1400 
    106 CB        -9.4384  -24.9595  -53.8813 C.3       19 UNK        -0.1800 
    107 C         -9.1261  -22.5413  -54.5549 C.2       19 UNK         0.5000 
    108 O        -10.0519  -22.2262  -55.3030 O.2       19 UNK        -0.5000 
    109 N         -7.8749  -22.0826  -54.6853 N.am      20 UNK        -0.5000 
    110 CA        -7.4113  -21.1060  -55.6698 C.3       20 UNK         0.1400 
    111 CB        -6.1896  -21.6975  -56.3957 C.3       20 UNK        -0.1800 
    112 C         -7.0640  -19.7572  -55.0053 C.2       20 UNK         0.5000 
    113 O         -6.4026  -18.9302  -55.6350 O.2       20 UNK        -0.5000 
    114 N         -7.4745  -19.5643  -53.7403 N.am      21 UNK        -0.5000 
    115 CA        -7.2215  -18.3937  -52.8909 C.3       21 UNK         0.1400 
    116 CB        -8.0376  -17.1839  -53.3911 C.3       21 UNK        -0.1800 
    117 C         -5.7186  -18.0765  -52.7152 C.2       21 UNK         0.5000 
    118 O         -5.3301  -16.9072  -52.7072 O.2       21 UNK        -0.5000 
    119 N         -4.9015  -19.1320  -52.5952 N.am      22 UNK        -0.5000 
    120 CA        -3.4288  -19.1039  -52.5506 C.3       22 UNK         0.1400 
    121 C         -2.7514  -18.8776  -53.9392 C.2       22 UNK         0.5000 
    122 N         -3.4825  -18.8098  -55.0463 N.am      22 UNK        -0.7600 
    123 O         -1.5310  -18.7953  -54.0300 O.2       22 UNK        -0.5000 
    124 C124       -2.8682  -18.1719  -51.4327 C.3       23 UNK        -0.0398 
    125 S125       -1.4175  -18.8455  -50.5506 S.3       23 UNK        -0.2404 
    126 C126       -0.0706  -17.7812  -51.1660 C.3       23 UNK        -0.0205 
    127 H127        4.9686  -10.3435  -51.3339 H         1 UNK         0.0600 
    128 H128        6.7283  -10.4713  -51.2669 H         1 UNK         0.0600 
    129 H129        5.9315   -8.9732  -50.7741 H         1 UNK         0.0600 
    130 H130        3.9836  -11.4429  -49.6656 H         1 UNK         0.3000 
    131 H131        5.3513  -12.3695  -47.3423 H         1 UNK         0.0600 
    132 H132        2.3412  -12.3227  -47.9230 H         1 UNK         0.0800 
    133 H133        3.1083  -13.2219  -46.6428 H         1 UNK         0.0800 
    134 H134        3.8003  -15.8707  -47.0743 H         1 UNK         0.0800 
    135 H135        2.1402  -15.3402  -47.1687 H         1 UNK         0.0800 
    136 H136        0.9608  -15.8326  -49.5532 H         1 UNK         0.1150 
    137 H137        1.6032  -19.8882  -50.7691 H         1 UNK         0.1150 
    138 H138        4.1807  -18.0927  -47.8494 H         1 UNK         0.1150 
    139 H139        3.6743  -21.0167  -50.0865 H         1 UNK         0.0800 
    140 H140        4.7924  -20.2451  -48.9915 H         1 UNK         0.0800 
    141 H141        1.3919  -22.0077  -49.3632 H         1 UNK         0.0800 
    142 H142        0.8357  -20.7634  -48.2635 H         1 UNK         0.0800 
    143 H143        1.2537  -23.6694  -47.4232 H         1 UNK         0.0600 
    144 H144        0.6476  -21.3816  -45.8679 H         1 UNK         0.3000 
    145 H145       -1.0384  -23.1357  -43.1898 H         1 UNK         0.0600 
    146 H146        0.6942  -21.8602  -41.9778 H         1 UNK         0.0600 
    147 H147        1.4341  -23.1877  -42.8594 H         1 UNK         0.0600 
    148 H148        1.5645  -21.5466  -43.4772 H         1 UNK         0.0600 
    149 H149       -0.6463  -20.3568  -43.5627 H         1 UNK         0.3000 
    150 H150       -3.7540  -19.6789  -45.2449 H         1 UNK         0.0600 
    151 H151       -4.2198  -19.7900  -42.7965 H         1 UNK         0.0600 
    152 H152       -3.9175  -18.1365  -43.3107 H         1 UNK         0.0600 
    153 H153       -2.6684  -19.0352  -42.4525 H         1 UNK         0.0600 
    154 H154       -1.7146  -17.8914  -44.4916 H         1 UNK         0.3000 
    155 H155        0.3003  -18.1613  -47.4557 H         1 UNK         0.0600 
    156 H156       -1.5303  -16.0276  -46.2204 H         1 UNK         0.0600 
    157 H157       -1.4992  -16.5433  -47.8989 H         1 UNK         0.0600 
    158 H158       -0.1298  -15.6788  -47.2241 H         1 UNK         0.0600 
    159 H159        0.7312  -16.6781  -45.0737 H         1 UNK         0.3000 
    160 H160        2.5560  -19.1890  -43.2773 H         1 UNK         0.0600 
    161 H161        3.3908  -16.5849  -44.6600 H         1 UNK         0.0600 
    162 H162        4.1973  -18.1376  -44.7855 H         1 UNK         0.0600 
    163 H163        4.1776  -17.2889  -43.2470 H         1 UNK         0.0600 
    164 H164        1.7286  -16.4728  -42.7400 H         1 UNK         0.3000 
    165 H165       -1.3289  -17.3219  -41.1113 H         1 UNK         0.0600 
    166 H166       -0.2644  -16.1521  -39.2006 H         1 UNK         0.0600 
    167 H167        0.3907  -17.7743  -39.3551 H         1 UNK         0.0600 
    168 H168        1.3349  -16.3948  -39.9044 H         1 UNK         0.0600 
    169 H169        0.0890  -14.8594  -41.4009 H         1 UNK         0.3000 
    170 H170       -0.9556  -13.9919  -44.6527 H         1 UNK         0.0600 
    171 H171       -3.0276  -13.4462  -43.3646 H         1 UNK         0.0600 
    172 H172       -2.0534  -12.8972  -42.0050 H         1 UNK         0.0600 
    173 H173       -1.9997  -12.0321  -43.5408 H         1 UNK         0.0600 
    174 H174        0.3412  -12.5382  -42.5302 H         1 UNK         0.3000 
    175 H175        2.7675  -13.2758  -41.9142 H         1 UNK         0.0600 
    176 H176        4.2131  -13.4403  -44.5988 H         1 UNK         0.0600 
    177 H177        4.9776  -13.0579  -43.0591 H         1 UNK         0.0600 
    178 H178        4.2367  -14.6287  -43.3072 H         1 UNK         0.0600 
    179 H179        3.3864  -11.1628  -43.7929 H         1 UNK         0.3000 
    180 H180        1.1674   -8.7915  -42.5584 H         1 UNK         0.0600 
    181 H181        3.9418   -8.9968  -41.2704 H         1 UNK         0.0600 
    182 H182        2.4191   -8.8394  -40.4030 H         1 UNK         0.0600 
    183 H183        2.9797   -7.5259  -41.4239 H         1 UNK         0.0600 
    184 H184        3.8334   -8.5744  -43.6748 H         1 UNK         0.3000 
    185 H185        2.6430   -7.7960  -46.8008 H         1 UNK         0.0600 
    186 H186        4.2413   -6.7896  -45.1552 H         1 UNK         0.0600 
    187 H187        5.1905   -8.2757  -45.1516 H         1 UNK         0.0600 
    188 H188        5.0502   -7.3190  -46.6181 H         1 UNK         0.0600 
    189 H189        3.3508   -9.5493  -47.9638 H         1 UNK         0.3000 
    190 H190       -1.6068  -21.4799  -47.5389 H         1 UNK         0.3000 
    191 H191       -2.9373  -22.6994  -49.6820 H         1 UNK         0.0600 
    192 H192       -3.5273  -20.4745  -48.8053 H         1 UNK         0.0600 
    193 H193       -4.9392  -21.5074  -48.7752 H         1 UNK         0.0600 
    194 H194       -4.0721  -21.1791  -47.2833 H         1 UNK         0.0600 
    195 H195       -3.0434  -23.5215  -46.2028 H         1 UNK         0.3000 
    196 H196       -5.0046  -25.6153  -46.4778 H         1 UNK         0.0600 
    197 H197       -4.2710  -26.1987  -44.1596 H         1 UNK         0.0600 
    198 H198       -4.6099  -24.4816  -44.3209 H         1 UNK         0.0600 
    199 H199       -2.9435  -25.0490  -44.2816 H         1 UNK         0.0600 
    200 H200       -1.4030  -25.6273  -46.2100 H         1 UNK         0.3000 
    201 H201       -1.1163  -28.4311  -46.2254 H         1 UNK         0.0600 
    202 H202        0.5971  -26.9064  -45.3238 H         1 UNK         0.0600 
    203 H203        0.8992  -26.2346  -46.9252 H         1 UNK         0.0600 
    204 H204        1.3085  -27.9110  -46.5768 H         1 UNK         0.0600 
    205 H205       -0.8111  -26.0914  -48.9486 H         1 UNK         0.3000 
    206 H206       -0.1953  -28.2284  -50.8718 H         1 UNK         0.0600 
    207 H207        0.9078  -25.9691  -50.9533 H         1 UNK         0.0600 
    208 H208        0.0497  -26.3463  -52.4388 H         1 UNK         0.0600 
    209 H209       -0.6566  -25.2263  -51.2835 H         1 UNK         0.0600 
    210 H210       -3.0350  -27.0199  -49.5235 H         1 UNK         0.3000 
    211 H211       -5.1947  -26.9993  -49.9405 H         1 UNK         0.0600 
    212 H212       -4.7365  -28.8601  -52.3289 H         1 UNK         0.0600 
    213 H213       -6.2448  -28.5919  -51.4712 H         1 UNK         0.0600 
    214 H214       -4.9114  -29.3918  -50.6561 H         1 UNK         0.0600 
    215 H215       -3.2989  -25.1147  -51.2459 H         1 UNK         0.3000 
    216 H216       -4.4972  -24.1747  -53.7034 H         1 UNK         0.0600 
    217 H217       -2.8515  -22.3373  -53.4868 H         1 UNK         0.0600 
    218 H218       -2.0783  -23.8900  -53.2293 H         1 UNK         0.0600 
    219 H219       -2.4400  -22.8492  -51.8569 H         1 UNK         0.0600 
    220 H220       -5.5651  -23.9217  -50.5040 H         1 UNK         0.3000 
    221 H221       -6.7368  -21.3764  -50.3288 H         1 UNK         0.0600 
    222 H222       -7.7825  -24.0892  -49.3383 H         1 UNK         0.0600 
    223 H223       -6.6990  -23.0219  -48.4535 H         1 UNK         0.0600 
    224 H224       -8.3481  -22.5203  -48.7771 H         1 UNK         0.0600 
    225 H225       -7.7928  -24.2043  -52.1860 H         1 UNK         0.3000 
    226 H226      -10.3771  -23.2566  -52.9700 H         1 UNK         0.0600 
    227 H227       -9.7103  -25.6458  -53.0791 H         1 UNK         0.0600 
    228 H228      -10.1766  -25.0803  -54.6753 H         1 UNK         0.0600 
    229 H229       -8.4725  -25.2745  -54.2787 H         1 UNK         0.0600 
    230 H230       -7.1807  -22.3569  -53.9997 H         1 UNK         0.3000 
    231 H231       -8.1884  -20.9082  -56.4103 H         1 UNK         0.0600 
    232 H232       -6.4307  -22.6562  -56.8549 H         1 UNK         0.0600 
    233 H233       -5.3531  -21.8537  -55.7131 H         1 UNK         0.0600 
    234 H234       -5.8450  -21.0365  -57.1918 H         1 UNK         0.0600 
    235 H235       -8.0007  -20.3074  -53.2976 H         1 UNK         0.3000 
    236 H236       -7.5920  -18.6530  -51.8982 H         1 UNK         0.0600 
    237 H237       -7.9601  -16.3450  -52.6987 H         1 UNK         0.0600 
    238 H238       -7.6915  -16.8377  -54.3655 H         1 UNK         0.0600 
    239 H239       -9.0952  -17.4322  -53.4798 H         1 UNK         0.0600 
    240 H240       -5.3032  -20.0636  -52.6722 H         1 UNK         0.3000 
    241 H241       -3.1656  -20.1277  -52.2842 H         1 UNK         0.0600 
    242 H242       -3.0163  -18.6760  -55.9291 H         1 UNK         0.3800 
    243 H243       -4.4950  -18.8570  -55.0235 H         1 UNK         0.3800 
    244 H244       -3.6253  -18.0225  -50.6619 H         1 UNK         0.0800 
    245 H245       -2.6571  -17.1742  -51.8207 H         1 UNK         0.0800 
    246 H246       -0.4217  -16.7510  -51.2399 H         1 UNK         0.0800 
    247 H247        0.2076  -18.0888  -52.1743 H         1 UNK         0.0800 
@<TRIPOS>BOND
     1    1    2 1    
     2    1  127 1    
     3    1  128 1    
     4    1  129 1    
     5    2    3 2    
     6    2    4 am   BACKBONE|DICT|INTERRES
     7    4    5 1    
     8    4  130 1    
     9    5    6 1    
    10    5   65 1    
    11    5  131 1    
    12    6    7 1    
    13    6  132 1    
    14    6  133 1    
    15    7    8 1    
    16    8    9 1    
    17    8  134 1    
    18    8  135 1    
    19    9   10 ar   
    20    9   14 ar   
    21   10   11 ar   
    22   10  136 1    
    23   11   12 ar   
    24   11  126 1    
    25   12   13 ar   
    26   12  137 1    
    27   13   14 ar   
    28   13   15 1    
    29   14  138 1    
    30   15   16 1    
    31   15  139 1    
    32   15  140 1    
    33   16   17 1    
    34   17   18 1    
    35   17  141 1    
    36   17  142 1    
    37   18   19 1    
    38   18   67 1    
    39   18  143 1    
    40   19   20 am   BACKBONE|DICT|INTERRES
    41   19  144 1    
    42   20   21 2    
    43   20   22 1    
    44   22   23 1    
    45   22   24 1    
    46   22  145 1    
    47   23  146 1    
    48   23  147 1    
    49   23  148 1    
    50   24   25 am   BACKBONE|DICT|INTERRES
    51   24  149 1    
    52   25   26 2    
    53   25   27 1    
    54   27   28 1    
    55   27   29 1    
    56   27  150 1    
    57   28  151 1    
    58   28  152 1    
    59   28  153 1    
    60   29   30 am   BACKBONE|DICT|INTERRES
    61   29  154 1    
    62   30   31 2    
    63   30   32 1    
    64   32   33 1    
    65   32   34 1    
    66   32  155 1    
    67   33  156 1    
    68   33  157 1    
    69   33  158 1    
    70   34   35 am   BACKBONE|DICT|INTERRES
    71   34  159 1    
    72   35   36 2    
    73   35   37 1    
    74   37   38 1    
    75   37   39 1    
    76   37  160 1    
    77   38  161 1    
    78   38  162 1    
    79   38  163 1    
    80   39   40 am   BACKBONE|DICT|INTERRES
    81   39  164 1    
    82   40   41 2    
    83   40   42 1    
    84   42   43 1    
    85   42   44 1    
    86   42  165 1    
    87   43  166 1    
    88   43  167 1    
    89   43  168 1    
    90   44   45 am   BACKBONE|DICT|INTERRES
    91   44  169 1    
    92   45   46 2    
    93   45   47 1    
    94   47   48 1    
    95   47   49 1    
    96   47  170 1    
    97   48  171 1    
    98   48  172 1    
    99   48  173 1    
   100   49   50 am   BACKBONE|DICT|INTERRES
   101   49  174 1    
   102   50   51 2    
   103   50   52 1    
   104   52   53 1    
   105   52   54 1    
   106   52  175 1    
   107   53  176 1    
   108   53  177 1    
   109   53  178 1    
   110   54   55 am   BACKBONE|DICT|INTERRES
   111   54  179 1    
   112   55   56 2    
   113   55   57 1    
   114   57   58 1    
   115   57   59 1    
   116   57  180 1    
   117   58  181 1    
   118   58  182 1    
   119   58  183 1    
   120   59   60 am   BACKBONE|DICT|INTERRES
   121   59  184 1    
   122   60   61 2    
   123   60   62 1    
   124   62   63 1    
   125   62   64 1    
   126   62  185 1    
   127   63  186 1    
   128   63  187 1    
   129   63  188 1    
   130   64   65 am   BACKBONE|DICT|INTERRES
   131   64  189 1    
   132   65   66 2    
   133   67   68 2    
   134   67   69 am   BACKBONE|DICT|INTERRES
   135   69   70 1    
   136   69  190 1    
   137   70   71 1    
   138   70   72 1    
   139   70  191 1    
   140   71  192 1    
   141   71  193 1    
   142   71  194 1    
   143   72   73 2    
   144   72   74 am   BACKBONE|DICT|INTERRES
   145   74   75 1    
   146   74  195 1    
   147   75   76 1    
   148   75   77 1    
   149   75  196 1    
   150   76  197 1    
   151   76  198 1    
   152   76  199 1    
   153   77   78 2    
   154   77   79 am   BACKBONE|DICT|INTERRES
   155   79   80 1    
   156   79  200 1    
   157   80   81 1    
   158   80   82 1    
   159   80  201 1    
   160   81  202 1    
   161   81  203 1    
   162   81  204 1    
   163   82   83 2    
   164   82   84 am   BACKBONE|DICT|INTERRES
   165   84   85 1    
   166   84  205 1    
   167   85   86 1    
   168   85   87 1    
   169   85  206 1    
   170   86  207 1    
   171   86  208 1    
   172   86  209 1    
   173   87   88 2    
   174   87   89 am   BACKBONE|DICT|INTERRES
   175   89   90 1    
   176   89  210 1    
   177   90   91 1    
   178   90   92 1    
   179   90  211 1    
   180   91  212 1    
   181   91  213 1    
   182   91  214 1    
   183   92   93 2    
   184   92   94 am   BACKBONE|DICT|INTERRES
   185   94   95 1    
   186   94  215 1    
   187   95   96 1    
   188   95   97 1    
   189   95  216 1    
   190   96  217 1    
   191   96  218 1    
   192   96  219 1    
   193   97   98 2    
   194   97   99 am   BACKBONE|DICT|INTERRES
   195   99  100 1    
   196   99  220 1    
   197  100  101 1    
   198  100  102 1    
   199  100  221 1    
   200  101  222 1    
   201  101  223 1    
   202  101  224 1    
   203  102  103 2    
   204  102  104 am   BACKBONE|DICT|INTERRES
   205  104  105 1    
   206  104  225 1    
   207  105  106 1    
   208  105  107 1    
   209  105  226 1    
   210  106  227 1    
   211  106  228 1    
   212  106  229 1    
   213  107  108 2    
   214  107  109 am   BACKBONE|DICT|INTERRES
   215  109  110 1    
   216  109  230 1    
   217  110  111 1    
   218  110  112 1    
   219  110  231 1    
   220  111  232 1    
   221  111  233 1    
   222  111  234 1    
   223  112  113 2    
   224  112  114 am   BACKBONE|DICT|INTERRES
   225  114  115 1    
   226  114  235 1    
   227  115  116 1    
   228  115  117 1    
   229  115  236 1    
   230  116  237 1    
   231  116  238 1    
   232  116  239 1    
   233  117  118 2    
   234  117  119 am   BACKBONE|DICT|INTERRES
   235  119  120 1    
   236  119  240 1    
   237  120  121 1    
   238  120  124 1    
   239  120  241 1    
   240  121  122 am   BACKBONE|DICT|INTERRES
   241  121  123 2    
   242  122  242 1    
   243  122  243 1    
   244  124  125 1    
   245  124  244 1    
   246  124  245 1    
   247  125  126 1    
   248  126  246 1    
   249  126  247 1    
@<TRIPOS>SUBSTRUCTURE
     1 UNK         1 GROUP             0       ****    0 ROOT    
