@<TRIPOS>MOLECULE
3R540
247   249    1
SMALL
USER_CHARGES


@<TRIPOS>ATOM
      1 CA         -0.0477  -11.5320  -45.0778 C.3       0 UNK        -0.1800 
      2 C           0.6362  -11.6265  -46.4343 C.2       0 UNK         0.5000 
      3 O           1.6219  -10.9304  -46.6759 O.2       0 UNK        -0.5000 
      4 N           0.1312  -12.4981  -47.3171 N.am      1 UNK        -0.5000 
      5 CA          0.6801  -12.7713  -48.6545 C.3       1 UNK         0.1400 
      6 C6         -0.3063  -13.5763  -49.5364 C.3       23 UNK        -0.0398 
      7 S7         -0.9409  -15.0937  -48.7416 S.3       23 UNK        -0.2404 
      8 C8         -1.6861  -15.9541  -50.1558 C.3       23 UNK        -0.0205 
      9 C9         -0.6795  -16.8523  -50.8544 C.ar      23 UNK        -0.0193 
     10 C10         0.0328  -16.3948  -51.9675 C.ar      23 UNK        -0.1150 
     11 C11         0.9233  -17.2422  -52.6334 C.ar      23 UNK        -0.0193 
     12 C12         1.1010  -18.5507  -52.1751 C.ar      23 UNK        -0.1150 
     13 C13         0.3876  -19.0213  -51.0699 C.ar      23 UNK        -0.0193 
     14 C14        -0.4951  -18.1643  -50.4078 C.ar      23 UNK        -0.1150 
     15 C15         0.5287  -20.4717  -50.6376 C.3       23 UNK        -0.0205 
     16 S16         1.8497  -20.7095  -49.4077 S.3       23 UNK        -0.2404 
     17 C17         1.0082  -20.3160  -47.8361 C.3       23 UNK        -0.0398 
     18 CA          0.4300  -21.5761  -47.1418 C.3       11 UNK         0.1400 
     19 N           0.3898  -21.4460  -45.6835 N.am      11 UNK        -0.5000 
     20 C           0.1151  -22.4483  -44.8366 C.2       10 UNK         0.5000 
     21 O          -0.0826  -23.6083  -45.1952 O.2       10 UNK        -0.5000 
     22 CA         -0.0131  -22.0905  -43.3449 C.3       10 UNK         0.1400 
     23 CB          1.3672  -22.0221  -42.6758 C.3       10 UNK        -0.1800 
     24 N          -0.7397  -20.8386  -43.1264 N.am      10 UNK        -0.5000 
     25 C          -2.0247  -20.6455  -43.4584 C.2       9 UNK         0.5000 
     26 O          -2.7434  -21.5219  -43.9382 O.2       9 UNK        -0.5000 
     27 CA         -2.5917  -19.2271  -43.2706 C.3       9 UNK         0.1400 
     28 CB         -2.9766  -18.9811  -41.8044 C.3       9 UNK        -0.1800 
     29 N          -1.6690  -18.1847  -43.7196 N.am      9 UNK        -0.5000 
     30 C          -1.2408  -18.0340  -44.9816 C.2       8 UNK         0.5000 
     31 O          -1.6090  -18.7387  -45.9222 O.2       8 UNK        -0.5000 
     32 CA         -0.1702  -16.9531  -45.2157 C.3       8 UNK         0.1400 
     33 CB         -0.7925  -15.5495  -45.2062 C.3       8 UNK        -0.1800 
     34 N           0.9050  -17.0145  -44.2250 N.am      8 UNK        -0.5000 
     35 C           1.7117  -18.0693  -44.0383 C.2       7 UNK         0.5000 
     36 O           1.6738  -19.0888  -44.7241 O.2       7 UNK        -0.5000 
     37 CA          2.6942  -17.9921  -42.8591 C.3       7 UNK         0.1400 
     38 CB          3.9576  -17.2100  -43.2441 C.3       7 UNK        -0.1800 
     39 N           2.0763  -17.3942  -41.6763 N.am      7 UNK        -0.5000 
     40 C           1.1096  -17.9808  -40.9555 C.2       6 UNK         0.5000 
     41 O           0.6695  -19.1063  -41.1882 O.2       6 UNK        -0.5000 
     42 CA          0.5022  -17.1482  -39.8127 C.3       6 UNK         0.1400 
     43 CB          1.3786  -17.2315  -38.5542 C.3       6 UNK        -0.1800 
     44 N           0.3191  -15.7452  -40.1868 N.am      6 UNK        -0.5000 
     45 C          -0.5437  -15.3180  -41.1199 C.2       5 UNK         0.5000 
     46 O          -1.3140  -16.0605  -41.7276 O.2       5 UNK        -0.5000 
     47 CA         -0.5011  -13.8174  -41.4644 C.3       5 UNK         0.1400 
     48 CB         -1.4272  -13.0211  -40.5339 C.3       5 UNK        -0.1800 
     49 N           0.8523  -13.2583  -41.4012 N.am      5 UNK        -0.5000 
     50 C           1.8504  -13.6031  -42.2243 C.2       4 UNK         0.5000 
     51 O           1.7340  -14.4313  -43.1313 O.2       4 UNK        -0.5000 
     52 CA          3.2137  -12.9545  -41.9517 C.3       4 UNK         0.1400 
     53 CB          4.0733  -13.8717  -41.0686 C.3       4 UNK        -0.1800 
     54 N           3.9079  -12.7244  -43.2142 N.am      4 UNK        -0.5000 
     55 C           4.0066  -11.5439  -43.8322 C.2       3 UNK         0.5000 
     56 O           3.5764  -10.4902  -43.3613 O.2       3 UNK        -0.5000 
     57 CA          4.6845  -11.5262  -45.2149 C.3       3 UNK         0.1400 
     58 CB          6.2205  -11.5307  -45.0926 C.3       3 UNK        -0.1800 
     59 N           4.2020  -12.5652  -46.1334 N.am      3 UNK        -0.5000 
     60 C           4.3904  -13.8928  -46.1018 C.2       2 UNK         0.5000 
     61 O           5.0440  -14.4672  -45.2304 O.2       2 UNK        -0.5000 
     62 CA          3.6979  -14.7052  -47.2162 C.3       2 UNK         0.1400 
     63 CB          3.5079  -16.1842  -46.8432 C.3       2 UNK        -0.1800 
     64 N           2.3897  -14.1275  -47.5210 N.am      2 UNK        -0.5000 
     65 C           2.0793  -13.4276  -48.6194 C.2       1 UNK         0.5000 
     66 O           2.8546  -13.2499  -49.5594 O.2       1 UNK        -0.5000 
     67 C          -0.9496  -21.9621  -47.7140 C.2       11 UNK         0.5000 
     68 O          -1.0291  -22.8687  -48.5419 O.2       11 UNK        -0.5000 
     69 N          -2.0172  -21.3025  -47.2414 N.am      12 UNK        -0.5000 
     70 CA         -3.3994  -21.6036  -47.6193 C.3       12 UNK         0.1400 
     71 CB         -4.3417  -20.5366  -47.0454 C.3       12 UNK        -0.1800 
     72 C          -3.8421  -23.0185  -47.2001 C.2       12 UNK         0.5000 
     73 O          -4.5118  -23.6974  -47.9799 O.2       12 UNK        -0.5000 
     74 N          -3.4249  -23.4530  -46.0025 N.am      13 UNK        -0.5000 
     75 CA         -3.6329  -24.8072  -45.4897 C.3       13 UNK         0.1400 
     76 CB         -3.2545  -24.8645  -44.0024 C.3       13 UNK        -0.1800 
     77 C          -2.8635  -25.8690  -46.2968 C.2       13 UNK         0.5000 
     78 O          -3.4341  -26.9120  -46.6159 O.2       13 UNK        -0.5000 
     79 N          -1.6061  -25.5738  -46.6597 N.am      14 UNK        -0.5000 
     80 CA         -0.7714  -26.4072  -47.5326 C.3       14 UNK         0.1400 
     81 CB          0.6622  -25.8565  -47.5593 C.3       14 UNK        -0.1800 
     82 C          -1.3385  -26.5305  -48.9609 C.2       14 UNK         0.5000 
     83 O          -1.2321  -27.5949  -49.5702 O.2       14 UNK        -0.5000 
     84 N          -1.9858  -25.4601  -49.4398 N.am      15 UNK        -0.5000 
     85 CA         -2.7565  -25.4064  -50.6830 C.3       15 UNK         0.1400 
     86 CB         -2.8311  -23.9447  -51.1573 C.3       15 UNK        -0.1800 
     87 C          -4.1686  -26.0245  -50.5618 C.2       15 UNK         0.5000 
     88 O          -4.9653  -25.8746  -51.4883 O.2       15 UNK        -0.5000 
     89 N          -4.4738  -26.6818  -49.4315 N.am      16 UNK        -0.5000 
     90 CA         -5.7101  -27.4092  -49.1211 C.3       16 UNK         0.1400 
     91 CB         -5.8393  -28.6542  -50.0234 C.3       16 UNK        -0.1800 
     92 C          -6.9763  -26.5277  -49.1382 C.2       16 UNK         0.5000 
     93 O          -8.0656  -27.0270  -49.4257 O.2       16 UNK        -0.5000 
     94 N          -6.8069  -25.2302  -48.8411 N.am      17 UNK        -0.5000 
     95 CA         -7.8244  -24.1758  -48.8638 C.3       17 UNK         0.1400 
     96 CB         -8.8853  -24.4097  -47.7682 C.3       17 UNK        -0.1800 
     97 C          -8.4405  -23.9357  -50.2620 C.2       17 UNK         0.5000 
     98 O          -9.5723  -23.4575  -50.3551 O.2       17 UNK        -0.5000 
     99 N          -7.6835  -24.2511  -51.3244 N.am      18 UNK        -0.5000 
    100 CA        -8.0748  -24.0526  -52.7210 C.3       18 UNK         0.1400 
    101 CB        -7.0854  -24.7608  -53.6612 C.3       18 UNK        -0.1800 
    102 C         -8.3010  -22.5812  -53.1456 C.2       18 UNK         0.5000 
    103 O         -9.2957  -22.3269  -53.8234 O.2       18 UNK        -0.5000 
    104 N         -7.4567  -21.6002  -52.7897 N.am      19 UNK        -0.5000 
    105 CA        -6.1529  -21.6645  -52.1317 C.3       19 UNK         0.1400 
    106 CB        -6.2749  -21.0541  -50.7230 C.3       19 UNK        -0.1800 
    107 C         -5.1463  -20.8445  -52.9535 C.2       19 UNK         0.5000 
    108 O         -5.5498  -20.0480  -53.8060 O.2       19 UNK        -0.5000 
    109 N         -3.8563  -21.0250  -52.6403 N.am      20 UNK        -0.5000 
    110 CA        -2.6805  -20.2932  -53.1290 C.3       20 UNK         0.1400 
    111 CB        -2.8004  -18.7876  -52.8224 C.3       20 UNK        -0.1800 
    112 C         -2.3397  -20.5098  -54.6140 C.2       20 UNK         0.5000 
    113 O         -1.2016  -20.8569  -54.9256 O.2       20 UNK        -0.5000 
    114 N         -3.3158  -20.2467  -55.4926 N.am      21 UNK        -0.5000 
    115 CA        -3.2407  -20.1751  -56.9592 C.3       21 UNK         0.1400 
    116 CB        -2.7578  -21.5076  -57.5678 C.3       21 UNK        -0.1800 
    117 C         -2.4421  -18.9640  -57.4982 C.2       21 UNK         0.5000 
    118 O         -2.3384  -18.8051  -58.7157 O.2       21 UNK        -0.5000 
    119 N         -1.9183  -18.1188  -56.6022 N.am      22 UNK        -0.5000 
    120 CA        -1.2514  -16.8468  -56.9087 C.3       22 UNK         0.1400 
    121 C         -2.2665  -15.7519  -57.3374 C.2       22 UNK         0.5000 
    122 N         -1.8940  -14.8824  -58.2666 N.am      22 UNK        -0.7600 
    123 O         -3.3721  -15.6572  -56.8083 O.2       22 UNK        -0.5000 
    124 C124       -0.3970  -16.3585  -55.7108 C.3       23 UNK        -0.0398 
    125 S125        1.0259  -17.4551  -55.3966 S.3       23 UNK        -0.2404 
    126 C126        1.6932  -16.7574  -53.8522 C.3       23 UNK        -0.0205 
    127 H127       -0.4989  -10.5479  -44.9530 H         1 UNK         0.0600 
    128 H128        0.6817  -11.6762  -44.2812 H         1 UNK         0.0600 
    129 H129       -0.8284  -12.2842  -44.9625 H         1 UNK         0.0600 
    130 H130       -0.6869  -13.0392  -47.0744 H         1 UNK         0.3000 
    131 H131        0.8191  -11.8024  -49.1393 H         1 UNK         0.0600 
    132 H132       -1.1645  -12.9481  -49.7786 H         1 UNK         0.0800 
    133 H133        0.1529  -13.8278  -50.4936 H         1 UNK         0.0800 
    134 H134       -2.1126  -15.2333  -50.8550 H         1 UNK         0.0800 
    135 H135       -2.5225  -16.5554  -49.7962 H         1 UNK         0.0800 
    136 H136       -0.1170  -15.3861  -52.3248 H         1 UNK         0.1150 
    137 H137        1.7792  -19.2112  -52.6972 H         1 UNK         0.1150 
    138 H138       -1.0650  -18.5237  -49.5628 H         1 UNK         0.1150 
    139 H139       -0.4230  -20.8427  -50.2591 H         1 UNK         0.0800 
    140 H140        0.7572  -21.0885  -51.5081 H         1 UNK         0.0800 
    141 H141        0.2557  -19.5391  -47.9728 H         1 UNK         0.0800 
    142 H142        1.7731  -19.8665  -47.2030 H         1 UNK         0.0800 
    143 H143        1.1047  -22.4109  -47.3442 H         1 UNK         0.0600 
    144 H144        0.6019  -20.5278  -45.3013 H         1 UNK         0.3000 
    145 H145       -0.5801  -22.8890  -42.8620 H         1 UNK         0.0600 
    146 H146        1.2775  -21.8381  -41.6051 H         1 UNK         0.0600 
    147 H147        1.9073  -22.9614  -42.8003 H         1 UNK         0.0600 
    148 H148        1.9842  -21.2309  -43.1009 H         1 UNK         0.0600 
    149 H149       -0.2247  -20.0828  -42.6858 H         1 UNK         0.3000 
    150 H150       -3.4970  -19.1502  -43.8762 H         1 UNK         0.0600 
    151 H151       -3.6785  -19.7380  -41.4522 H         1 UNK         0.0600 
    152 H152       -3.4561  -18.0099  -41.6814 H         1 UNK         0.0600 
    153 H153       -2.1061  -19.0084  -41.1486 H         1 UNK         0.0600 
    154 H154       -1.3450  -17.5311  -43.0124 H         1 UNK         0.3000 
    155 H155        0.2694  -17.1259  -46.2004 H         1 UNK         0.0600 
    156 H156       -1.2100  -15.2972  -44.2334 H         1 UNK         0.0600 
    157 H157       -1.6049  -15.4770  -45.9289 H         1 UNK         0.0600 
    158 H158       -0.0526  -14.7911  -45.4585 H         1 UNK         0.0600 
    159 H159        1.0477  -16.1867  -43.6545 H         1 UNK         0.3000 
    160 H160        2.9944  -19.0111  -42.6067 H         1 UNK         0.0600 
    161 H161        3.7300  -16.1780  -43.5094 H         1 UNK         0.0600 
    162 H162        4.4495  -17.6649  -44.1046 H         1 UNK         0.0600 
    163 H163        4.6795  -17.1974  -42.4277 H         1 UNK         0.0600 
    164 H164        2.3496  -16.4515  -41.4462 H         1 UNK         0.3000 
    165 H165       -0.4775  -17.5693  -39.5767 H         1 UNK         0.0600 
    166 H166        0.9182  -16.7048  -37.7181 H         1 UNK         0.0600 
    167 H167        1.5194  -18.2684  -38.2457 H         1 UNK         0.0600 
    168 H168        2.3670  -16.8009  -38.7195 H         1 UNK         0.0600 
    169 H169        0.9095  -15.0672  -39.7286 H         1 UNK         0.3000 
    170 H170       -0.8658  -13.6995  -42.4865 H         1 UNK         0.0600 
    171 H171       -2.4474  -13.4048  -40.5779 H         1 UNK         0.0600 
    172 H172       -1.1004  -13.0754  -39.4948 H         1 UNK         0.0600 
    173 H173       -1.4645  -11.9699  -40.8205 H         1 UNK         0.0600 
    174 H174        1.0234  -12.5747  -40.6776 H         1 UNK         0.3000 
    175 H175        3.0592  -12.0128  -41.4211 H         1 UNK         0.0600 
    176 H176        4.2761  -14.8275  -41.5508 H         1 UNK         0.0600 
    177 H177        5.0326  -13.4065  -40.8409 H         1 UNK         0.0600 
    178 H178        3.5805  -14.0790  -40.1179 H         1 UNK         0.0600 
    179 H179        4.2467  -13.5452  -43.7075 H         1 UNK         0.3000 
    180 H180        4.4032  -10.5814  -45.6829 H         1 UNK         0.0600 
    181 H181        6.5912  -12.4282  -44.5972 H         1 UNK         0.0600 
    182 H182        6.5636  -10.6755  -44.5093 H         1 UNK         0.0600 
    183 H183        6.6943  -11.4671  -46.0721 H         1 UNK         0.0600 
    184 H184        3.5806  -12.2139  -46.8505 H         1 UNK         0.3000 
    185 H185        4.3501  -14.6623  -48.0905 H         1 UNK         0.0600 
    186 H186        4.4653  -16.6739  -46.6622 H         1 UNK         0.0600 
    187 H187        2.9098  -16.2831  -45.9406 H         1 UNK         0.0600 
    188 H188        3.0058  -16.7335  -47.6401 H         1 UNK         0.0600 
    189 H189        1.6948  -14.1922  -46.7917 H         1 UNK         0.3000 
    190 H190       -1.8765  -20.5353  -46.5891 H         1 UNK         0.3000 
    191 H191       -3.4564  -21.5513  -48.7077 H         1 UNK         0.0600 
    192 H192       -4.3149  -20.5190  -45.9558 H         1 UNK         0.0600 
    193 H193       -5.3731  -20.7237  -47.3469 H         1 UNK         0.0600 
    194 H194       -4.0729  -19.5420  -47.4018 H         1 UNK         0.0600 
    195 H195       -2.9346  -22.8048  -45.3927 H         1 UNK         0.3000 
    196 H196       -4.6977  -25.0347  -45.5752 H         1 UNK         0.0600 
    197 H197       -3.4335  -25.8591  -43.5923 H         1 UNK         0.0600 
    198 H198       -3.8468  -24.1598  -43.4185 H         1 UNK         0.0600 
    199 H199       -2.2027  -24.6280  -43.8431 H         1 UNK         0.0600 
    200 H200       -1.1815  -24.7201  -46.3068 H         1 UNK         0.3000 
    201 H201       -0.7406  -27.4103  -47.1026 H         1 UNK         0.0600 
    202 H202        1.0917  -25.8268  -46.5578 H         1 UNK         0.0600 
    203 H203        0.6998  -24.8475  -47.9693 H         1 UNK         0.0600 
    204 H204        1.3098  -26.4840  -48.1727 H         1 UNK         0.0600 
    205 H205       -1.9499  -24.6018  -48.8985 H         1 UNK         0.3000 
    206 H206       -2.2238  -25.9789  -51.4447 H         1 UNK         0.0600 
    207 H207       -1.8361  -23.5076  -51.2466 H         1 UNK         0.0600 
    208 H208       -3.3030  -23.8787  -52.1382 H         1 UNK         0.0600 
    209 H209       -3.4073  -23.3311  -50.4652 H         1 UNK         0.0600 
    210 H210       -3.7806  -26.7000  -48.6933 H         1 UNK         0.3000 
    211 H211       -5.6055  -27.7590  -48.0935 H         1 UNK         0.0600 
    212 H212       -6.0151  -28.3820  -51.0646 H         1 UNK         0.0600 
    213 H213       -6.6695  -29.2858  -49.7056 H         1 UNK         0.0600 
    214 H214       -4.9370  -29.2645  -49.9837 H         1 UNK         0.0600 
    215 H215       -5.8690  -24.9080  -48.6129 H         1 UNK         0.3000 
    216 H216       -7.2968  -23.2568  -48.6073 H         1 UNK         0.0600 
    217 H217       -9.5455  -23.5470  -47.6722 H         1 UNK         0.0600 
    218 H218       -8.4187  -24.5680  -46.7959 H         1 UNK         0.0600 
    219 H219       -9.5107  -25.2756  -47.9863 H         1 UNK         0.0600 
    220 H220       -6.7818  -24.6860  -51.1683 H         1 UNK         0.3000 
    221 H221       -9.0353  -24.5585  -52.8416 H         1 UNK         0.0600 
    222 H222       -6.0750  -24.3620  -53.5785 H         1 UNK         0.0600 
    223 H223       -7.0386  -25.8287  -53.4469 H         1 UNK         0.0600 
    224 H224       -7.3931  -24.6541  -54.7021 H         1 UNK         0.0600 
    225 H225       -7.6462  -20.6801  -53.1628 H         1 UNK         0.3000 
    226 H226       -5.7810  -22.6853  -52.0654 H         1 UNK         0.0600 
    227 H227       -5.3781  -21.2447  -50.1342 H         1 UNK         0.0600 
    228 H228       -6.4162  -19.9730  -50.7638 H         1 UNK         0.0600 
    229 H229       -7.1182  -21.4624  -50.1715 H         1 UNK         0.0600 
    230 H230       -3.6418  -21.7250  -51.9460 H         1 UNK         0.3000 
    231 H231       -1.8351  -20.6755  -52.5550 H         1 UNK         0.0600 
    232 H232       -2.9683  -18.6152  -51.7598 H         1 UNK         0.0600 
    233 H233       -3.6173  -18.3133  -53.3663 H         1 UNK         0.0600 
    234 H234       -1.8866  -18.2645  -53.1031 H         1 UNK         0.0600 
    235 H235       -4.2176  -19.9965  -55.0909 H         1 UNK         0.3000 
    236 H236       -4.2679  -20.0213  -57.2926 H         1 UNK         0.0600 
    237 H237       -2.8780  -21.5059  -58.6517 H         1 UNK         0.0600 
    238 H238       -1.7037  -21.6928  -57.3613 H         1 UNK         0.0600 
    239 H239       -3.3309  -22.3499  -57.1802 H         1 UNK         0.0600 
    240 H240       -2.0596  -18.3204  -55.6255 H         1 UNK         0.3000 
    241 H241       -0.5807  -17.0213  -57.7527 H         1 UNK         0.0600 
    242 H242       -2.5375  -14.1573  -58.5448 H         1 UNK         0.3800 
    243 H243       -0.9899  -14.9357  -58.7110 H         1 UNK         0.3800 
    244 H244       -0.0031  -15.3583  -55.9008 H         1 UNK         0.0800 
    245 H245       -1.0059  -16.2846  -54.8081 H         1 UNK         0.0800 
    246 H246        1.6952  -15.6677  -53.9073 H         1 UNK         0.0800 
    247 H247        2.7374  -17.0581  -53.7548 H         1 UNK         0.0800 
@<TRIPOS>BOND
     1    1    2 1    
     2    1  127 1    
     3    1  128 1    
     4    1  129 1    
     5    2    3 2    
     6    2    4 am   BACKBONE|DICT|INTERRES
     7    4    5 1    
     8    4  130 1    
     9    5    6 1    
    10    5   65 1    
    11    5  131 1    
    12    6    7 1    
    13    6  132 1    
    14    6  133 1    
    15    7    8 1    
    16    8    9 1    
    17    8  134 1    
    18    8  135 1    
    19    9   10 ar   
    20    9   14 ar   
    21   10   11 ar   
    22   10  136 1    
    23   11   12 ar   
    24   11  126 1    
    25   12   13 ar   
    26   12  137 1    
    27   13   14 ar   
    28   13   15 1    
    29   14  138 1    
    30   15   16 1    
    31   15  139 1    
    32   15  140 1    
    33   16   17 1    
    34   17   18 1    
    35   17  141 1    
    36   17  142 1    
    37   18   19 1    
    38   18   67 1    
    39   18  143 1    
    40   19   20 am   BACKBONE|DICT|INTERRES
    41   19  144 1    
    42   20   21 2    
    43   20   22 1    
    44   22   23 1    
    45   22   24 1    
    46   22  145 1    
    47   23  146 1    
    48   23  147 1    
    49   23  148 1    
    50   24   25 am   BACKBONE|DICT|INTERRES
    51   24  149 1    
    52   25   26 2    
    53   25   27 1    
    54   27   28 1    
    55   27   29 1    
    56   27  150 1    
    57   28  151 1    
    58   28  152 1    
    59   28  153 1    
    60   29   30 am   BACKBONE|DICT|INTERRES
    61   29  154 1    
    62   30   31 2    
    63   30   32 1    
    64   32   33 1    
    65   32   34 1    
    66   32  155 1    
    67   33  156 1    
    68   33  157 1    
    69   33  158 1    
    70   34   35 am   BACKBONE|DICT|INTERRES
    71   34  159 1    
    72   35   36 2    
    73   35   37 1    
    74   37   38 1    
    75   37   39 1    
    76   37  160 1    
    77   38  161 1    
    78   38  162 1    
    79   38  163 1    
    80   39   40 am   BACKBONE|DICT|INTERRES
    81   39  164 1    
    82   40   41 2    
    83   40   42 1    
    84   42   43 1    
    85   42   44 1    
    86   42  165 1    
    87   43  166 1    
    88   43  167 1    
    89   43  168 1    
    90   44   45 am   BACKBONE|DICT|INTERRES
    91   44  169 1    
    92   45   46 2    
    93   45   47 1    
    94   47   48 1    
    95   47   49 1    
    96   47  170 1    
    97   48  171 1    
    98   48  172 1    
    99   48  173 1    
   100   49   50 am   BACKBONE|DICT|INTERRES
   101   49  174 1    
   102   50   51 2    
   103   50   52 1    
   104   52   53 1    
   105   52   54 1    
   106   52  175 1    
   107   53  176 1    
   108   53  177 1    
   109   53  178 1    
   110   54   55 am   BACKBONE|DICT|INTERRES
   111   54  179 1    
   112   55   56 2    
   113   55   57 1    
   114   57   58 1    
   115   57   59 1    
   116   57  180 1    
   117   58  181 1    
   118   58  182 1    
   119   58  183 1    
   120   59   60 am   BACKBONE|DICT|INTERRES
   121   59  184 1    
   122   60   61 2    
   123   60   62 1    
   124   62   63 1    
   125   62   64 1    
   126   62  185 1    
   127   63  186 1    
   128   63  187 1    
   129   63  188 1    
   130   64   65 am   BACKBONE|DICT|INTERRES
   131   64  189 1    
   132   65   66 2    
   133   67   68 2    
   134   67   69 am   BACKBONE|DICT|INTERRES
   135   69   70 1    
   136   69  190 1    
   137   70   71 1    
   138   70   72 1    
   139   70  191 1    
   140   71  192 1    
   141   71  193 1    
   142   71  194 1    
   143   72   73 2    
   144   72   74 am   BACKBONE|DICT|INTERRES
   145   74   75 1    
   146   74  195 1    
   147   75   76 1    
   148   75   77 1    
   149   75  196 1    
   150   76  197 1    
   151   76  198 1    
   152   76  199 1    
   153   77   78 2    
   154   77   79 am   BACKBONE|DICT|INTERRES
   155   79   80 1    
   156   79  200 1    
   157   80   81 1    
   158   80   82 1    
   159   80  201 1    
   160   81  202 1    
   161   81  203 1    
   162   81  204 1    
   163   82   83 2    
   164   82   84 am   BACKBONE|DICT|INTERRES
   165   84   85 1    
   166   84  205 1    
   167   85   86 1    
   168   85   87 1    
   169   85  206 1    
   170   86  207 1    
   171   86  208 1    
   172   86  209 1    
   173   87   88 2    
   174   87   89 am   BACKBONE|DICT|INTERRES
   175   89   90 1    
   176   89  210 1    
   177   90   91 1    
   178   90   92 1    
   179   90  211 1    
   180   91  212 1    
   181   91  213 1    
   182   91  214 1    
   183   92   93 2    
   184   92   94 am   BACKBONE|DICT|INTERRES
   185   94   95 1    
   186   94  215 1    
   187   95   96 1    
   188   95   97 1    
   189   95  216 1    
   190   96  217 1    
   191   96  218 1    
   192   96  219 1    
   193   97   98 2    
   194   97   99 am   BACKBONE|DICT|INTERRES
   195   99  100 1    
   196   99  220 1    
   197  100  101 1    
   198  100  102 1    
   199  100  221 1    
   200  101  222 1    
   201  101  223 1    
   202  101  224 1    
   203  102  103 2    
   204  102  104 am   BACKBONE|DICT|INTERRES
   205  104  105 1    
   206  104  225 1    
   207  105  106 1    
   208  105  107 1    
   209  105  226 1    
   210  106  227 1    
   211  106  228 1    
   212  106  229 1    
   213  107  108 2    
   214  107  109 am   BACKBONE|DICT|INTERRES
   215  109  110 1    
   216  109  230 1    
   217  110  111 1    
   218  110  112 1    
   219  110  231 1    
   220  111  232 1    
   221  111  233 1    
   222  111  234 1    
   223  112  113 2    
   224  112  114 am   BACKBONE|DICT|INTERRES
   225  114  115 1    
   226  114  235 1    
   227  115  116 1    
   228  115  117 1    
   229  115  236 1    
   230  116  237 1    
   231  116  238 1    
   232  116  239 1    
   233  117  118 2    
   234  117  119 am   BACKBONE|DICT|INTERRES
   235  119  120 1    
   236  119  240 1    
   237  120  121 1    
   238  120  124 1    
   239  120  241 1    
   240  121  122 am   BACKBONE|DICT|INTERRES
   241  121  123 2    
   242  122  242 1    
   243  122  243 1    
   244  124  125 1    
   245  124  244 1    
   246  124  245 1    
   247  125  126 1    
   248  126  246 1    
   249  126  247 1    
@<TRIPOS>SUBSTRUCTURE
     1 UNK         1 GROUP             0       ****    0 ROOT    
