@<TRIPOS>MOLECULE
3R540
247   249    1
SMALL
USER_CHARGES


@<TRIPOS>ATOM
      1 CA          0.4676  -12.7287  -48.3294 C.3       0 UNK        -0.1800 
      2 C           1.9859  -12.7045  -48.4223 C.2       0 UNK         0.5000 
      3 O           2.5318  -12.0260  -49.2924 O.2       0 UNK        -0.5000 
      4 N           2.6806  -13.4234  -47.5308 N.am      1 UNK        -0.5000 
      5 CA          4.1417  -13.6088  -47.5384 C.3       1 UNK         0.1400 
      6 C6          4.5791  -14.9696  -46.9249 C.3       23 UNK        -0.0398 
      7 S7          3.6116  -16.4168  -47.4722 S.3       23 UNK        -0.2404 
      8 C8          3.9229  -16.4959  -49.2606 C.3       23 UNK        -0.0205 
      9 C9          2.7673  -17.1973  -49.9541 C.ar      23 UNK        -0.0193 
     10 C10         1.6873  -16.4542  -50.4365 C.ar      23 UNK        -0.1150 
     11 C11         0.6095  -17.0911  -51.0558 C.ar      23 UNK        -0.0193 
     12 C12         0.6100  -18.4832  -51.1757 C.ar      23 UNK        -0.1150 
     13 C13         1.6825  -19.2428  -50.6990 C.ar      23 UNK        -0.0193 
     14 C14         2.7669  -18.5866  -50.1007 C.ar      23 UNK        -0.1150 
     15 C15         1.6422  -20.7622  -50.8674 C.3       23 UNK        -0.0205 
     16 S16         2.5459  -21.7018  -49.5888 S.3       23 UNK        -0.2404 
     17 C17         1.6405  -21.2173  -48.0817 C.3       23 UNK        -0.0398 
     18 CA          0.7937  -22.3698  -47.4985 C.3       11 UNK         0.1400 
     19 N           0.5058  -22.1571  -46.0813 N.am      11 UNK        -0.5000 
     20 C          -0.0712  -23.0520  -45.2690 C.2       10 UNK         0.5000 
     21 O          -0.3714  -24.1966  -45.6100 O.2       10 UNK        -0.5000 
     22 CA         -0.4156  -22.5591  -43.8533 C.3       10 UNK         0.1400 
     23 CB          0.8127  -22.6213  -42.9330 C.3       10 UNK        -0.1800 
     24 N          -0.9495  -21.1957  -43.8714 N.am      10 UNK        -0.5000 
     25 C          -2.1546  -20.8673  -44.3579 C.2       9 UNK         0.5000 
     26 O          -2.9595  -21.6897  -44.7961 O.2       9 UNK        -0.5000 
     27 CA         -2.5004  -19.3665  -44.3962 C.3       9 UNK         0.1400 
     28 CB         -3.0253  -18.8936  -43.0329 C.3       9 UNK        -0.1800 
     29 N          -1.3672  -18.5310  -44.7996 N.am      9 UNK        -0.5000 
     30 C          -0.8116  -18.5602  -46.0195 C.2       8 UNK         0.5000 
     31 O          -1.2078  -19.2822  -46.9301 O.2       8 UNK        -0.5000 
     32 CA          0.4164  -17.6710  -46.2610 C.3       8 UNK         0.1400 
     33 CB         -0.0205  -16.2460  -46.6207 C.3       8 UNK        -0.1800 
     34 N           1.3390  -17.6279  -45.1279 N.am      8 UNK        -0.5000 
     35 C           1.9717  -18.6760  -44.5871 C.2       7 UNK         0.5000 
     36 O           1.8015  -19.8362  -44.9616 O.2       7 UNK        -0.5000 
     37 CA          2.9246  -18.4032  -43.4045 C.3       7 UNK         0.1400 
     38 CB          4.3508  -18.0906  -43.8954 C.3       7 UNK        -0.1800 
     39 N           2.4316  -17.3915  -42.4581 N.am      7 UNK        -0.5000 
     40 C           2.2638  -16.0760  -42.6494 C.2       6 UNK         0.5000 
     41 O           2.6090  -15.4703  -43.6661 O.2       6 UNK        -0.5000 
     42 CA          1.5027  -15.3271  -41.5412 C.3       6 UNK         0.1400 
     43 CB          2.4234  -14.3421  -40.8084 C.3       6 UNK        -0.1800 
     44 N           0.3448  -14.6151  -42.0864 N.am      6 UNK        -0.5000 
     45 C          -0.6867  -15.2066  -42.7103 C.2       5 UNK         0.5000 
     46 O          -0.7867  -16.4272  -42.8506 O.2       5 UNK        -0.5000 
     47 CA         -1.8080  -14.3077  -43.2683 C.3       5 UNK         0.1400 
     48 CB         -3.0554  -14.3972  -42.3757 C.3       5 UNK        -0.1800 
     49 N          -1.4439  -12.8988  -43.4260 N.am      5 UNK        -0.5000 
     50 C          -0.5676  -12.4183  -44.3177 C.2       4 UNK         0.5000 
     51 O           0.0768  -13.1266  -45.0917 O.2       4 UNK        -0.5000 
     52 CA         -0.3713  -10.8873  -44.3662 C.3       4 UNK         0.1400 
     53 CB         -1.2521  -10.0948  -43.3727 C.3       4 UNK        -0.1800 
     54 N           1.0382  -10.5198  -44.2098 N.am      4 UNK        -0.5000 
     55 C           1.8393  -10.8173  -43.1746 C.2       3 UNK         0.5000 
     56 O           1.4591  -11.4173  -42.1676 O.2       3 UNK        -0.5000 
     57 CA          3.3090  -10.3748  -43.3051 C.3       3 UNK         0.1400 
     58 CB          4.2760  -11.2140  -42.4478 C.3       3 UNK        -0.1800 
     59 N           3.7309  -10.4197  -44.7044 N.am      3 UNK        -0.5000 
     60 C           4.6433   -9.6273  -45.2784 C.2       2 UNK         0.5000 
     61 O           5.2136   -8.7105  -44.6846 O.2       2 UNK        -0.5000 
     62 CA          4.9553   -9.8878  -46.7710 C.3       2 UNK         0.1400 
     63 CB          6.4470   -9.6787  -47.1049 C.3       2 UNK        -0.1800 
     64 N           4.4839  -11.1896  -47.2679 N.am      2 UNK        -0.5000 
     65 C           4.8785  -12.4142  -46.8867 C.2       1 UNK         0.5000 
     66 O           5.7520  -12.6127  -46.0412 O.2       1 UNK        -0.5000 
     67 C          -0.4952  -22.6139  -48.3105 C.2       11 UNK         0.5000 
     68 O          -0.5363  -23.5516  -49.1037 O.2       11 UNK        -0.5000 
     69 N          -1.5397  -21.8129  -48.0572 N.am      12 UNK        -0.5000 
     70 CA         -2.8690  -21.9631  -48.6456 C.3       12 UNK         0.1400 
     71 CB         -3.7609  -20.7836  -48.2362 C.3       12 UNK        -0.1800 
     72 C          -3.5317  -23.2968  -48.2725 C.2       12 UNK         0.5000 
     73 O          -4.0775  -23.9614  -49.1507 O.2       12 UNK        -0.5000 
     74 N          -3.4426  -23.6917  -46.9941 N.am      13 UNK        -0.5000 
     75 CA         -3.9317  -24.9807  -46.5009 C.3       13 UNK         0.1400 
     76 CB         -3.7695  -25.0552  -44.9756 C.3       13 UNK        -0.1800 
     77 C          -3.2513  -26.1764  -47.1955 C.2       13 UNK         0.5000 
     78 O          -3.9430  -27.1051  -47.6173 O.2       13 UNK        -0.5000 
     79 N          -1.9212  -26.0995  -47.3502 N.am      14 UNK        -0.5000 
     80 CA         -1.1111  -27.0678  -48.0910 C.3       14 UNK         0.1400 
     81 CB          0.3787  -26.7782  -47.8536 C.3       14 UNK        -0.1800 
     82 C          -1.4341  -27.0970  -49.5984 C.2       14 UNK         0.5000 
     83 O          -1.4800  -28.1786  -50.1872 O.2       14 UNK        -0.5000 
     84 N          -1.6922  -25.9234  -50.1912 N.am      15 UNK        -0.5000 
     85 CA         -2.1103  -25.7252  -51.5808 C.3       15 UNK         0.1400 
     86 CB         -1.8074  -24.2756  -52.0009 C.3       15 UNK        -0.1800 
     87 C          -3.5882  -26.1087  -51.8090 C.2       15 UNK         0.5000 
     88 O          -4.3980  -25.2684  -52.2083 O.2       15 UNK        -0.5000 
     89 N          -3.8983  -27.3867  -51.5495 N.am      16 UNK        -0.5000 
     90 CA         -5.1686  -28.0763  -51.7905 C.3       16 UNK         0.1400 
     91 CB         -5.3416  -28.3398  -53.3002 C.3       16 UNK        -0.1800 
     92 C          -6.3898  -27.3836  -51.1496 C.2       16 UNK         0.5000 
     93 O          -7.4444  -27.2910  -51.7804 O.2       16 UNK        -0.5000 
     94 N          -6.2164  -26.9209  -49.9018 N.am      17 UNK        -0.5000 
     95 CA         -7.2048  -26.2136  -49.0830 C.3       17 UNK         0.1400 
     96 CB         -8.3673  -27.1507  -48.6924 C.3       17 UNK        -0.1800 
     97 C          -7.6739  -24.8965  -49.7357 C.2       17 UNK         0.5000 
     98 O          -8.8640  -24.7195  -50.0038 O.2       17 UNK        -0.5000 
     99 N          -6.7079  -23.9976  -49.9626 N.am      18 UNK        -0.5000 
    100 CA        -6.8455  -22.6437  -50.4986 C.3       18 UNK         0.1400 
    101 CB        -7.6950  -21.7633  -49.5568 C.3       18 UNK        -0.1800 
    102 C         -7.3217  -22.6202  -51.9620 C.2       18 UNK         0.5000 
    103 O         -8.2182  -21.8477  -52.3102 O.2       18 UNK        -0.5000 
    104 N         -6.6957  -23.4475  -52.8107 N.am      19 UNK        -0.5000 
    105 CA        -6.9258  -23.4801  -54.2553 C.3       19 UNK         0.1400 
    106 CB        -6.4486  -24.8297  -54.8160 C.3       19 UNK        -0.1800 
    107 C         -6.2480  -22.2785  -54.9455 C.2       19 UNK         0.5000 
    108 O         -5.1808  -22.4239  -55.5435 O.2       19 UNK        -0.5000 
    109 N         -6.8654  -21.0982  -54.7982 N.am      20 UNK        -0.5000 
    110 CA        -6.5102  -19.7761  -55.3373 C.3       20 UNK         0.1400 
    111 CB        -6.4499  -19.7959  -56.8764 C.3       20 UNK        -0.1800 
    112 C         -5.2374  -19.1384  -54.7425 C.2       20 UNK         0.5000 
    113 O         -5.1908  -17.9155  -54.6023 O.2       20 UNK        -0.5000 
    114 N         -4.2383  -19.9534  -54.3881 N.am      21 UNK        -0.5000 
    115 CA        -2.9721  -19.5522  -53.7780 C.3       21 UNK         0.1400 
    116 CB        -1.9676  -20.7081  -53.9337 C.3       21 UNK        -0.1800 
    117 C         -3.1623  -19.1422  -52.3045 C.2       21 UNK         0.5000 
    118 O         -2.9172  -19.9497  -51.4097 O.2       21 UNK        -0.5000 
    119 N         -3.6182  -17.9015  -52.0868 N.am      22 UNK        -0.5000 
    120 CA        -3.8975  -17.2893  -50.7723 C.3       22 UNK         0.1400 
    121 C         -5.1135  -17.9052  -50.0125 C.2       22 UNK         0.5000 
    122 N         -5.9730  -18.6797  -50.6623 N.am      22 UNK        -0.7600 
    123 O         -5.3197  -17.6368  -48.8325 O.2       22 UNK        -0.5000 
    124 C124       -2.6197  -17.1293  -49.8895 C.3       23 UNK        -0.0398 
    125 S125       -1.6601  -15.6447  -50.3459 S.3       23 UNK        -0.2404 
    126 C126       -0.5322  -16.2677  -51.6295 C.3       23 UNK        -0.0205 
    127 H127        0.1119  -13.5568  -47.7192 H         1 UNK         0.0600 
    128 H128        0.0315  -12.8380  -49.3224 H         1 UNK         0.0600 
    129 H129        0.1021  -11.7993  -47.8933 H         1 UNK         0.0600 
    130 H130        2.1835  -13.9254  -46.8073 H         1 UNK         0.3000 
    131 H131        4.4743  -13.6082  -48.5773 H         1 UNK         0.0600 
    132 H132        5.6326  -15.1609  -47.1357 H         1 UNK         0.0800 
    133 H133        4.4889  -14.9362  -45.8373 H         1 UNK         0.0800 
    134 H134        4.0413  -15.4982  -49.6809 H         1 UNK         0.0800 
    135 H135        4.8599  -17.0236  -49.4444 H         1 UNK         0.0800 
    136 H136        1.6839  -15.3784  -50.3296 H         1 UNK         0.1150 
    137 H137       -0.2251  -18.9781  -51.6496 H         1 UNK         0.1150 
    138 H138        3.6104  -19.1518  -49.7317 H         1 UNK         0.1150 
    139 H139        0.6075  -21.1103  -50.8793 H         1 UNK         0.0800 
    140 H140        2.0625  -21.0112  -51.8423 H         1 UNK         0.0800 
    141 H141        1.0309  -20.3298  -48.2574 H         1 UNK         0.0800 
    142 H142        2.3986  -20.9127  -47.3591 H         1 UNK         0.0800 
    143 H143        1.3875  -23.2852  -47.5517 H         1 UNK         0.0600 
    144 H144        0.7686  -21.2533  -45.6972 H         1 UNK         0.3000 
    145 H145       -1.1805  -23.2228  -43.4444 H         1 UNK         0.0600 
    146 H146        0.5581  -22.3233  -41.9158 H         1 UNK         0.0600 
    147 H147        1.2101  -23.6359  -42.8843 H         1 UNK         0.0600 
    148 H148        1.6160  -21.9718  -43.2818 H         1 UNK         0.0600 
    149 H149       -0.3291  -20.4564  -43.5763 H         1 UNK         0.3000 
    150 H150       -3.2964  -19.2300  -45.1312 H         1 UNK         0.0600 
    151 H151       -3.8739  -19.4973  -42.7088 H         1 UNK         0.0600 
    152 H152       -3.3623  -17.8581  -43.0805 H         1 UNK         0.0600 
    153 H153       -2.2581  -18.9596  -42.2605 H         1 UNK         0.0600 
    154 H154       -1.0027  -17.8830  -44.1056 H         1 UNK         0.3000 
    155 H155        0.9629  -18.0828  -47.1120 H         1 UNK         0.0600 
    156 H156       -0.5703  -15.7748  -45.8070 H         1 UNK         0.0600 
    157 H157        0.8393  -15.6191  -46.8479 H         1 UNK         0.0600 
    158 H158       -0.6644  -16.2451  -47.5003 H         1 UNK         0.0600 
    159 H159        1.5707  -16.7106  -44.7607 H         1 UNK         0.3000 
    160 H160        2.9773  -19.3323  -42.8347 H         1 UNK         0.0600 
    161 H161        4.3862  -17.1920  -44.5108 H         1 UNK         0.0600 
    162 H162        4.7387  -18.9101  -44.5017 H         1 UNK         0.0600 
    163 H163        5.0349  -17.9519  -43.0584 H         1 UNK         0.0600 
    164 H164        2.0757  -17.7765  -41.5941 H         1 UNK         0.3000 
    165 H165        1.1292  -16.0483  -40.8113 H         1 UNK         0.0600 
    166 H166        1.8866  -13.7979  -40.0313 H         1 UNK         0.0600 
    167 H167        3.2520  -14.8653  -40.3299 H         1 UNK         0.0600 
    168 H168        2.8510  -13.6126  -41.4944 H         1 UNK         0.0600 
    169 H169        0.3846  -13.6047  -42.0650 H         1 UNK         0.3000 
    170 H170       -2.0712  -14.6969  -44.2536 H         1 UNK         0.0600 
    171 H171       -2.8649  -13.9992  -41.3782 H         1 UNK         0.0600 
    172 H172       -3.8900  -13.8433  -42.8059 H         1 UNK         0.0600 
    173 H173       -3.3814  -15.4315  -42.2588 H         1 UNK         0.0600 
    174 H174       -1.9089  -12.2444  -42.8139 H         1 UNK         0.3000 
    175 H175       -0.6585  -10.5819  -45.3733 H         1 UNK         0.0600 
    176 H176       -1.0920   -9.0223  -43.4846 H         1 UNK         0.0600 
    177 H177       -1.0384  -10.3502  -42.3342 H         1 UNK         0.0600 
    178 H178       -2.3126  -10.2762  -43.5519 H         1 UNK         0.0600 
    179 H179        1.4446  -10.0193  -44.9868 H         1 UNK         0.3000 
    180 H180        3.3433   -9.3425  -42.9512 H         1 UNK         0.0600 
    181 H181        5.2901  -10.8175  -42.4976 H         1 UNK         0.0600 
    182 H182        4.3086  -12.2500  -42.7862 H         1 UNK         0.0600 
    183 H183        3.9819  -11.2130  -41.3976 H         1 UNK         0.0600 
    184 H184        3.3241  -11.1566  -45.2631 H         1 UNK         0.3000 
    185 H185        4.3900   -9.1374  -47.3252 H         1 UNK         0.0600 
    186 H186        6.7574   -8.6558  -46.8888 H         1 UNK         0.0600 
    187 H187        7.0900  -10.3420  -46.5259 H         1 UNK         0.0600 
    188 H188        6.6437   -9.8581  -48.1619 H         1 UNK         0.0600 
    189 H189        3.7647  -11.1531  -47.9846 H         1 UNK         0.3000 
    190 H190       -1.4112  -21.0098  -47.4450 H         1 UNK         0.3000 
    191 H191       -2.7528  -21.9423  -49.7296 H         1 UNK         0.0600 
    192 H192       -3.3229  -19.8378  -48.5529 H         1 UNK         0.0600 
    193 H193       -4.7438  -20.8553  -48.7021 H         1 UNK         0.0600 
    194 H194       -3.9090  -20.7382  -47.1577 H         1 UNK         0.0600 
    195 H195       -3.0178  -23.0697  -46.3142 H         1 UNK         0.3000 
    196 H196       -4.9985  -25.0305  -46.7247 H         1 UNK         0.0600 
    197 H197       -4.1683  -25.9931  -44.5872 H         1 UNK         0.0600 
    198 H198       -4.3061  -24.2444  -44.4826 H         1 UNK         0.0600 
    199 H199       -2.7241  -24.9946  -44.6744 H         1 UNK         0.0600 
    200 H200       -1.4296  -25.3085  -46.9457 H         1 UNK         0.3000 
    201 H201       -1.3301  -28.0590  -47.6886 H         1 UNK         0.0600 
    202 H202        0.6244  -26.8236  -46.7924 H         1 UNK         0.0600 
    203 H203        0.6623  -25.7911  -48.2188 H         1 UNK         0.0600 
    204 H204        1.0050  -27.5101  -48.3651 H         1 UNK         0.0600 
    205 H205       -1.5808  -25.0755  -49.6423 H         1 UNK         0.3000 
    206 H206       -1.5090  -26.3794  -52.2151 H         1 UNK         0.0600 
    207 H207       -0.7510  -24.0383  -51.8747 H         1 UNK         0.0600 
    208 H208       -2.0537  -24.1142  -53.0509 H         1 UNK         0.0600 
    209 H209       -2.3835  -23.5593  -51.4154 H         1 UNK         0.0600 
    210 H210       -3.1523  -27.9600  -51.1658 H         1 UNK         0.3000 
    211 H211       -5.0864  -29.0462  -51.2980 H         1 UNK         0.0600 
    212 H212       -5.4110  -27.4112  -53.8653 H         1 UNK         0.0600 
    213 H213       -6.2443  -28.9178  -53.5012 H         1 UNK         0.0600 
    214 H214       -4.5008  -28.9081  -53.6977 H         1 UNK         0.0600 
    215 H215       -5.3030  -27.0297  -49.4774 H         1 UNK         0.3000 
    216 H216       -6.6940  -25.9350  -48.1610 H         1 UNK         0.0600 
    217 H217       -9.0509  -26.6540  -48.0030 H         1 UNK         0.0600 
    218 H218       -7.9991  -28.0474  -48.1940 H         1 UNK         0.0600 
    219 H219       -8.9503  -27.4642  -49.5588 H         1 UNK         0.0600 
    220 H220       -5.7477  -24.2492  -49.7290 H         1 UNK         0.3000 
    221 H221       -5.8393  -22.2223  -50.5131 H         1 UNK         0.0600 
    222 H222       -8.7261  -22.1109  -49.4922 H         1 UNK         0.0600 
    223 H223       -7.2800  -21.7521  -48.5489 H         1 UNK         0.0600 
    224 H224       -7.7276  -20.7322  -49.9054 H         1 UNK         0.0600 
    225 H225       -5.9520  -24.0485  -52.4634 H         1 UNK         0.3000 
    226 H226       -7.9994  -23.4125  -54.4440 H         1 UNK         0.0600 
    227 H227       -6.9742  -25.6569  -54.3387 H         1 UNK         0.0600 
    228 H228       -6.6404  -24.8963  -55.8875 H         1 UNK         0.0600 
    229 H229       -5.3790  -24.9774  -54.6651 H         1 UNK         0.0600 
    230 H230       -7.6740  -21.0998  -54.1846 H         1 UNK         0.3000 
    231 H231       -7.3360  -19.1210  -55.0553 H         1 UNK         0.0600 
    232 H232       -5.6282  -20.4101  -57.2455 H         1 UNK         0.0600 
    233 H233       -6.3045  -18.7898  -57.2719 H         1 UNK         0.0600 
    234 H234       -7.3760  -20.1813  -57.3029 H         1 UNK         0.0600 
    235 H235       -4.3594  -20.9424  -54.5814 H         1 UNK         0.3000 
    236 H236       -2.5764  -18.6909  -54.3203 H         1 UNK         0.0600 
    237 H237       -1.7874  -20.9342  -54.9847 H         1 UNK         0.0600 
    238 H238       -1.0056  -20.4566  -53.4858 H         1 UNK         0.0600 
    239 H239       -2.3257  -21.6196  -53.4537 H         1 UNK         0.0600 
    240 H240       -3.8815  -17.3484  -52.8932 H         1 UNK         0.3000 
    241 H241       -4.2553  -16.2860  -51.0062 H         1 UNK         0.0600 
    242 H242       -5.8386  -18.8810  -51.6387 H         1 UNK         0.3800 
    243 H243       -6.7783  -19.0329  -50.1734 H         1 UNK         0.3800 
    244 H244       -2.8763  -16.9995  -48.8373 H         1 UNK         0.0800 
    245 H245       -1.9864  -18.0158  -49.9168 H         1 UNK         0.0800 
    246 H246       -1.0899  -16.8392  -52.3711 H         1 UNK         0.0800 
    247 H247       -0.1159  -15.4133  -52.1650 H         1 UNK         0.0800 
@<TRIPOS>BOND
     1    1    2 1    
     2    1  127 1    
     3    1  128 1    
     4    1  129 1    
     5    2    3 2    
     6    2    4 am   BACKBONE|DICT|INTERRES
     7    4    5 1    
     8    4  130 1    
     9    5    6 1    
    10    5   65 1    
    11    5  131 1    
    12    6    7 1    
    13    6  132 1    
    14    6  133 1    
    15    7    8 1    
    16    8    9 1    
    17    8  134 1    
    18    8  135 1    
    19    9   10 ar   
    20    9   14 ar   
    21   10   11 ar   
    22   10  136 1    
    23   11   12 ar   
    24   11  126 1    
    25   12   13 ar   
    26   12  137 1    
    27   13   14 ar   
    28   13   15 1    
    29   14  138 1    
    30   15   16 1    
    31   15  139 1    
    32   15  140 1    
    33   16   17 1    
    34   17   18 1    
    35   17  141 1    
    36   17  142 1    
    37   18   19 1    
    38   18   67 1    
    39   18  143 1    
    40   19   20 am   BACKBONE|DICT|INTERRES
    41   19  144 1    
    42   20   21 2    
    43   20   22 1    
    44   22   23 1    
    45   22   24 1    
    46   22  145 1    
    47   23  146 1    
    48   23  147 1    
    49   23  148 1    
    50   24   25 am   BACKBONE|DICT|INTERRES
    51   24  149 1    
    52   25   26 2    
    53   25   27 1    
    54   27   28 1    
    55   27   29 1    
    56   27  150 1    
    57   28  151 1    
    58   28  152 1    
    59   28  153 1    
    60   29   30 am   BACKBONE|DICT|INTERRES
    61   29  154 1    
    62   30   31 2    
    63   30   32 1    
    64   32   33 1    
    65   32   34 1    
    66   32  155 1    
    67   33  156 1    
    68   33  157 1    
    69   33  158 1    
    70   34   35 am   BACKBONE|DICT|INTERRES
    71   34  159 1    
    72   35   36 2    
    73   35   37 1    
    74   37   38 1    
    75   37   39 1    
    76   37  160 1    
    77   38  161 1    
    78   38  162 1    
    79   38  163 1    
    80   39   40 am   BACKBONE|DICT|INTERRES
    81   39  164 1    
    82   40   41 2    
    83   40   42 1    
    84   42   43 1    
    85   42   44 1    
    86   42  165 1    
    87   43  166 1    
    88   43  167 1    
    89   43  168 1    
    90   44   45 am   BACKBONE|DICT|INTERRES
    91   44  169 1    
    92   45   46 2    
    93   45   47 1    
    94   47   48 1    
    95   47   49 1    
    96   47  170 1    
    97   48  171 1    
    98   48  172 1    
    99   48  173 1    
   100   49   50 am   BACKBONE|DICT|INTERRES
   101   49  174 1    
   102   50   51 2    
   103   50   52 1    
   104   52   53 1    
   105   52   54 1    
   106   52  175 1    
   107   53  176 1    
   108   53  177 1    
   109   53  178 1    
   110   54   55 am   BACKBONE|DICT|INTERRES
   111   54  179 1    
   112   55   56 2    
   113   55   57 1    
   114   57   58 1    
   115   57   59 1    
   116   57  180 1    
   117   58  181 1    
   118   58  182 1    
   119   58  183 1    
   120   59   60 am   BACKBONE|DICT|INTERRES
   121   59  184 1    
   122   60   61 2    
   123   60   62 1    
   124   62   63 1    
   125   62   64 1    
   126   62  185 1    
   127   63  186 1    
   128   63  187 1    
   129   63  188 1    
   130   64   65 am   BACKBONE|DICT|INTERRES
   131   64  189 1    
   132   65   66 2    
   133   67   68 2    
   134   67   69 am   BACKBONE|DICT|INTERRES
   135   69   70 1    
   136   69  190 1    
   137   70   71 1    
   138   70   72 1    
   139   70  191 1    
   140   71  192 1    
   141   71  193 1    
   142   71  194 1    
   143   72   73 2    
   144   72   74 am   BACKBONE|DICT|INTERRES
   145   74   75 1    
   146   74  195 1    
   147   75   76 1    
   148   75   77 1    
   149   75  196 1    
   150   76  197 1    
   151   76  198 1    
   152   76  199 1    
   153   77   78 2    
   154   77   79 am   BACKBONE|DICT|INTERRES
   155   79   80 1    
   156   79  200 1    
   157   80   81 1    
   158   80   82 1    
   159   80  201 1    
   160   81  202 1    
   161   81  203 1    
   162   81  204 1    
   163   82   83 2    
   164   82   84 am   BACKBONE|DICT|INTERRES
   165   84   85 1    
   166   84  205 1    
   167   85   86 1    
   168   85   87 1    
   169   85  206 1    
   170   86  207 1    
   171   86  208 1    
   172   86  209 1    
   173   87   88 2    
   174   87   89 am   BACKBONE|DICT|INTERRES
   175   89   90 1    
   176   89  210 1    
   177   90   91 1    
   178   90   92 1    
   179   90  211 1    
   180   91  212 1    
   181   91  213 1    
   182   91  214 1    
   183   92   93 2    
   184   92   94 am   BACKBONE|DICT|INTERRES
   185   94   95 1    
   186   94  215 1    
   187   95   96 1    
   188   95   97 1    
   189   95  216 1    
   190   96  217 1    
   191   96  218 1    
   192   96  219 1    
   193   97   98 2    
   194   97   99 am   BACKBONE|DICT|INTERRES
   195   99  100 1    
   196   99  220 1    
   197  100  101 1    
   198  100  102 1    
   199  100  221 1    
   200  101  222 1    
   201  101  223 1    
   202  101  224 1    
   203  102  103 2    
   204  102  104 am   BACKBONE|DICT|INTERRES
   205  104  105 1    
   206  104  225 1    
   207  105  106 1    
   208  105  107 1    
   209  105  226 1    
   210  106  227 1    
   211  106  228 1    
   212  106  229 1    
   213  107  108 2    
   214  107  109 am   BACKBONE|DICT|INTERRES
   215  109  110 1    
   216  109  230 1    
   217  110  111 1    
   218  110  112 1    
   219  110  231 1    
   220  111  232 1    
   221  111  233 1    
   222  111  234 1    
   223  112  113 2    
   224  112  114 am   BACKBONE|DICT|INTERRES
   225  114  115 1    
   226  114  235 1    
   227  115  116 1    
   228  115  117 1    
   229  115  236 1    
   230  116  237 1    
   231  116  238 1    
   232  116  239 1    
   233  117  118 2    
   234  117  119 am   BACKBONE|DICT|INTERRES
   235  119  120 1    
   236  119  240 1    
   237  120  121 1    
   238  120  124 1    
   239  120  241 1    
   240  121  122 am   BACKBONE|DICT|INTERRES
   241  121  123 2    
   242  122  242 1    
   243  122  243 1    
   244  124  125 1    
   245  124  244 1    
   246  124  245 1    
   247  125  126 1    
   248  126  246 1    
   249  126  247 1    
@<TRIPOS>SUBSTRUCTURE
     1 UNK         1 GROUP             0       ****    0 ROOT    
