@<TRIPOS>MOLECULE
3R540
247   249    1
SMALL
USER_CHARGES


@<TRIPOS>ATOM
      1 CA         -4.0292  -12.1076  -45.2069 C.3       0 UNK        -0.1800 
      2 C          -2.5889  -12.4764  -44.8869 C.2       0 UNK         0.5000 
      3 O          -2.0590  -12.0516  -43.8585 O.2       0 UNK        -0.5000 
      4 N          -1.9513  -13.2825  -45.7478 N.am      1 UNK        -0.5000 
      5 CA         -0.5545  -13.7184  -45.6129 C.3       1 UNK         0.1400 
      6 C6         -0.0169  -14.4061  -46.8881 C.3       23 UNK        -0.0398 
      7 S7         -0.9005  -15.9262  -47.3841 S.3       23 UNK        -0.2404 
      8 C8         -0.1873  -16.1212  -49.0447 C.3       23 UNK        -0.0205 
      9 C9         -0.5624  -17.4447  -49.6917 C.ar      23 UNK        -0.0193 
     10 C10        -1.7931  -17.5877  -50.3383 C.ar      23 UNK        -0.1150 
     11 C11        -2.1074  -18.7706  -51.0140 C.ar      23 UNK        -0.0193 
     12 C12        -1.1861  -19.8222  -51.0222 C.ar      23 UNK        -0.1150 
     13 C13         0.0526  -19.6889  -50.3866 C.ar      23 UNK        -0.0193 
     14 C14         0.3521  -18.5021  -49.7109 C.ar      23 UNK        -0.1150 
     15 C15         1.1001  -20.7890  -50.5021 C.3       23 UNK        -0.0205 
     16 S16         0.6418  -22.3156  -49.6276 S.3       23 UNK        -0.2404 
     17 C17         0.8153  -21.8178  -47.8834 C.3       23 UNK        -0.0398 
     18 CA         -0.0850  -22.6676  -46.9547 C.3       11 UNK         0.1400 
     19 N           0.3989  -22.6694  -45.5740 N.am      11 UNK        -0.5000 
     20 C           0.0368  -23.5606  -44.6407 C.2       10 UNK         0.5000 
     21 O          -0.7072  -24.5166  -44.8585 O.2       10 UNK        -0.5000 
     22 CA          0.5688  -23.3187  -43.2150 C.3       10 UNK         0.1400 
     23 CB          1.9619  -23.9419  -43.0436 C.3       10 UNK        -0.1800 
     24 N           0.6307  -21.8971  -42.8698 N.am      10 UNK        -0.5000 
     25 C          -0.4445  -21.1076  -42.7382 C.2       9 UNK         0.5000 
     26 O          -1.6018  -21.5083  -42.8457 O.2       9 UNK        -0.5000 
     27 CA         -0.1883  -19.6089  -42.5030 C.3       9 UNK         0.1400 
     28 CB         -0.0943  -19.3166  -40.9991 C.3       9 UNK        -0.1800 
     29 N           1.0004  -19.0925  -43.1908 N.am      9 UNK        -0.5000 
     30 C           1.1962  -19.1413  -44.5196 C.2       8 UNK         0.5000 
     31 O           0.3867  -19.6453  -45.2983 O.2       8 UNK        -0.5000 
     32 CA          2.5032  -18.5579  -45.0934 C.3       8 UNK         0.1400 
     33 CB          2.2036  -17.3557  -45.9975 C.3       8 UNK        -0.1800 
     34 N           3.4673  -18.1467  -44.0752 N.am      8 UNK        -0.5000 
     35 C           4.2309  -18.9738  -43.3491 C.2       7 UNK         0.5000 
     36 O           4.2204  -20.1987  -43.4732 O.2       7 UNK        -0.5000 
     37 CA          5.1294  -18.3164  -42.2819 C.3       7 UNK         0.1400 
     38 CB          6.5479  -18.1034  -42.8306 C.3       7 UNK        -0.1800 
     39 N           4.6094  -17.0335  -41.7976 N.am      7 UNK        -0.5000 
     40 C           3.4643  -16.8682  -41.1243 C.2       6 UNK         0.5000 
     41 O           2.7193  -17.8005  -40.8268 O.2       6 UNK        -0.5000 
     42 CA          3.0499  -15.4282  -40.7736 C.3       6 UNK         0.1400 
     43 CB          3.8165  -14.8963  -39.5486 C.3       6 UNK        -0.1800 
     44 N           3.1138  -14.4970  -41.9071 N.am      6 UNK        -0.5000 
     45 C           4.1869  -14.0125  -42.5502 C.2       5 UNK         0.5000 
     46 O           5.3477  -14.3295  -42.2881 O.2       5 UNK        -0.5000 
     47 CA          3.9188  -13.0135  -43.6880 C.3       5 UNK         0.1400 
     48 CB          3.8721  -13.7412  -45.0418 C.3       5 UNK        -0.1800 
     49 N           2.6623  -12.2876  -43.4793 N.am      5 UNK        -0.5000 
     50 C           2.5831  -11.0490  -42.9756 C.2       4 UNK         0.5000 
     51 O           3.5648  -10.3690  -42.6732 O.2       4 UNK        -0.5000 
     52 CA          1.1749  -10.4600  -42.7747 C.3       4 UNK         0.1400 
     53 CB          0.6296   -9.8851  -44.0910 C.3       4 UNK        -0.1800 
     54 N           0.2055  -11.4043  -42.2148 N.am      4 UNK        -0.5000 
     55 C           0.2184  -11.8300  -40.9424 C.2       3 UNK         0.5000 
     56 O           1.1180  -11.5698  -40.1434 O.2       3 UNK        -0.5000 
     57 CA         -0.9810  -12.6710  -40.4750 C.3       3 UNK         0.1400 
     58 CB         -2.2118  -11.7787  -40.2473 C.3       3 UNK        -0.1800 
     59 N          -1.3081  -13.6996  -41.4580 N.am      3 UNK        -0.5000 
     60 C          -1.0382  -15.0042  -41.3157 C.2       2 UNK         0.5000 
     61 O          -0.5844  -15.5000  -40.2852 O.2       2 UNK        -0.5000 
     62 CA         -1.3012  -15.9188  -42.5306 C.3       2 UNK         0.1400 
     63 CB         -2.6317  -16.6659  -42.3583 C.3       2 UNK        -0.1800 
     64 N          -1.3171  -15.2153  -43.8133 N.am      2 UNK        -0.5000 
     65 C          -0.2829  -14.5437  -44.3371 C.2       1 UNK         0.5000 
     66 O           0.8283  -14.4900  -43.8095 O.2       1 UNK        -0.5000 
     67 C          -1.5583  -22.2225  -47.0143 C.2       11 UNK         0.5000 
     68 O          -2.3614  -22.8742  -47.6785 O.2       11 UNK        -0.5000 
     69 N          -1.8941  -21.1580  -46.2712 N.am      12 UNK        -0.5000 
     70 CA         -3.2494  -20.6222  -46.1482 C.3       12 UNK         0.1400 
     71 CB         -3.2096  -19.3154  -45.3440 C.3       12 UNK        -0.1800 
     72 C          -4.2371  -21.6266  -45.5226 C.2       12 UNK         0.5000 
     73 O          -5.3582  -21.7548  -46.0136 O.2       12 UNK        -0.5000 
     74 N          -3.7941  -22.3571  -44.4883 N.am      13 UNK        -0.5000 
     75 CA         -4.5518  -23.4260  -43.8303 C.3       13 UNK         0.1400 
     76 CB         -3.8098  -23.8712  -42.5613 C.3       13 UNK        -0.1800 
     77 C          -4.8208  -24.6354  -44.7467 C.2       13 UNK         0.5000 
     78 O          -5.8810  -25.2528  -44.6426 O.2       13 UNK        -0.5000 
     79 N          -3.8734  -24.9323  -45.6458 N.am      14 UNK        -0.5000 
     80 CA         -3.9918  -25.9597  -46.6834 C.3       14 UNK         0.1400 
     81 CB         -2.5785  -26.4191  -47.0780 C.3       14 UNK        -0.1800 
     82 C          -4.7704  -25.4780  -47.9269 C.2       14 UNK         0.5000 
     83 O          -5.0062  -26.2775  -48.8346 O.2       14 UNK        -0.5000 
     84 N          -5.1266  -24.1858  -47.9634 N.am      15 UNK        -0.5000 
     85 CA         -5.7062  -23.4094  -49.0611 C.3       15 UNK         0.1400 
     86 CB         -7.0679  -23.9684  -49.5195 C.3       15 UNK        -0.1800 
     87 C          -4.7254  -23.2263  -50.2319 C.2       15 UNK         0.5000 
     88 O          -4.3502  -22.0928  -50.5277 O.2       15 UNK        -0.5000 
     89 N          -4.3437  -24.3419  -50.8740 N.am      16 UNK        -0.5000 
     90 CA         -3.3629  -24.4765  -51.9616 C.3       16 UNK         0.1400 
     91 CB         -1.9473  -24.1852  -51.4278 C.3       16 UNK        -0.1800 
     92 C          -3.6727  -23.6478  -53.2284 C.2       16 UNK         0.5000 
     93 O          -2.7842  -23.4444  -54.0576 O.2       16 UNK        -0.5000 
     94 N          -4.9219  -23.1842  -53.3681 N.am      17 UNK        -0.5000 
     95 CA         -5.3458  -22.1760  -54.3392 C.3       17 UNK         0.1400 
     96 CB         -6.7968  -21.7714  -54.0426 C.3       17 UNK        -0.1800 
     97 C          -5.1845  -22.5849  -55.8115 C.2       17 UNK         0.5000 
     98 O          -4.9596  -21.7126  -56.6496 O.2       17 UNK        -0.5000 
     99 N          -5.2711  -23.8900  -56.0954 N.am      18 UNK        -0.5000 
    100 CA        -5.0602  -24.4583  -57.4271 C.3       18 UNK         0.1400 
    101 CB        -5.6303  -25.8846  -57.4579 C.3       18 UNK        -0.1800 
    102 C         -3.5791  -24.4619  -57.8544 C.2       18 UNK         0.5000 
    103 O         -3.2983  -24.3907  -59.0512 O.2       18 UNK        -0.5000 
    104 N         -2.6642  -24.5489  -56.8793 N.am      19 UNK        -0.5000 
    105 CA        -1.2183  -24.5638  -57.0982 C.3       19 UNK         0.1400 
    106 CB        -0.5570  -25.4667  -56.0443 C.3       19 UNK        -0.1800 
    107 C         -0.6333  -23.1445  -57.0392 C.2       19 UNK         0.5000 
    108 O          0.1860  -22.7843  -57.8848 O.2       19 UNK        -0.5000 
    109 N         -1.0728  -22.3637  -56.0444 N.am      20 UNK        -0.5000 
    110 CA        -0.6200  -20.9963  -55.7878 C.3       20 UNK         0.1400 
    111 CB        -0.8855  -20.6746  -54.3116 C.3       20 UNK        -0.1800 
    112 C         -1.2782  -19.9434  -56.7011 C.2       20 UNK         0.5000 
    113 O         -0.8075  -18.8060  -56.7355 O.2       20 UNK        -0.5000 
    114 N         -2.3471  -20.3346  -57.4114 N.am      21 UNK        -0.5000 
    115 CA        -3.1834  -19.5129  -58.2936 C.3       21 UNK         0.1400 
    116 CB        -2.3747  -18.9701  -59.4909 C.3       21 UNK        -0.1800 
    117 C         -3.9614  -18.4190  -57.5302 C.2       21 UNK         0.5000 
    118 O         -4.1616  -17.3202  -58.0520 O.2       21 UNK        -0.5000 
    119 N         -4.3997  -18.7508  -56.3088 N.am      22 UNK        -0.5000 
    120 CA        -5.2400  -17.8930  -55.4545 C.3       22 UNK         0.1400 
    121 C         -6.7493  -17.9171  -55.8371 C.2       22 UNK         0.5000 
    122 N         -7.2073  -18.8262  -56.6906 N.am      22 UNK        -0.7600 
    123 O         -7.5185  -17.0904  -55.3549 O.2       22 UNK        -0.5000 
    124 C124       -5.0590  -18.1945  -53.9427 C.3       23 UNK        -0.0398 
    125 S125       -3.3291  -18.0601  -53.3834 S.3       23 UNK        -0.2404 
    126 C126       -3.4245  -18.8908  -51.7658 C.3       23 UNK        -0.0205 
    127 H127       -4.6874  -12.4391  -44.4038 H         1 UNK         0.0600 
    128 H128       -4.3676  -12.5649  -46.1368 H         1 UNK         0.0600 
    129 H129       -4.1251  -11.0263  -45.3035 H         1 UNK         0.0600 
    130 H130       -2.4368  -13.6225  -46.5663 H         1 UNK         0.3000 
    131 H131        0.0331  -12.8073  -45.4940 H         1 UNK         0.0600 
    132 H132       -0.0704  -13.6973  -47.7159 H         1 UNK         0.0800 
    133 H133        1.0435  -14.6375  -46.7754 H         1 UNK         0.0800 
    134 H134        0.8987  -16.0343  -48.9816 H         1 UNK         0.0800 
    135 H135       -0.5220  -15.2985  -49.6784 H         1 UNK         0.0800 
    136 H136       -2.4947  -16.7653  -50.3429 H         1 UNK         0.1150 
    137 H137       -1.4215  -20.7366  -51.5471 H         1 UNK         0.1150 
    138 H138        1.3142  -18.3856  -49.2324 H         1 UNK         0.1150 
    139 H139        2.0696  -20.4460  -50.1373 H         1 UNK         0.0800 
    140 H140        1.2414  -21.0249  -51.5577 H         1 UNK         0.0800 
    141 H141        0.6106  -20.7519  -47.7694 H         1 UNK         0.0800 
    142 H142        1.8641  -21.9539  -47.6167 H         1 UNK         0.0800 
    143 H143       -0.0436  -23.7028  -47.3022 H         1 UNK         0.0600 
    144 H144        0.9466  -21.8698  -45.2904 H         1 UNK         0.3000 
    145 H145       -0.1144  -23.8087  -42.5179 H         1 UNK         0.0600 
    146 H146        2.3123  -23.8465  -42.0157 H         1 UNK         0.0600 
    147 H147        1.9458  -25.0059  -43.2833 H         1 UNK         0.0600 
    148 H148        2.6986  -23.4688  -43.6944 H         1 UNK         0.0600 
    149 H149        1.5484  -21.4862  -42.7732 H         1 UNK         0.3000 
    150 H150       -1.0492  -19.0705  -42.8994 H         1 UNK         0.0600 
    151 H151        0.7664  -19.8111  -40.5471 H         1 UNK         0.0600 
    152 H152       -0.9860  -19.6653  -40.4764 H         1 UNK         0.0600 
    153 H153       -0.0049  -18.2484  -40.8042 H         1 UNK         0.0600 
    154 H154        1.7137  -18.6779  -42.6036 H         1 UNK         0.3000 
    155 H155        2.9605  -19.3369  -45.7069 H         1 UNK         0.0600 
    156 H156        1.7168  -16.5560  -45.4410 H         1 UNK         0.0600 
    157 H157        1.5405  -17.6396  -46.8151 H         1 UNK         0.0600 
    158 H158        3.1135  -16.9539  -46.4434 H         1 UNK         0.0600 
    159 H159        3.5365  -17.1570  -43.8917 H         1 UNK         0.3000 
    160 H160        5.1860  -19.0000  -41.4324 H         1 UNK         0.0600 
    161 H161        6.5540  -17.4040  -43.6677 H         1 UNK         0.0600 
    162 H162        6.9770  -19.0425  -43.1824 H         1 UNK         0.0600 
    163 H163        7.2131  -17.7110  -42.0612 H         1 UNK         0.0600 
    164 H164        5.1492  -16.1988  -42.0113 H         1 UNK         0.3000 
    165 H165        1.9981  -15.4706  -40.4942 H         1 UNK         0.0600 
    166 H166        3.4735  -13.8983  -39.2751 H         1 UNK         0.0600 
    167 H167        4.8912  -14.8461  -39.7242 H         1 UNK         0.0600 
    168 H168        3.6594  -15.5425  -38.6842 H         1 UNK         0.0600 
    169 H169        2.2115  -14.2428  -42.2914 H         1 UNK         0.3000 
    170 H170        4.7585  -12.3161  -43.7172 H         1 UNK         0.0600 
    171 H171        4.8222  -14.2349  -45.2497 H         1 UNK         0.0600 
    172 H172        3.0972  -14.5058  -45.0702 H         1 UNK         0.0600 
    173 H173        3.6838  -13.0433  -45.8576 H         1 UNK         0.0600 
    174 H174        1.8115  -12.8072  -43.6617 H         1 UNK         0.3000 
    175 H175        1.2691   -9.6300  -42.0708 H         1 UNK         0.0600 
    176 H176        0.5030  -10.6555  -44.8502 H         1 UNK         0.0600 
    177 H177       -0.3368   -9.4035  -43.9403 H         1 UNK         0.0600 
    178 H178        1.3071   -9.1335  -44.4981 H         1 UNK         0.0600 
    179 H179       -0.5919  -11.6341  -42.8025 H         1 UNK         0.3000 
    180 H180       -0.7158  -13.1233  -39.5170 H         1 UNK         0.0600 
    181 H181       -2.5396  -11.2945  -41.1681 H         1 UNK         0.0600 
    182 H182       -1.9961  -10.9937  -39.5214 H         1 UNK         0.0600 
    183 H183       -3.0493  -12.3587  -39.8596 H         1 UNK         0.0600 
    184 H184       -1.6738  -13.3697  -42.3438 H         1 UNK         0.3000 
    185 H185       -0.4902  -16.6470  -42.5705 H         1 UNK         0.0600 
    186 H186       -2.8198  -17.3378  -43.1944 H         1 UNK         0.0600 
    187 H187       -2.6264  -17.2697  -41.4499 H         1 UNK         0.0600 
    188 H188       -3.4733  -15.9755  -42.2896 H         1 UNK         0.0600 
    189 H189       -2.1961  -15.1935  -44.3094 H         1 UNK         0.3000 
    190 H190       -1.1574  -20.6576  -45.7812 H         1 UNK         0.3000 
    191 H191       -3.6016  -20.3913  -47.1560 H         1 UNK         0.0600 
    192 H192       -4.1938  -18.8468  -45.3127 H         1 UNK         0.0600 
    193 H193       -2.5188  -18.5966  -45.7867 H         1 UNK         0.0600 
    194 H194       -2.8983  -19.4922  -44.3152 H         1 UNK         0.0600 
    195 H195       -2.8823  -22.1427  -44.0923 H         1 UNK         0.3000 
    196 H196       -5.5191  -23.0159  -43.5333 H         1 UNK         0.0600 
    197 H197       -2.8111  -24.2451  -42.7908 H         1 UNK         0.0600 
    198 H198       -3.7046  -23.0459  -41.8569 H         1 UNK         0.0600 
    199 H199       -4.3508  -24.6677  -42.0489 H         1 UNK         0.0600 
    200 H200       -3.0230  -24.3838  -45.6548 H         1 UNK         0.3000 
    201 H201       -4.5271  -26.8193  -46.2752 H         1 UNK         0.0600 
    202 H202       -1.9985  -25.6055  -47.5151 H         1 UNK         0.0600 
    203 H203       -2.6169  -27.2254  -47.8114 H         1 UNK         0.0600 
    204 H204       -2.0295  -26.7931  -46.2135 H         1 UNK         0.0600 
    205 H205       -4.8441  -23.6214  -47.1725 H         1 UNK         0.3000 
    206 H206       -5.8898  -22.4157  -48.6500 H         1 UNK         0.0600 
    207 H207       -7.7656  -24.0304  -48.6843 H         1 UNK         0.0600 
    208 H208       -7.5182  -23.3184  -50.2706 H         1 UNK         0.0600 
    209 H209       -6.9857  -24.9622  -49.9593 H         1 UNK         0.0600 
    210 H210       -4.6963  -25.2153  -50.4938 H         1 UNK         0.3000 
    211 H211       -3.3927  -25.5218  -52.2712 H         1 UNK         0.0600 
    212 H212       -1.1849  -24.4101  -52.1745 H         1 UNK         0.0600 
    213 H213       -1.7249  -24.7856  -50.5455 H         1 UNK         0.0600 
    214 H214       -1.8359  -23.1365  -51.1519 H         1 UNK         0.0600 
    215 H215       -5.5852  -23.4175  -52.6447 H         1 UNK         0.3000 
    216 H216       -4.7062  -21.3057  -54.1856 H         1 UNK         0.0600 
    217 H217       -7.4760  -22.6202  -54.1300 H         1 UNK         0.0600 
    218 H218       -7.1414  -21.0036  -54.7361 H         1 UNK         0.0600 
    219 H219       -6.8946  -21.3647  -53.0357 H         1 UNK         0.0600 
    220 H220       -5.4597  -24.5355  -55.3425 H         1 UNK         0.3000 
    221 H221       -5.6121  -23.8552  -58.1515 H         1 UNK         0.0600 
    222 H222       -6.6954  -25.8887  -57.2251 H         1 UNK         0.0600 
    223 H223       -5.1267  -26.5356  -56.7421 H         1 UNK         0.0600 
    224 H224       -5.5133  -26.3307  -58.4464 H         1 UNK         0.0600 
    225 H225       -2.9739  -24.5346  -55.9161 H         1 UNK         0.3000 
    226 H226       -0.9960  -24.9811  -58.0827 H         1 UNK         0.0600 
    227 H227       -0.7428  -25.1119  -55.0296 H         1 UNK         0.0600 
    228 H228       -0.9294  -26.4888  -56.1139 H         1 UNK         0.0600 
    229 H229        0.5238  -25.5042  -56.1860 H         1 UNK         0.0600 
    230 H230       -1.7253  -22.7540  -55.3671 H         1 UNK         0.3000 
    231 H231        0.4576  -20.9459  -55.9568 H         1 UNK         0.0600 
    232 H232       -1.9489  -20.7278  -54.0758 H         1 UNK         0.0600 
    233 H233       -0.5413  -19.6714  -54.0565 H         1 UNK         0.0600 
    234 H234       -0.3636  -21.3742  -53.6586 H         1 UNK         0.0600 
    235 H235       -2.6683  -21.2839  -57.2798 H         1 UNK         0.3000 
    236 H236       -3.9398  -20.1864  -58.6988 H         1 UNK         0.0600 
    237 H237       -1.6458  -18.2195  -59.1848 H         1 UNK         0.0600 
    238 H238       -1.8390  -19.7712  -60.0002 H         1 UNK         0.0600 
    239 H239       -3.0323  -18.5031  -60.2249 H         1 UNK         0.0600 
    240 H240       -4.2273  -19.6919  -55.9857 H         1 UNK         0.3000 
    241 H241       -4.9168  -16.8616  -55.6085 H         1 UNK         0.0600 
    242 H242       -8.1846  -18.8268  -56.9372 H         1 UNK         0.3800 
    243 H243       -6.5882  -19.5154  -57.0882 H         1 UNK         0.3800 
    244 H244       -5.4369  -19.1870  -53.7016 H         1 UNK         0.0800 
    245 H245       -5.6480  -17.4959  -53.3455 H         1 UNK         0.0800 
    246 H246       -3.6828  -19.9398  -51.9164 H         1 UNK         0.0800 
    247 H247       -4.2278  -18.4527  -51.1718 H         1 UNK         0.0800 
@<TRIPOS>BOND
     1    1    2 1    
     2    1  127 1    
     3    1  128 1    
     4    1  129 1    
     5    2    3 2    
     6    2    4 am   BACKBONE|DICT|INTERRES
     7    4    5 1    
     8    4  130 1    
     9    5    6 1    
    10    5   65 1    
    11    5  131 1    
    12    6    7 1    
    13    6  132 1    
    14    6  133 1    
    15    7    8 1    
    16    8    9 1    
    17    8  134 1    
    18    8  135 1    
    19    9   10 ar   
    20    9   14 ar   
    21   10   11 ar   
    22   10  136 1    
    23   11   12 ar   
    24   11  126 1    
    25   12   13 ar   
    26   12  137 1    
    27   13   14 ar   
    28   13   15 1    
    29   14  138 1    
    30   15   16 1    
    31   15  139 1    
    32   15  140 1    
    33   16   17 1    
    34   17   18 1    
    35   17  141 1    
    36   17  142 1    
    37   18   19 1    
    38   18   67 1    
    39   18  143 1    
    40   19   20 am   BACKBONE|DICT|INTERRES
    41   19  144 1    
    42   20   21 2    
    43   20   22 1    
    44   22   23 1    
    45   22   24 1    
    46   22  145 1    
    47   23  146 1    
    48   23  147 1    
    49   23  148 1    
    50   24   25 am   BACKBONE|DICT|INTERRES
    51   24  149 1    
    52   25   26 2    
    53   25   27 1    
    54   27   28 1    
    55   27   29 1    
    56   27  150 1    
    57   28  151 1    
    58   28  152 1    
    59   28  153 1    
    60   29   30 am   BACKBONE|DICT|INTERRES
    61   29  154 1    
    62   30   31 2    
    63   30   32 1    
    64   32   33 1    
    65   32   34 1    
    66   32  155 1    
    67   33  156 1    
    68   33  157 1    
    69   33  158 1    
    70   34   35 am   BACKBONE|DICT|INTERRES
    71   34  159 1    
    72   35   36 2    
    73   35   37 1    
    74   37   38 1    
    75   37   39 1    
    76   37  160 1    
    77   38  161 1    
    78   38  162 1    
    79   38  163 1    
    80   39   40 am   BACKBONE|DICT|INTERRES
    81   39  164 1    
    82   40   41 2    
    83   40   42 1    
    84   42   43 1    
    85   42   44 1    
    86   42  165 1    
    87   43  166 1    
    88   43  167 1    
    89   43  168 1    
    90   44   45 am   BACKBONE|DICT|INTERRES
    91   44  169 1    
    92   45   46 2    
    93   45   47 1    
    94   47   48 1    
    95   47   49 1    
    96   47  170 1    
    97   48  171 1    
    98   48  172 1    
    99   48  173 1    
   100   49   50 am   BACKBONE|DICT|INTERRES
   101   49  174 1    
   102   50   51 2    
   103   50   52 1    
   104   52   53 1    
   105   52   54 1    
   106   52  175 1    
   107   53  176 1    
   108   53  177 1    
   109   53  178 1    
   110   54   55 am   BACKBONE|DICT|INTERRES
   111   54  179 1    
   112   55   56 2    
   113   55   57 1    
   114   57   58 1    
   115   57   59 1    
   116   57  180 1    
   117   58  181 1    
   118   58  182 1    
   119   58  183 1    
   120   59   60 am   BACKBONE|DICT|INTERRES
   121   59  184 1    
   122   60   61 2    
   123   60   62 1    
   124   62   63 1    
   125   62   64 1    
   126   62  185 1    
   127   63  186 1    
   128   63  187 1    
   129   63  188 1    
   130   64   65 am   BACKBONE|DICT|INTERRES
   131   64  189 1    
   132   65   66 2    
   133   67   68 2    
   134   67   69 am   BACKBONE|DICT|INTERRES
   135   69   70 1    
   136   69  190 1    
   137   70   71 1    
   138   70   72 1    
   139   70  191 1    
   140   71  192 1    
   141   71  193 1    
   142   71  194 1    
   143   72   73 2    
   144   72   74 am   BACKBONE|DICT|INTERRES
   145   74   75 1    
   146   74  195 1    
   147   75   76 1    
   148   75   77 1    
   149   75  196 1    
   150   76  197 1    
   151   76  198 1    
   152   76  199 1    
   153   77   78 2    
   154   77   79 am   BACKBONE|DICT|INTERRES
   155   79   80 1    
   156   79  200 1    
   157   80   81 1    
   158   80   82 1    
   159   80  201 1    
   160   81  202 1    
   161   81  203 1    
   162   81  204 1    
   163   82   83 2    
   164   82   84 am   BACKBONE|DICT|INTERRES
   165   84   85 1    
   166   84  205 1    
   167   85   86 1    
   168   85   87 1    
   169   85  206 1    
   170   86  207 1    
   171   86  208 1    
   172   86  209 1    
   173   87   88 2    
   174   87   89 am   BACKBONE|DICT|INTERRES
   175   89   90 1    
   176   89  210 1    
   177   90   91 1    
   178   90   92 1    
   179   90  211 1    
   180   91  212 1    
   181   91  213 1    
   182   91  214 1    
   183   92   93 2    
   184   92   94 am   BACKBONE|DICT|INTERRES
   185   94   95 1    
   186   94  215 1    
   187   95   96 1    
   188   95   97 1    
   189   95  216 1    
   190   96  217 1    
   191   96  218 1    
   192   96  219 1    
   193   97   98 2    
   194   97   99 am   BACKBONE|DICT|INTERRES
   195   99  100 1    
   196   99  220 1    
   197  100  101 1    
   198  100  102 1    
   199  100  221 1    
   200  101  222 1    
   201  101  223 1    
   202  101  224 1    
   203  102  103 2    
   204  102  104 am   BACKBONE|DICT|INTERRES
   205  104  105 1    
   206  104  225 1    
   207  105  106 1    
   208  105  107 1    
   209  105  226 1    
   210  106  227 1    
   211  106  228 1    
   212  106  229 1    
   213  107  108 2    
   214  107  109 am   BACKBONE|DICT|INTERRES
   215  109  110 1    
   216  109  230 1    
   217  110  111 1    
   218  110  112 1    
   219  110  231 1    
   220  111  232 1    
   221  111  233 1    
   222  111  234 1    
   223  112  113 2    
   224  112  114 am   BACKBONE|DICT|INTERRES
   225  114  115 1    
   226  114  235 1    
   227  115  116 1    
   228  115  117 1    
   229  115  236 1    
   230  116  237 1    
   231  116  238 1    
   232  116  239 1    
   233  117  118 2    
   234  117  119 am   BACKBONE|DICT|INTERRES
   235  119  120 1    
   236  119  240 1    
   237  120  121 1    
   238  120  124 1    
   239  120  241 1    
   240  121  122 am   BACKBONE|DICT|INTERRES
   241  121  123 2    
   242  122  242 1    
   243  122  243 1    
   244  124  125 1    
   245  124  244 1    
   246  124  245 1    
   247  125  126 1    
   248  126  246 1    
   249  126  247 1    
@<TRIPOS>SUBSTRUCTURE
     1 UNK         1 GROUP             0       ****    0 ROOT    
