@<TRIPOS>MOLECULE
3R540
247   249    1
SMALL
USER_CHARGES


@<TRIPOS>ATOM
      1 CA         -2.0181  -13.8985  -53.9207 C.3       0 UNK        -0.1800 
      2 C          -0.8406  -14.1604  -52.9917 C.2       0 UNK         0.5000 
      3 O           0.3094  -14.0868  -53.4239 O.2       0 UNK        -0.5000 
      4 N          -1.1316  -14.4523  -51.7173 N.am      1 UNK        -0.5000 
      5 CA         -0.1658  -14.8479  -50.6841 C.3       1 UNK         0.1400 
      6 C6         -0.8703  -15.2576  -49.3677 C.3       23 UNK        -0.0398 
      7 S7         -2.1672  -16.5182  -49.5695 S.3       23 UNK        -0.2404 
      8 C8         -1.5766  -17.8348  -48.4528 C.3       23 UNK        -0.0205 
      9 C9         -0.3534  -18.5921  -48.9651 C.ar      23 UNK        -0.0193 
     10 C10        -0.2326  -18.9377  -50.3149 C.ar      23 UNK        -0.1150 
     11 C11         0.8733  -19.6568  -50.7730 C.ar      23 UNK        -0.0193 
     12 C12         1.8640  -20.0459  -49.8685 C.ar      23 UNK        -0.1150 
     13 C13         1.7553  -19.7197  -48.5140 C.ar      23 UNK        -0.0193 
     14 C14         0.6452  -18.9917  -48.0696 C.ar      23 UNK        -0.1150 
     15 C15         2.8570  -20.1301  -47.5444 C.3       23 UNK        -0.0205 
     16 S16         2.7075  -21.8623  -47.0097 S.3       23 UNK        -0.2404 
     17 C17         1.3178  -21.7232  -45.8429 C.3       23 UNK        -0.0398 
     18 CA          0.8800  -23.0781  -45.2279 C.3       11 UNK         0.1400 
     19 N           0.2868  -22.8466  -43.9132 N.am      11 UNK        -0.5000 
     20 C           0.7283  -23.3000  -42.7342 C.2       10 UNK         0.5000 
     21 O           1.7141  -24.0261  -42.6079 O.2       10 UNK        -0.5000 
     22 CA         -0.0632  -22.8669  -41.4794 C.3       10 UNK         0.1400 
     23 CB          0.7718  -21.9069  -40.6177 C.3       10 UNK        -0.1800 
     24 N          -1.3448  -22.2303  -41.8054 N.am      10 UNK        -0.5000 
     25 C          -2.4204  -22.8975  -42.2471 C.2       9 UNK         0.5000 
     26 O          -2.4682  -24.1253  -42.3089 O.2       9 UNK        -0.5000 
     27 CA         -3.6180  -22.0740  -42.7617 C.3       9 UNK         0.1400 
     28 CB         -4.7138  -21.9848  -41.6898 C.3       9 UNK        -0.1800 
     29 N          -3.2746  -20.7202  -43.2069 N.am      9 UNK        -0.5000 
     30 C          -2.4700  -20.4138  -44.2347 C.2       8 UNK         0.5000 
     31 O          -1.9347  -21.2587  -44.9499 O.2       8 UNK        -0.5000 
     32 CA         -2.1779  -18.9183  -44.4843 C.3       8 UNK         0.1400 
     33 CB         -3.3144  -17.9905  -44.0101 C.3       8 UNK        -0.1800 
     34 N          -0.8946  -18.4720  -43.9235 N.am      8 UNK        -0.5000 
     35 C          -0.4206  -18.6908  -42.6850 C.2       7 UNK         0.5000 
     36 O          -1.0105  -19.3329  -41.8159 O.2       7 UNK        -0.5000 
     37 CA          0.9399  -18.0620  -42.3520 C.3       7 UNK         0.1400 
     38 CB          2.0676  -18.6618  -43.2099 C.3       7 UNK        -0.1800 
     39 N           0.8812  -16.6145  -42.5380 N.am      7 UNK        -0.5000 
     40 C           0.4982  -15.7450  -41.5901 C.2       6 UNK         0.5000 
     41 O           0.2387  -16.0697  -40.4308 O.2       6 UNK        -0.5000 
     42 CA          0.3822  -14.2599  -41.9933 C.3       6 UNK         0.1400 
     43 CB          1.6701  -13.5036  -41.6340 C.3       6 UNK        -0.1800 
     44 N           0.1077  -14.0747  -43.4172 N.am      6 UNK        -0.5000 
     45 C          -1.0486  -14.3894  -44.0203 C.2       5 UNK         0.5000 
     46 O          -2.0577  -14.7430  -43.4118 O.2       5 UNK        -0.5000 
     47 CA         -1.0753  -14.3269  -45.5625 C.3       5 UNK         0.1400 
     48 CB         -1.7705  -13.0381  -46.0254 C.3       5 UNK        -0.1800 
     49 N           0.2589  -14.4028  -46.1681 N.am      5 UNK        -0.5000 
     50 C           1.0921  -15.4509  -46.0605 C.2       4 UNK         0.5000 
     51 O           0.7634  -16.5144  -45.5313 O.2       4 UNK        -0.5000 
     52 CA          2.5393  -15.2763  -46.5669 C.3       4 UNK         0.1400 
     53 CB          2.8655  -16.2656  -47.6926 C.3       4 UNK        -0.1800 
     54 N           2.8504  -13.9143  -47.0079 N.am      4 UNK        -0.5000 
     55 C           3.0531  -12.8777  -46.1799 C.2       3 UNK         0.5000 
     56 O           2.9799  -12.9711  -44.9540 O.2       3 UNK        -0.5000 
     57 CA          3.3495  -11.5033  -46.8161 C.3       3 UNK         0.1400 
     58 CB          4.8611  -11.2311  -46.8213 C.3       3 UNK        -0.1800 
     59 N           2.8339  -11.3521  -48.1797 N.am      3 UNK        -0.5000 
     60 C           1.5381  -11.3803  -48.5182 C.2       2 UNK         0.5000 
     61 O           0.6295  -11.5283  -47.6992 O.2       2 UNK        -0.5000 
     62 CA          1.1832  -11.2836  -50.0182 C.3       2 UNK         0.1400 
     63 CB          2.3887  -11.0158  -50.9476 C.3       2 UNK        -0.1800 
     64 N           0.4508  -12.4780  -50.4502 N.am      2 UNK        -0.5000 
     65 C           0.8699  -13.7505  -50.3572 C.2       1 UNK         0.5000 
     66 O           1.9980  -14.0736  -49.9825 O.2       1 UNK        -0.5000 
     67 C          -0.1170  -23.8343  -46.1379 C.2       11 UNK         0.5000 
     68 O           0.0165  -23.7707  -47.3593 O.2       11 UNK        -0.5000 
     69 N          -1.1136  -24.5160  -45.5442 N.am      12 UNK        -0.5000 
     70 CA         -2.3061  -25.0850  -46.1903 C.3       12 UNK         0.1400 
     71 CB         -3.1070  -25.9013  -45.1654 C.3       12 UNK        -0.1800 
     72 C          -2.0771  -25.9230  -47.4625 C.2       12 UNK         0.5000 
     73 O          -2.9283  -25.8926  -48.3521 O.2       12 UNK        -0.5000 
     74 N          -0.9449  -26.6343  -47.5359 N.am      13 UNK        -0.5000 
     75 CA         -0.5448  -27.4404  -48.6906 C.3       13 UNK         0.1400 
     76 CB          0.6439  -28.3293  -48.2946 C.3       13 UNK        -0.1800 
     77 C          -0.1988  -26.6013  -49.9374 C.2       13 UNK         0.5000 
     78 O          -0.4720  -27.0431  -51.0539 O.2       13 UNK        -0.5000 
     79 N           0.3842  -25.4135  -49.7295 N.am      14 UNK        -0.5000 
     80 CA          0.7265  -24.4588  -50.7858 C.3       14 UNK         0.1400 
     81 CB          2.0561  -23.7745  -50.4377 C.3       14 UNK        -0.1800 
     82 C          -0.3834  -23.4109  -50.9636 C.2       14 UNK         0.5000 
     83 O          -0.6553  -22.9956  -52.0896 O.2       14 UNK        -0.5000 
     84 N          -1.0198  -23.0252  -49.8501 N.am      15 UNK        -0.5000 
     85 CA         -2.1106  -22.0561  -49.7854 C.3       15 UNK         0.1400 
     86 CB         -2.2458  -21.5600  -48.3390 C.3       15 UNK        -0.1800 
     87 C          -3.4602  -22.5964  -50.2924 C.2       15 UNK         0.5000 
     88 O          -4.4111  -21.8231  -50.3672 O.2       15 UNK        -0.5000 
     89 N          -3.5441  -23.9012  -50.5912 N.am      16 UNK        -0.5000 
     90 CA         -4.7346  -24.6230  -51.0536 C.3       16 UNK         0.1400 
     91 CB         -5.1235  -24.1716  -52.4772 C.3       16 UNK        -0.1800 
     92 C          -5.8948  -24.5198  -50.0418 C.2       16 UNK         0.5000 
     93 O          -7.0027  -24.1150  -50.3978 O.2       16 UNK        -0.5000 
     94 N          -5.5835  -24.8653  -48.7840 N.am      17 UNK        -0.5000 
     95 CA         -6.4463  -24.7781  -47.6017 C.3       17 UNK         0.1400 
     96 CB         -7.6553  -25.7301  -47.7208 C.3       17 UNK        -0.1800 
     97 C          -6.8379  -23.3237  -47.2603 C.2       17 UNK         0.5000 
     98 O          -8.0130  -23.0319  -47.0321 O.2       17 UNK        -0.5000 
     99 N          -5.8210  -22.4494  -47.2111 N.am      18 UNK        -0.5000 
    100 CA        -5.8857  -21.0331  -46.8260 C.3       18 UNK         0.1400 
    101 CB        -6.3442  -20.8800  -45.3598 C.3       18 UNK        -0.1800 
    102 C         -6.6985  -20.1567  -47.8031 C.2       18 UNK         0.5000 
    103 O         -7.4017  -19.2402  -47.3723 O.2       18 UNK        -0.5000 
    104 N         -6.5688  -20.4344  -49.1044 N.am      19 UNK        -0.5000 
    105 CA        -7.0617  -19.5886  -50.1874 C.3       19 UNK         0.1400 
    106 CB        -7.4346  -20.4902  -51.3765 C.3       19 UNK        -0.1800 
    107 C         -5.9750  -18.5752  -50.5934 C.2       19 UNK         0.5000 
    108 O         -4.8174  -18.7035  -50.1870 O.2       19 UNK        -0.5000 
    109 N         -6.3467  -17.6029  -51.4354 N.am      20 UNK        -0.5000 
    110 CA        -5.4375  -16.6214  -52.0377 C.3       20 UNK         0.1400 
    111 CB        -6.2425  -15.3657  -52.4185 C.3       20 UNK        -0.1800 
    112 C         -4.6623  -17.2217  -53.2332 C.2       20 UNK         0.5000 
    113 O         -4.7188  -16.6915  -54.3445 O.2       20 UNK        -0.5000 
    114 N         -3.9886  -18.3497  -52.9873 N.am      21 UNK        -0.5000 
    115 CA        -3.1770  -19.0875  -53.9509 C.3       21 UNK         0.1400 
    116 CB        -3.0059  -20.5233  -53.4289 C.3       21 UNK        -0.1800 
    117 C         -1.8082  -18.4202  -54.1899 C.2       21 UNK         0.5000 
    118 O         -1.4209  -17.5208  -53.4426 O.2       21 UNK        -0.5000 
    119 N         -1.1036  -18.9140  -55.2176 N.am      22 UNK        -0.5000 
    120 CA         0.2319  -18.4933  -55.6778 C.3       22 UNK         0.1400 
    121 C          0.3791  -16.9631  -55.9520 C.2       22 UNK         0.5000 
    122 N          1.5269  -16.3537  -55.6877 N.am      22 UNK        -0.7600 
    123 O         -0.5311  -16.3337  -56.4871 O.2       22 UNK        -0.5000 
    124 C124        1.3999  -19.1843  -54.9064 C.3       23 UNK        -0.0398 
    125 S125        1.6896  -18.6229  -53.1917 S.3       23 UNK        -0.2404 
    126 C126        0.9891  -20.0086  -52.2459 C.3       23 UNK        -0.0205 
    127 H127       -1.9171  -12.9220  -54.3941 H         1 UNK         0.0600 
    128 H128       -2.9696  -13.9241  -53.3888 H         1 UNK         0.0600 
    129 H129       -2.0492  -14.6581  -54.7022 H         1 UNK         0.0600 
    130 H130       -2.0996  -14.5179  -51.4391 H         1 UNK         0.3000 
    131 H131        0.3800  -15.7142  -51.0655 H         1 UNK         0.0600 
    132 H132       -0.1337  -15.6325  -48.6594 H         1 UNK         0.0800 
    133 H133       -1.3352  -14.3916  -48.8956 H         1 UNK         0.0800 
    134 H134       -1.3763  -17.3988  -47.4730 H         1 UNK         0.0800 
    135 H135       -2.3907  -18.5450  -48.3144 H         1 UNK         0.0800 
    136 H136       -1.0005  -18.6455  -51.0171 H         1 UNK         0.1150 
    137 H137        2.7227  -20.6014  -50.2179 H         1 UNK         0.1150 
    138 H138        0.5589  -18.7384  -47.0227 H         1 UNK         0.1150 
    139 H139        3.8275  -19.9929  -48.0234 H         1 UNK         0.0800 
    140 H140        2.8597  -19.4863  -46.6642 H         1 UNK         0.0800 
    141 H141        0.4780  -21.2192  -46.3228 H         1 UNK         0.0800 
    142 H142        1.6513  -21.0484  -45.0543 H         1 UNK         0.0800 
    143 H143        1.7562  -23.7207  -45.1241 H         1 UNK         0.0600 
    144 H144       -0.5519  -22.2751  -43.9342 H         1 UNK         0.3000 
    145 H145       -0.2607  -23.7646  -40.8899 H         1 UNK         0.0600 
    146 H146        0.2214  -21.5893  -39.7320 H         1 UNK         0.0600 
    147 H147        1.6888  -22.3879  -40.2752 H         1 UNK         0.0600 
    148 H148        1.0603  -21.0143  -41.1718 H         1 UNK         0.0600 
    149 H149       -1.3685  -21.2133  -41.7797 H         1 UNK         0.3000 
    150 H150       -4.0206  -22.6136  -43.6208 H         1 UNK         0.0600 
    151 H151       -5.0181  -22.9783  -41.3574 H         1 UNK         0.0600 
    152 H152       -5.6037  -21.4861  -42.0745 H         1 UNK         0.0600 
    153 H153       -4.3724  -21.4346  -40.8121 H         1 UNK         0.0600 
    154 H154       -3.6228  -19.9619  -42.6384 H         1 UNK         0.3000 
    155 H155       -2.0972  -18.8095  -45.5663 H         1 UNK         0.0600 
    156 H156       -3.3664  -17.9237  -42.9229 H         1 UNK         0.0600 
    157 H157       -4.2845  -18.3316  -44.3735 H         1 UNK         0.0600 
    158 H158       -3.1709  -16.9812  -44.3938 H         1 UNK         0.0600 
    159 H159       -0.3190  -17.9165  -44.5486 H         1 UNK         0.3000 
    160 H160        1.1694  -18.2875  -41.3082 H         1 UNK         0.0600 
    161 H161        1.9070  -18.5103  -44.2770 H         1 UNK         0.0600 
    162 H162        2.1521  -19.7358  -43.0416 H         1 UNK         0.0600 
    163 H163        3.0304  -18.2194  -42.9541 H         1 UNK         0.0600 
    164 H164        1.0151  -16.2804  -43.4839 H         1 UNK         0.3000 
    165 H165       -0.4421  -13.8242  -41.4249 H         1 UNK         0.0600 
    166 H166        1.5791  -12.4405  -41.8578 H         1 UNK         0.0600 
    167 H167        1.8931  -13.5939  -40.5701 H         1 UNK         0.0600 
    168 H168        2.5295  -13.8889  -42.1845 H         1 UNK         0.0600 
    169 H169        0.8822  -13.7624  -43.9878 H         1 UNK         0.3000 
    170 H170       -1.6551  -15.1811  -45.9183 H         1 UNK         0.0600 
    171 H171       -2.7858  -12.9787  -45.6311 H         1 UNK         0.0600 
    172 H172       -1.2347  -12.1506  -45.6861 H         1 UNK         0.0600 
    173 H173       -1.8426  -12.9874  -47.1109 H         1 UNK         0.0600 
    174 H174        0.5978  -13.5571  -46.6100 H         1 UNK         0.3000 
    175 H175        3.1960  -15.5123  -45.7269 H         1 UNK         0.0600 
    176 H176        2.1446  -16.2213  -48.5077 H         1 UNK         0.0600 
    177 H177        3.8568  -16.0862  -48.1089 H         1 UNK         0.0600 
    178 H178        2.8599  -17.2830  -47.3098 H         1 UNK         0.0600 
    179 H179        2.8740  -13.7604  -48.0099 H         1 UNK         0.3000 
    180 H180        2.8682  -10.7473  -46.1923 H         1 UNK         0.0600 
    181 H181        5.3957  -11.9433  -47.4512 H         1 UNK         0.0600 
    182 H182        5.2757  -11.3071  -45.8151 H         1 UNK         0.0600 
    183 H183        5.0807  -10.2276  -47.1862 H         1 UNK         0.0600 
    184 H184        3.5200  -11.2581  -48.9145 H         1 UNK         0.3000 
    185 H185        0.4959  -10.4422  -50.1156 H         1 UNK         0.0600 
    186 H186        2.8895  -10.0832  -50.6848 H         1 UNK         0.0600 
    187 H187        3.1290  -11.8156  -50.9116 H         1 UNK         0.0600 
    188 H188        2.0628  -10.9208  -51.9836 H         1 UNK         0.0600 
    189 H189       -0.4997  -12.3217  -50.7538 H         1 UNK         0.3000 
    190 H190       -1.1247  -24.5236  -44.5340 H         1 UNK         0.3000 
    191 H191       -2.9308  -24.2422  -46.4859 H         1 UNK         0.0600 
    192 H192       -3.5272  -25.2593  -44.3928 H         1 UNK         0.0600 
    193 H193       -3.9451  -26.4188  -45.6343 H         1 UNK         0.0600 
    194 H194       -2.4873  -26.6557  -44.6795 H         1 UNK         0.0600 
    195 H195       -0.2994  -26.5904  -46.7614 H         1 UNK         0.3000 
    196 H196       -1.3821  -28.0905  -48.9536 H         1 UNK         0.0600 
    197 H197        0.9528  -28.9623  -49.1275 H         1 UNK         0.0600 
    198 H198        0.3849  -28.9885  -47.4659 H         1 UNK         0.0600 
    199 H199        1.5085  -27.7356  -47.9951 H         1 UNK         0.0600 
    200 H200        0.5060  -25.0893  -48.7759 H         1 UNK         0.3000 
    201 H201        0.8552  -24.9799  -51.7368 H         1 UNK         0.0600 
    202 H202        2.8584  -24.5034  -50.3244 H         1 UNK         0.0600 
    203 H203        1.9824  -23.2094  -49.5089 H         1 UNK         0.0600 
    204 H204        2.3547  -23.0786  -51.2224 H         1 UNK         0.0600 
    205 H205       -0.6834  -23.3768  -48.9560 H         1 UNK         0.3000 
    206 H206       -1.8456  -21.2034  -50.4092 H         1 UNK         0.0600 
    207 H207       -1.3044  -21.1557  -47.9699 H         1 UNK         0.0600 
    208 H208       -2.9894  -20.7675  -48.2704 H         1 UNK         0.0600 
    209 H209       -2.5500  -22.3559  -47.6629 H         1 UNK         0.0600 
    210 H210       -2.7234  -24.4676  -50.4297 H         1 UNK         0.3000 
    211 H211       -4.4588  -25.6773  -51.1040 H         1 UNK         0.0600 
    212 H212       -5.4460  -23.1305  -52.5009 H         1 UNK         0.0600 
    213 H213       -5.9431  -24.7760  -52.8671 H         1 UNK         0.0600 
    214 H214       -4.2850  -24.2766  -53.1657 H         1 UNK         0.0600 
    215 H215       -4.6385  -25.2068  -48.6195 H         1 UNK         0.3000 
    216 H216       -5.8442  -25.1303  -46.7633 H         1 UNK         0.0600 
    217 H217       -8.2182  -25.7618  -46.7872 H         1 UNK         0.0600 
    218 H218       -7.3346  -26.7485  -47.9400 H         1 UNK         0.0600 
    219 H219       -8.3455  -25.4192  -48.5053 H         1 UNK         0.0600 
    220 H220       -4.9070  -22.7868  -47.4701 H         1 UNK         0.3000 
    221 H221       -4.8623  -20.6611  -46.8761 H         1 UNK         0.0600 
    222 H222       -7.3994  -21.1252  -45.2363 H         1 UNK         0.0600 
    223 H223       -5.7740  -21.5279  -44.6976 H         1 UNK         0.0600 
    224 H224       -6.2058  -19.8563  -45.0111 H         1 UNK         0.0600 
    225 H225       -5.8903  -21.1344  -49.3938 H         1 UNK         0.3000 
    226 H226       -7.9510  -19.0428  -49.8662 H         1 UNK         0.0600 
    227 H227       -8.1514  -21.2565  -51.0804 H         1 UNK         0.0600 
    228 H228       -7.8893  -19.9144  -52.1831 H         1 UNK         0.0600 
    229 H229       -6.5604  -20.9960  -51.7879 H         1 UNK         0.0600 
    230 H230       -7.3033  -17.5765  -51.7575 H         1 UNK         0.3000 
    231 H231       -4.6963  -16.3209  -51.2946 H         1 UNK         0.0600 
    232 H232       -7.0074  -15.5875  -53.1636 H         1 UNK         0.0600 
    233 H233       -5.5918  -14.5946  -52.8331 H         1 UNK         0.0600 
    234 H234       -6.7369  -14.9359  -51.5472 H         1 UNK         0.0600 
    235 H235       -3.9820  -18.6878  -52.0305 H         1 UNK         0.3000 
    236 H236       -3.7124  -19.1223  -54.9020 H         1 UNK         0.0600 
    237 H237       -3.9705  -20.9981  -53.2470 H         1 UNK         0.0600 
    238 H238       -2.4664  -21.1487  -54.1408 H         1 UNK         0.0600 
    239 H239       -2.4471  -20.5374  -52.4948 H         1 UNK         0.0600 
    240 H240       -1.5317  -19.6374  -55.7765 H         1 UNK         0.3000 
    241 H241        0.2840  -18.9109  -56.6839 H         1 UNK         0.0600 
    242 H242        1.6055  -15.3649  -55.8659 H         1 UNK         0.3800 
    243 H243        2.2727  -16.8351  -55.2109 H         1 UNK         0.3800 
    244 H244        1.2374  -20.2629  -54.9011 H         1 UNK         0.0800 
    245 H245        2.3314  -19.0486  -55.4576 H         1 UNK         0.0800 
    246 H246        0.0041  -20.2627  -52.6380 H         1 UNK         0.0800 
    247 H247        1.6114  -20.8943  -52.3804 H         1 UNK         0.0800 
@<TRIPOS>BOND
     1    1    2 1    
     2    1  127 1    
     3    1  128 1    
     4    1  129 1    
     5    2    3 2    
     6    2    4 am   BACKBONE|DICT|INTERRES
     7    4    5 1    
     8    4  130 1    
     9    5    6 1    
    10    5   65 1    
    11    5  131 1    
    12    6    7 1    
    13    6  132 1    
    14    6  133 1    
    15    7    8 1    
    16    8    9 1    
    17    8  134 1    
    18    8  135 1    
    19    9   10 ar   
    20    9   14 ar   
    21   10   11 ar   
    22   10  136 1    
    23   11   12 ar   
    24   11  126 1    
    25   12   13 ar   
    26   12  137 1    
    27   13   14 ar   
    28   13   15 1    
    29   14  138 1    
    30   15   16 1    
    31   15  139 1    
    32   15  140 1    
    33   16   17 1    
    34   17   18 1    
    35   17  141 1    
    36   17  142 1    
    37   18   19 1    
    38   18   67 1    
    39   18  143 1    
    40   19   20 am   BACKBONE|DICT|INTERRES
    41   19  144 1    
    42   20   21 2    
    43   20   22 1    
    44   22   23 1    
    45   22   24 1    
    46   22  145 1    
    47   23  146 1    
    48   23  147 1    
    49   23  148 1    
    50   24   25 am   BACKBONE|DICT|INTERRES
    51   24  149 1    
    52   25   26 2    
    53   25   27 1    
    54   27   28 1    
    55   27   29 1    
    56   27  150 1    
    57   28  151 1    
    58   28  152 1    
    59   28  153 1    
    60   29   30 am   BACKBONE|DICT|INTERRES
    61   29  154 1    
    62   30   31 2    
    63   30   32 1    
    64   32   33 1    
    65   32   34 1    
    66   32  155 1    
    67   33  156 1    
    68   33  157 1    
    69   33  158 1    
    70   34   35 am   BACKBONE|DICT|INTERRES
    71   34  159 1    
    72   35   36 2    
    73   35   37 1    
    74   37   38 1    
    75   37   39 1    
    76   37  160 1    
    77   38  161 1    
    78   38  162 1    
    79   38  163 1    
    80   39   40 am   BACKBONE|DICT|INTERRES
    81   39  164 1    
    82   40   41 2    
    83   40   42 1    
    84   42   43 1    
    85   42   44 1    
    86   42  165 1    
    87   43  166 1    
    88   43  167 1    
    89   43  168 1    
    90   44   45 am   BACKBONE|DICT|INTERRES
    91   44  169 1    
    92   45   46 2    
    93   45   47 1    
    94   47   48 1    
    95   47   49 1    
    96   47  170 1    
    97   48  171 1    
    98   48  172 1    
    99   48  173 1    
   100   49   50 am   BACKBONE|DICT|INTERRES
   101   49  174 1    
   102   50   51 2    
   103   50   52 1    
   104   52   53 1    
   105   52   54 1    
   106   52  175 1    
   107   53  176 1    
   108   53  177 1    
   109   53  178 1    
   110   54   55 am   BACKBONE|DICT|INTERRES
   111   54  179 1    
   112   55   56 2    
   113   55   57 1    
   114   57   58 1    
   115   57   59 1    
   116   57  180 1    
   117   58  181 1    
   118   58  182 1    
   119   58  183 1    
   120   59   60 am   BACKBONE|DICT|INTERRES
   121   59  184 1    
   122   60   61 2    
   123   60   62 1    
   124   62   63 1    
   125   62   64 1    
   126   62  185 1    
   127   63  186 1    
   128   63  187 1    
   129   63  188 1    
   130   64   65 am   BACKBONE|DICT|INTERRES
   131   64  189 1    
   132   65   66 2    
   133   67   68 2    
   134   67   69 am   BACKBONE|DICT|INTERRES
   135   69   70 1    
   136   69  190 1    
   137   70   71 1    
   138   70   72 1    
   139   70  191 1    
   140   71  192 1    
   141   71  193 1    
   142   71  194 1    
   143   72   73 2    
   144   72   74 am   BACKBONE|DICT|INTERRES
   145   74   75 1    
   146   74  195 1    
   147   75   76 1    
   148   75   77 1    
   149   75  196 1    
   150   76  197 1    
   151   76  198 1    
   152   76  199 1    
   153   77   78 2    
   154   77   79 am   BACKBONE|DICT|INTERRES
   155   79   80 1    
   156   79  200 1    
   157   80   81 1    
   158   80   82 1    
   159   80  201 1    
   160   81  202 1    
   161   81  203 1    
   162   81  204 1    
   163   82   83 2    
   164   82   84 am   BACKBONE|DICT|INTERRES
   165   84   85 1    
   166   84  205 1    
   167   85   86 1    
   168   85   87 1    
   169   85  206 1    
   170   86  207 1    
   171   86  208 1    
   172   86  209 1    
   173   87   88 2    
   174   87   89 am   BACKBONE|DICT|INTERRES
   175   89   90 1    
   176   89  210 1    
   177   90   91 1    
   178   90   92 1    
   179   90  211 1    
   180   91  212 1    
   181   91  213 1    
   182   91  214 1    
   183   92   93 2    
   184   92   94 am   BACKBONE|DICT|INTERRES
   185   94   95 1    
   186   94  215 1    
   187   95   96 1    
   188   95   97 1    
   189   95  216 1    
   190   96  217 1    
   191   96  218 1    
   192   96  219 1    
   193   97   98 2    
   194   97   99 am   BACKBONE|DICT|INTERRES
   195   99  100 1    
   196   99  220 1    
   197  100  101 1    
   198  100  102 1    
   199  100  221 1    
   200  101  222 1    
   201  101  223 1    
   202  101  224 1    
   203  102  103 2    
   204  102  104 am   BACKBONE|DICT|INTERRES
   205  104  105 1    
   206  104  225 1    
   207  105  106 1    
   208  105  107 1    
   209  105  226 1    
   210  106  227 1    
   211  106  228 1    
   212  106  229 1    
   213  107  108 2    
   214  107  109 am   BACKBONE|DICT|INTERRES
   215  109  110 1    
   216  109  230 1    
   217  110  111 1    
   218  110  112 1    
   219  110  231 1    
   220  111  232 1    
   221  111  233 1    
   222  111  234 1    
   223  112  113 2    
   224  112  114 am   BACKBONE|DICT|INTERRES
   225  114  115 1    
   226  114  235 1    
   227  115  116 1    
   228  115  117 1    
   229  115  236 1    
   230  116  237 1    
   231  116  238 1    
   232  116  239 1    
   233  117  118 2    
   234  117  119 am   BACKBONE|DICT|INTERRES
   235  119  120 1    
   236  119  240 1    
   237  120  121 1    
   238  120  124 1    
   239  120  241 1    
   240  121  122 am   BACKBONE|DICT|INTERRES
   241  121  123 2    
   242  122  242 1    
   243  122  243 1    
   244  124  125 1    
   245  124  244 1    
   246  124  245 1    
   247  125  126 1    
   248  126  246 1    
   249  126  247 1    
@<TRIPOS>SUBSTRUCTURE
     1 UNK         1 GROUP             0       ****    0 ROOT    
