@<TRIPOS>MOLECULE
3R540
247   249    1
SMALL
USER_CHARGES


@<TRIPOS>ATOM
      1 CA         -1.0294  -18.5216  -50.3998 C.3       0 UNK        -0.1800 
      2 C          -0.9801  -17.1622  -49.7261 C.2       0 UNK         0.5000 
      3 O          -2.0262  -16.5532  -49.5087 O.2       0 UNK        -0.5000 
      4 N           0.2188  -16.6955  -49.3538 N.am      1 UNK        -0.5000 
      5 CA          0.4843  -15.4052  -48.6951 C.3       1 UNK         0.1400 
      6 C6          1.9632  -14.9690  -48.8592 C.3       23 UNK        -0.0398 
      7 S7          2.4254  -14.6955  -50.6024 S.3       23 UNK        -0.2404 
      8 C8          3.7636  -15.9059  -50.8359 C.3       23 UNK        -0.0205 
      9 C9          3.2341  -17.3175  -51.0352 C.ar      23 UNK        -0.0193 
     10 C10         2.6475  -17.6726  -52.2532 C.ar      23 UNK        -0.1150 
     11 C11         2.2023  -18.9777  -52.4734 C.ar      23 UNK        -0.0193 
     12 C12         2.3540  -19.9309  -51.4633 C.ar      23 UNK        -0.1150 
     13 C13         2.9166  -19.5889  -50.2300 C.ar      23 UNK        -0.0193 
     14 C14         3.3614  -18.2769  -50.0254 C.ar      23 UNK        -0.1150 
     15 C15         3.0951  -20.6668  -49.1635 C.3       23 UNK        -0.0205 
     16 S16         2.6997  -20.1244  -47.4676 S.3       23 UNK        -0.2404 
     17 C17         0.8749  -20.0668  -47.4778 C.3       23 UNK        -0.0398 
     18 CA          0.2144  -21.3836  -46.9964 C.3       11 UNK         0.1400 
     19 N           0.7455  -21.8432  -45.7060 N.am      11 UNK        -0.5000 
     20 C           0.5479  -23.0519  -45.1634 C.2       10 UNK         0.5000 
     21 O          -0.2840  -23.8551  -45.5859 O.2       10 UNK        -0.5000 
     22 CA          1.4158  -23.4287  -43.9551 C.3       10 UNK         0.1400 
     23 CB          2.8755  -23.6509  -44.3826 C.3       10 UNK        -0.1800 
     24 N           1.3618  -22.4034  -42.9152 N.am      10 UNK        -0.5000 
     25 C           1.1235  -22.6456  -41.6176 C.2       9 UNK         0.5000 
     26 O           0.9602  -23.7752  -41.1538 O.2       9 UNK        -0.5000 
     27 CA          1.0491  -21.4347  -40.6602 C.3       9 UNK         0.1400 
     28 CB          2.3632  -21.2879  -39.8778 C.3       9 UNK        -0.1800 
     29 N           0.7587  -20.1623  -41.3196 N.am      9 UNK        -0.5000 
     30 C          -0.3473  -19.8816  -42.0204 C.2       8 UNK         0.5000 
     31 O          -1.3051  -20.6462  -42.1213 O.2       8 UNK        -0.5000 
     32 CA         -0.3706  -18.5405  -42.7767 C.3       8 UNK         0.1400 
     33 CB         -1.1465  -17.5046  -41.9523 C.3       8 UNK        -0.1800 
     34 N           0.9523  -17.9986  -43.1162 N.am      8 UNK        -0.5000 
     35 C           1.9174  -18.6304  -43.8034 C.2       7 UNK         0.5000 
     36 O           1.8207  -19.7898  -44.2021 O.2       7 UNK        -0.5000 
     37 CA          3.2280  -17.8647  -44.0365 C.3       7 UNK         0.1400 
     38 CB          3.1030  -16.9109  -45.2306 C.3       7 UNK        -0.1800 
     39 N           3.6173  -17.1088  -42.8486 N.am      7 UNK        -0.5000 
     40 C           4.2421  -17.6384  -41.7883 C.2       6 UNK         0.5000 
     41 O           4.6140  -18.8103  -41.7267 O.2       6 UNK        -0.5000 
     42 CA          4.4763  -16.7042  -40.5861 C.3       6 UNK         0.1400 
     43 CB          5.8118  -15.9595  -40.7336 C.3       6 UNK        -0.1800 
     44 N           3.3993  -15.7290  -40.4070 N.am      6 UNK        -0.5000 
     45 C           2.1529  -16.0377  -40.0227 C.2       5 UNK         0.5000 
     46 O           1.7863  -17.1790  -39.7411 O.2       5 UNK        -0.5000 
     47 CA          1.1388  -14.8781  -39.9742 C.3       5 UNK         0.1400 
     48 CB          1.1370  -14.2249  -38.5841 C.3       5 UNK        -0.1800 
     49 N           1.3580  -13.8444  -40.9929 N.am      5 UNK        -0.5000 
     50 C           1.3012  -14.0516  -42.3148 C.2       4 UNK         0.5000 
     51 O           1.1463  -15.1626  -42.8256 O.2       4 UNK        -0.5000 
     52 CA          1.4656  -12.8236  -43.2209 C.3       4 UNK         0.1400 
     53 CB          2.7732  -12.9104  -44.0231 C.3       4 UNK        -0.1800 
     54 N           0.3373  -12.7706  -44.1444 N.am      4 UNK        -0.5000 
     55 C          -0.8039  -12.1043  -43.9131 C.2       3 UNK         0.5000 
     56 O          -0.9728  -11.3543  -42.9507 O.2       3 UNK        -0.5000 
     57 CA         -1.9632  -12.3231  -44.9092 C.3       3 UNK         0.1400 
     58 CB         -1.9334  -11.2574  -46.0153 C.3       3 UNK        -0.1800 
     59 N          -1.9238  -13.6491  -45.5242 N.am      3 UNK        -0.5000 
     60 C          -2.1336  -14.7985  -44.8693 C.2       2 UNK         0.5000 
     61 O          -2.6133  -14.8456  -43.7368 O.2       2 UNK        -0.5000 
     62 CA         -1.7166  -16.1102  -45.5728 C.3       2 UNK         0.1400 
     63 CB         -2.8902  -17.0980  -45.6711 C.3       2 UNK        -0.1800 
     64 N          -1.1308  -15.9485  -46.9068 N.am      2 UNK        -0.5000 
     65 C           0.0385  -15.3716  -47.2102 C.2       1 UNK         0.5000 
     66 O           0.7311  -14.8004  -46.3682 O.2       1 UNK        -0.5000 
     67 C          -1.3230  -21.2592  -47.0257 C.2       11 UNK         0.5000 
     68 O          -1.9130  -21.3275  -48.1047 O.2       11 UNK        -0.5000 
     69 N          -1.9576  -21.1254  -45.8528 N.am      12 UNK        -0.5000 
     70 CA         -3.4144  -21.1342  -45.7090 C.3       12 UNK         0.1400 
     71 CB         -3.7919  -20.6977  -44.2873 C.3       12 UNK        -0.1800 
     72 C          -4.0490  -22.5002  -46.0409 C.2       12 UNK         0.5000 
     73 O          -5.2102  -22.5380  -46.4464 O.2       12 UNK        -0.5000 
     74 N          -3.2786  -23.5843  -45.8777 N.am      13 UNK        -0.5000 
     75 CA         -3.6865  -24.9520  -46.1860 C.3       13 UNK         0.1400 
     76 CB         -3.3441  -25.8620  -44.9951 C.3       13 UNK        -0.1800 
     77 C          -2.9969  -25.4472  -47.4656 C.2       13 UNK         0.5000 
     78 O          -3.6755  -25.9266  -48.3734 O.2       13 UNK        -0.5000 
     79 N          -1.6646  -25.3095  -47.5245 N.am      14 UNK        -0.5000 
     80 CA         -0.8078  -25.8398  -48.5883 C.3       14 UNK         0.1400 
     81 CB          0.6603  -25.7371  -48.1452 C.3       14 UNK        -0.1800 
     82 C          -1.0021  -25.1501  -49.9496 C.2       14 UNK         0.5000 
     83 O          -0.8256  -25.7948  -50.9836 O.2       14 UNK        -0.5000 
     84 N          -1.3652  -23.8634  -49.9201 N.am      15 UNK        -0.5000 
     85 CA         -1.6264  -23.0315  -51.0945 C.3       15 UNK         0.1400 
     86 CB         -0.5187  -21.9742  -51.1961 C.3       15 UNK        -0.1800 
     87 C          -3.0347  -22.4122  -51.0415 C.2       15 UNK         0.5000 
     88 O          -3.3136  -21.4709  -51.7840 O.2       15 UNK        -0.5000 
     89 N          -3.8925  -22.9443  -50.1543 N.am      16 UNK        -0.5000 
     90 CA         -5.3105  -22.6194  -49.9585 C.3       16 UNK         0.1400 
     91 CB         -6.1312  -23.1745  -51.1416 C.3       16 UNK        -0.1800 
     92 C          -5.6078  -21.1244  -49.7052 C.2       16 UNK         0.5000 
     93 O          -6.7025  -20.6664  -50.0326 O.2       16 UNK        -0.5000 
     94 N          -4.6249  -20.3711  -49.1841 N.am      17 UNK        -0.5000 
     95 CA         -4.6413  -18.9069  -49.0447 C.3       17 UNK         0.1400 
     96 CB         -5.6673  -18.4665  -47.9776 C.3       17 UNK        -0.1800 
     97 C          -4.8394  -18.1729  -50.3954 C.2       17 UNK         0.5000 
     98 O          -5.4311  -17.0926  -50.4283 O.2       17 UNK        -0.5000 
     99 N          -4.3664  -18.7974  -51.4861 N.am      18 UNK        -0.5000 
    100 CA        -4.4811  -18.3819  -52.8860 C.3       18 UNK         0.1400 
    101 CB        -3.7554  -17.0429  -53.1390 C.3       18 UNK        -0.1800 
    102 C         -5.9264  -18.3881  -53.4309 C.2       18 UNK         0.5000 
    103 O         -6.1882  -17.7384  -54.4454 O.2       18 UNK        -0.5000 
    104 N         -6.8437  -19.1198  -52.7778 N.am      19 UNK        -0.5000 
    105 CA        -8.2221  -19.3103  -53.2305 C.3       19 UNK         0.1400 
    106 CB        -9.0445  -19.9890  -52.1249 C.3       19 UNK        -0.1800 
    107 C         -8.2555  -20.1338  -54.5301 C.2       19 UNK         0.5000 
    108 O         -7.8116  -21.2833  -54.5327 O.2       19 UNK        -0.5000 
    109 N         -8.7408  -19.5108  -55.6120 N.am      20 UNK        -0.5000 
    110 CA        -8.7879  -19.9813  -57.0041 C.3       20 UNK         0.1400 
    111 CB        -9.5720  -21.3007  -57.1443 C.3       20 UNK        -0.1800 
    112 C         -7.4076  -20.0687  -57.6887 C.2       20 UNK         0.5000 
    113 O         -7.2803  -19.6330  -58.8340 O.2       20 UNK        -0.5000 
    114 N         -6.3996  -20.5964  -56.9881 N.am      21 UNK        -0.5000 
    115 CA        -5.0108  -20.6964  -57.4215 C.3       21 UNK         0.1400 
    116 CB        -4.8418  -21.8949  -58.3739 C.3       21 UNK        -0.1800 
    117 C         -4.1076  -20.8427  -56.1883 C.2       21 UNK         0.5000 
    118 O         -4.5795  -21.2575  -55.1284 O.2       21 UNK        -0.5000 
    119 N         -2.8202  -20.5227  -56.3597 N.am      22 UNK        -0.5000 
    120 CA        -1.7676  -20.6686  -55.3365 C.3       22 UNK         0.1400 
    121 C         -1.1247  -22.0899  -55.2854 C.2       22 UNK         0.5000 
    122 N         -1.5552  -23.0483  -56.0974 N.am      22 UNK        -0.7600 
    123 O         -0.2169  -22.3368  -54.4990 O.2       22 UNK        -0.5000 
    124 C124       -0.7042  -19.5401  -55.4749 C.3       23 UNK        -0.0398 
    125 S125       -0.1771  -18.8583  -53.8674 S.3       23 UNK        -0.2404 
    126 C126        1.5699  -19.3598  -53.8035 C.3       23 UNK        -0.0205 
    127 H127       -1.5294  -19.2440  -49.7573 H         1 UNK         0.0600 
    128 H128       -0.0336  -18.8930  -50.6284 H         1 UNK         0.0600 
    129 H129       -1.5855  -18.4622  -51.3321 H         1 UNK         0.0600 
    130 H130        1.0427  -17.2358  -49.5787 H         1 UNK         0.3000 
    131 H131       -0.1283  -14.6531  -49.1967 H         1 UNK         0.0600 
    132 H132        2.1482  -14.0248  -48.3436 H         1 UNK         0.0800 
    133 H133        2.6298  -15.6993  -48.3977 H         1 UNK         0.0800 
    134 H134        4.4570  -15.8605  -49.9946 H         1 UNK         0.0800 
    135 H135        4.3411  -15.6187  -51.7158 H         1 UNK         0.0800 
    136 H136        2.5419  -16.9320  -53.0338 H         1 UNK         0.1150 
    137 H137        2.0385  -20.9462  -51.6453 H         1 UNK         0.1150 
    138 H138        3.8274  -18.0090  -49.0876 H         1 UNK         0.1150 
    139 H139        2.4940  -21.5471  -49.3970 H         1 UNK         0.0800 
    140 H140        4.1355  -20.9931  -49.1846 H         1 UNK         0.0800 
    141 H141        0.5445  -19.8206  -48.4856 H         1 UNK         0.0800 
    142 H142        0.5688  -19.2329  -46.8431 H         1 UNK         0.0800 
    143 H143        0.4668  -22.1556  -47.7262 H         1 UNK         0.0600 
    144 H144        1.3925  -21.1981  -45.2573 H         1 UNK         0.3000 
    145 H145        1.0271  -24.3767  -43.5773 H         1 UNK         0.0600 
    146 H146        3.4763  -24.0144  -43.5488 H         1 UNK         0.0600 
    147 H147        2.9419  -24.3928  -45.1796 H         1 UNK         0.0600 
    148 H148        3.3346  -22.7313  -44.7483 H         1 UNK         0.0600 
    149 H149        1.4802  -21.4417  -43.2191 H         1 UNK         0.3000 
    150 H150        0.2441  -21.6301  -39.9492 H         1 UNK         0.0600 
    151 H151        2.5998  -22.2026  -39.3327 H         1 UNK         0.0600 
    152 H152        2.3002  -20.4812  -39.1470 H         1 UNK         0.0600 
    153 H153        3.2023  -21.0738  -40.5414 H         1 UNK         0.0600 
    154 H154        1.4815  -19.4574  -41.2795 H         1 UNK         0.3000 
    155 H155       -0.9003  -18.7047  -43.7166 H         1 UNK         0.0600 
    156 H156       -0.7248  -17.3930  -40.9535 H         1 UNK         0.0600 
    157 H157       -2.1897  -17.8010  -41.8363 H         1 UNK         0.0600 
    158 H158       -1.1373  -16.5254  -42.4259 H         1 UNK         0.0600 
    159 H159        1.1080  -17.0245  -42.8666 H         1 UNK         0.3000 
    160 H160        4.0046  -18.5960  -44.2713 H         1 UNK         0.0600 
    161 H161        2.3921  -16.1153  -45.0201 H         1 UNK         0.0600 
    162 H162        2.7581  -17.4321  -46.1238 H         1 UNK         0.0600 
    163 H163        4.0605  -16.4488  -45.4699 H         1 UNK         0.0600 
    164 H164        3.2935  -16.1535  -42.7952 H         1 UNK         0.3000 
    165 H165        4.5278  -17.3246  -39.6887 H         1 UNK         0.0600 
    166 H166        6.0232  -15.3508  -39.8542 H         1 UNK         0.0600 
    167 H167        6.6390  -16.6613  -40.8481 H         1 UNK         0.0600 
    168 H168        5.8142  -15.3039  -41.6053 H         1 UNK         0.0600 
    169 H169        3.6145  -14.7644  -40.6119 H         1 UNK         0.3000 
    170 H170        0.1486  -15.3028  -40.1481 H         1 UNK         0.0600 
    171 H171        0.9519  -14.9653  -37.8046 H         1 UNK         0.0600 
    172 H172        2.0917  -13.7464  -38.3624 H         1 UNK         0.0600 
    173 H173        0.3551  -13.4694  -38.5038 H         1 UNK         0.0600 
    174 H174        1.4948  -12.9037  -40.6518 H         1 UNK         0.3000 
    175 H175        1.4994  -11.9190  -42.6101 H         1 UNK         0.0600 
    176 H176        2.7914  -13.7825  -44.6772 H         1 UNK         0.0600 
    177 H177        2.9087  -12.0267  -44.6467 H         1 UNK         0.0600 
    178 H178        3.6366  -12.9771  -43.3601 H         1 UNK         0.0600 
    179 H179        0.3807  -13.4213  -44.9228 H         1 UNK         0.3000 
    180 H180       -2.9017  -12.2244  -44.3597 H         1 UNK         0.0600 
    181 H181       -1.0191  -11.3167  -46.6072 H         1 UNK         0.0600 
    182 H182       -1.9855  -10.2539  -45.5910 H         1 UNK         0.0600 
    183 H183       -2.7806  -11.3676  -46.6924 H         1 UNK         0.0600 
    184 H184       -1.5321  -13.7055  -46.4519 H         1 UNK         0.3000 
    185 H185       -0.9476  -16.5591  -44.9424 H         1 UNK         0.0600 
    186 H186       -3.3219  -17.2971  -44.6896 H         1 UNK         0.0600 
    187 H187       -3.6850  -16.7077  -46.3070 H         1 UNK         0.0600 
    188 H188       -2.5682  -18.0546  -46.0831 H         1 UNK         0.0600 
    189 H189       -1.6710  -16.3096  -47.6887 H         1 UNK         0.3000 
    190 H190       -1.4121  -21.1072  -45.0031 H         1 UNK         0.3000 
    191 H191       -3.8204  -20.4024  -46.4072 H         1 UNK         0.0600 
    192 H192       -3.4544  -21.4208  -43.5441 H         1 UNK         0.0600 
    193 H193       -4.8736  -20.6037  -44.1839 H         1 UNK         0.0600 
    194 H194       -3.3567  -19.7305  -44.0373 H         1 UNK         0.0600 
    195 H195       -2.3198  -23.4604  -45.5742 H         1 UNK         0.3000 
    196 H196       -4.7653  -25.0059  -46.3469 H         1 UNK         0.0600 
    197 H197       -3.6180  -26.8972  -45.2025 H         1 UNK         0.0600 
    198 H198       -3.8867  -25.5555  -44.1008 H         1 UNK         0.0600 
    199 H199       -2.2790  -25.8434  -44.7601 H         1 UNK         0.0600 
    200 H200       -1.1793  -24.8729  -46.7429 H         1 UNK         0.3000 
    201 H201       -1.0517  -26.8964  -48.7171 H         1 UNK         0.0600 
    202 H202        0.8282  -26.2670  -47.2074 H         1 UNK         0.0600 
    203 H203        0.9666  -24.7001  -48.0027 H         1 UNK         0.0600 
    204 H204        1.3253  -26.1758  -48.8902 H         1 UNK         0.0600 
    205 H205       -1.4924  -23.4096  -49.0253 H         1 UNK         0.3000 
    206 H206       -1.6020  -23.6305  -52.0069 H         1 UNK         0.0600 
    207 H207        0.4383  -22.4587  -51.3838 H         1 UNK         0.0600 
    208 H208       -0.6971  -21.2795  -52.0171 H         1 UNK         0.0600 
    209 H209       -0.4253  -21.3906  -50.2823 H         1 UNK         0.0600 
    210 H210       -3.5555  -23.7235  -49.6070 H         1 UNK         0.3000 
    211 H211       -5.6251  -23.1497  -49.0592 H         1 UNK         0.0600 
    212 H212       -5.9118  -22.6415  -52.0683 H         1 UNK         0.0600 
    213 H213       -7.2023  -23.0831  -50.9578 H         1 UNK         0.0600 
    214 H214       -5.9229  -24.2317  -51.3054 H         1 UNK         0.0600 
    215 H215       -3.7451  -20.8260  -48.9618 H         1 UNK         0.3000 
    216 H216       -3.6528  -18.6256  -48.6817 H         1 UNK         0.0600 
    217 H217       -5.5774  -17.4003  -47.7681 H         1 UNK         0.0600 
    218 H218       -5.5219  -18.9927  -47.0356 H         1 UNK         0.0600 
    219 H219       -6.6923  -18.6455  -48.3032 H         1 UNK         0.0600 
    220 H220       -3.9432  -19.7150  -51.3652 H         1 UNK         0.3000 
    221 H221       -3.9517  -19.1454  -53.4550 H         1 UNK         0.0600 
    222 H222       -4.2682  -16.2071  -52.6631 H         1 UNK         0.0600 
    223 H223       -2.7328  -17.0644  -52.7653 H         1 UNK         0.0600 
    224 H224       -3.6987  -16.8255  -54.2061 H         1 UNK         0.0600 
    225 H225       -6.5671  -19.6339  -51.9498 H         1 UNK         0.3000 
    226 H226       -8.6565  -18.3256  -53.4147 H         1 UNK         0.0600 
    227 H227       -9.0276  -19.4048  -51.2046 H         1 UNK         0.0600 
    228 H228      -10.0874  -20.0957  -52.4255 H         1 UNK         0.0600 
    229 H229       -8.6662  -20.9860  -51.8956 H         1 UNK         0.0600 
    230 H230       -9.0327  -18.5503  -55.4934 H         1 UNK         0.3000 
    231 H231       -9.3504  -19.2178  -57.5440 H         1 UNK         0.0600 
    232 H232      -10.5611  -21.2223  -56.6931 H         1 UNK         0.0600 
    233 H233       -9.0542  -22.1387  -56.6775 H         1 UNK         0.0600 
    234 H234       -9.7131  -21.5553  -58.1954 H         1 UNK         0.0600 
    235 H235       -6.5770  -20.9234  -56.0404 H         1 UNK         0.3000 
    236 H236       -4.7343  -19.7751  -57.9387 H         1 UNK         0.0600 
    237 H237       -3.8087  -21.9897  -58.7098 H         1 UNK         0.0600 
    238 H238       -5.1195  -22.8320  -57.8897 H         1 UNK         0.0600 
    239 H239       -5.4592  -21.7848  -59.2655 H         1 UNK         0.0600 
    240 H240       -2.5096  -20.2137  -57.2698 H         1 UNK         0.3000 
    241 H241       -2.2502  -20.5527  -54.3644 H         1 UNK         0.0600 
    242 H242       -1.1275  -23.9597  -56.0520 H         1 UNK         0.3800 
    243 H243       -2.3033  -22.8769  -56.7481 H         1 UNK         0.3800 
    244 H244        0.1601  -19.8672  -56.0559 H         1 UNK         0.0800 
    245 H245       -1.1176  -18.6958  -56.0283 H         1 UNK         0.0800 
    246 H246        2.1147  -18.8862  -54.6214 H         1 UNK         0.0800 
    247 H247        1.6452  -20.4366  -53.9615 H         1 UNK         0.0800 
@<TRIPOS>BOND
     1    1    2 1    
     2    1  127 1    
     3    1  128 1    
     4    1  129 1    
     5    2    3 2    
     6    2    4 am   BACKBONE|DICT|INTERRES
     7    4    5 1    
     8    4  130 1    
     9    5    6 1    
    10    5   65 1    
    11    5  131 1    
    12    6    7 1    
    13    6  132 1    
    14    6  133 1    
    15    7    8 1    
    16    8    9 1    
    17    8  134 1    
    18    8  135 1    
    19    9   10 ar   
    20    9   14 ar   
    21   10   11 ar   
    22   10  136 1    
    23   11   12 ar   
    24   11  126 1    
    25   12   13 ar   
    26   12  137 1    
    27   13   14 ar   
    28   13   15 1    
    29   14  138 1    
    30   15   16 1    
    31   15  139 1    
    32   15  140 1    
    33   16   17 1    
    34   17   18 1    
    35   17  141 1    
    36   17  142 1    
    37   18   19 1    
    38   18   67 1    
    39   18  143 1    
    40   19   20 am   BACKBONE|DICT|INTERRES
    41   19  144 1    
    42   20   21 2    
    43   20   22 1    
    44   22   23 1    
    45   22   24 1    
    46   22  145 1    
    47   23  146 1    
    48   23  147 1    
    49   23  148 1    
    50   24   25 am   BACKBONE|DICT|INTERRES
    51   24  149 1    
    52   25   26 2    
    53   25   27 1    
    54   27   28 1    
    55   27   29 1    
    56   27  150 1    
    57   28  151 1    
    58   28  152 1    
    59   28  153 1    
    60   29   30 am   BACKBONE|DICT|INTERRES
    61   29  154 1    
    62   30   31 2    
    63   30   32 1    
    64   32   33 1    
    65   32   34 1    
    66   32  155 1    
    67   33  156 1    
    68   33  157 1    
    69   33  158 1    
    70   34   35 am   BACKBONE|DICT|INTERRES
    71   34  159 1    
    72   35   36 2    
    73   35   37 1    
    74   37   38 1    
    75   37   39 1    
    76   37  160 1    
    77   38  161 1    
    78   38  162 1    
    79   38  163 1    
    80   39   40 am   BACKBONE|DICT|INTERRES
    81   39  164 1    
    82   40   41 2    
    83   40   42 1    
    84   42   43 1    
    85   42   44 1    
    86   42  165 1    
    87   43  166 1    
    88   43  167 1    
    89   43  168 1    
    90   44   45 am   BACKBONE|DICT|INTERRES
    91   44  169 1    
    92   45   46 2    
    93   45   47 1    
    94   47   48 1    
    95   47   49 1    
    96   47  170 1    
    97   48  171 1    
    98   48  172 1    
    99   48  173 1    
   100   49   50 am   BACKBONE|DICT|INTERRES
   101   49  174 1    
   102   50   51 2    
   103   50   52 1    
   104   52   53 1    
   105   52   54 1    
   106   52  175 1    
   107   53  176 1    
   108   53  177 1    
   109   53  178 1    
   110   54   55 am   BACKBONE|DICT|INTERRES
   111   54  179 1    
   112   55   56 2    
   113   55   57 1    
   114   57   58 1    
   115   57   59 1    
   116   57  180 1    
   117   58  181 1    
   118   58  182 1    
   119   58  183 1    
   120   59   60 am   BACKBONE|DICT|INTERRES
   121   59  184 1    
   122   60   61 2    
   123   60   62 1    
   124   62   63 1    
   125   62   64 1    
   126   62  185 1    
   127   63  186 1    
   128   63  187 1    
   129   63  188 1    
   130   64   65 am   BACKBONE|DICT|INTERRES
   131   64  189 1    
   132   65   66 2    
   133   67   68 2    
   134   67   69 am   BACKBONE|DICT|INTERRES
   135   69   70 1    
   136   69  190 1    
   137   70   71 1    
   138   70   72 1    
   139   70  191 1    
   140   71  192 1    
   141   71  193 1    
   142   71  194 1    
   143   72   73 2    
   144   72   74 am   BACKBONE|DICT|INTERRES
   145   74   75 1    
   146   74  195 1    
   147   75   76 1    
   148   75   77 1    
   149   75  196 1    
   150   76  197 1    
   151   76  198 1    
   152   76  199 1    
   153   77   78 2    
   154   77   79 am   BACKBONE|DICT|INTERRES
   155   79   80 1    
   156   79  200 1    
   157   80   81 1    
   158   80   82 1    
   159   80  201 1    
   160   81  202 1    
   161   81  203 1    
   162   81  204 1    
   163   82   83 2    
   164   82   84 am   BACKBONE|DICT|INTERRES
   165   84   85 1    
   166   84  205 1    
   167   85   86 1    
   168   85   87 1    
   169   85  206 1    
   170   86  207 1    
   171   86  208 1    
   172   86  209 1    
   173   87   88 2    
   174   87   89 am   BACKBONE|DICT|INTERRES
   175   89   90 1    
   176   89  210 1    
   177   90   91 1    
   178   90   92 1    
   179   90  211 1    
   180   91  212 1    
   181   91  213 1    
   182   91  214 1    
   183   92   93 2    
   184   92   94 am   BACKBONE|DICT|INTERRES
   185   94   95 1    
   186   94  215 1    
   187   95   96 1    
   188   95   97 1    
   189   95  216 1    
   190   96  217 1    
   191   96  218 1    
   192   96  219 1    
   193   97   98 2    
   194   97   99 am   BACKBONE|DICT|INTERRES
   195   99  100 1    
   196   99  220 1    
   197  100  101 1    
   198  100  102 1    
   199  100  221 1    
   200  101  222 1    
   201  101  223 1    
   202  101  224 1    
   203  102  103 2    
   204  102  104 am   BACKBONE|DICT|INTERRES
   205  104  105 1    
   206  104  225 1    
   207  105  106 1    
   208  105  107 1    
   209  105  226 1    
   210  106  227 1    
   211  106  228 1    
   212  106  229 1    
   213  107  108 2    
   214  107  109 am   BACKBONE|DICT|INTERRES
   215  109  110 1    
   216  109  230 1    
   217  110  111 1    
   218  110  112 1    
   219  110  231 1    
   220  111  232 1    
   221  111  233 1    
   222  111  234 1    
   223  112  113 2    
   224  112  114 am   BACKBONE|DICT|INTERRES
   225  114  115 1    
   226  114  235 1    
   227  115  116 1    
   228  115  117 1    
   229  115  236 1    
   230  116  237 1    
   231  116  238 1    
   232  116  239 1    
   233  117  118 2    
   234  117  119 am   BACKBONE|DICT|INTERRES
   235  119  120 1    
   236  119  240 1    
   237  120  121 1    
   238  120  124 1    
   239  120  241 1    
   240  121  122 am   BACKBONE|DICT|INTERRES
   241  121  123 2    
   242  122  242 1    
   243  122  243 1    
   244  124  125 1    
   245  124  244 1    
   246  124  245 1    
   247  125  126 1    
   248  126  246 1    
   249  126  247 1    
@<TRIPOS>SUBSTRUCTURE
     1 UNK         1 GROUP             0       ****    0 ROOT    
