@<TRIPOS>MOLECULE
3R540
247   249    1
SMALL
USER_CHARGES


@<TRIPOS>ATOM
      1 CA         -1.5653  -13.9947  -41.1949 C.3       0 UNK        -0.1800 
      2 C          -1.9450  -14.4862  -42.5839 C.2       0 UNK         0.5000 
      3 O          -3.1212  -14.7383  -42.8461 O.2       0 UNK        -0.5000 
      4 N          -0.9525  -14.6257  -43.4669 N.am      1 UNK        -0.5000 
      5 CA         -1.1095  -15.0150  -44.8673 C.3       1 UNK         0.1400 
      6 C6          0.1123  -15.8560  -45.3193 C.3       23 UNK        -0.0398 
      7 S7         -0.2942  -17.0356  -46.6467 S.3       23 UNK        -0.2404 
      8 C8          0.9381  -16.6385  -47.9202 C.3       23 UNK        -0.0205 
      9 C9          0.9576  -17.7014  -49.0064 C.ar      23 UNK        -0.0193 
     10 C10        -0.0343  -17.7233  -49.9901 C.ar      23 UNK        -0.1150 
     11 C11        -0.0115  -18.6890  -51.0009 C.ar      23 UNK        -0.0193 
     12 C12         1.0115  -19.6420  -51.0218 C.ar      23 UNK        -0.1150 
     13 C13         2.0100  -19.6294  -50.0429 C.ar      23 UNK        -0.0193 
     14 C14         1.9764  -18.6565  -49.0384 C.ar      23 UNK        -0.1150 
     15 C15         3.1462  -20.6429  -50.0871 C.3       23 UNK        -0.0205 
     16 S16         2.6414  -22.3052  -49.5375 S.3       23 UNK        -0.2404 
     17 C17         2.1885  -22.0106  -47.7920 C.3       23 UNK        -0.0398 
     18 CA          0.9276  -22.7845  -47.3415 C.3       11 UNK         0.1400 
     19 N           0.7162  -22.6790  -45.8971 N.am      11 UNK        -0.5000 
     20 C          -0.0546  -23.5106  -45.1807 C.2       10 UNK         0.5000 
     21 O          -0.6338  -24.4831  -45.6628 O.2       10 UNK        -0.5000 
     22 CA         -0.2467  -23.1840  -43.6858 C.3       10 UNK         0.1400 
     23 CB          0.8391  -23.8674  -42.8427 C.3       10 UNK        -0.1800 
     24 N          -0.2381  -21.7476  -43.4094 N.am      10 UNK        -0.5000 
     25 C          -1.1434  -20.8778  -43.8819 C.2       9 UNK         0.5000 
     26 O          -2.1384  -21.2175  -44.5219 O.2       9 UNK        -0.5000 
     27 CA         -0.8645  -19.3774  -43.6638 C.3       9 UNK         0.1400 
     28 CB         -1.6858  -18.8354  -42.4863 C.3       9 UNK        -0.1800 
     29 N           0.5519  -19.0562  -43.4589 N.am      9 UNK        -0.5000 
     30 C           1.5331  -19.3036  -44.3431 C.2       8 UNK         0.5000 
     31 O           1.3408  -19.8416  -45.4326 O.2       8 UNK        -0.5000 
     32 CA          2.9749  -18.9395  -43.9380 C.3       8 UNK         0.1400 
     33 CB          3.3955  -17.6092  -44.5818 C.3       8 UNK        -0.1800 
     34 N           3.1859  -18.8567  -42.4921 N.am      8 UNK        -0.5000 
     35 C           3.0176  -19.8589  -41.6174 C.2       7 UNK         0.5000 
     36 O           2.6924  -21.0019  -41.9409 O.2       7 UNK        -0.5000 
     37 CA          3.1999  -19.5110  -40.1267 C.3       7 UNK         0.1400 
     38 CB          4.6143  -19.8862  -39.6595 C.3       7 UNK        -0.1800 
     39 N           2.9462  -18.1014  -39.7986 N.am      7 UNK        -0.5000 
     40 C           1.7703  -17.4723  -39.9517 C.2       6 UNK         0.5000 
     41 O           0.7808  -17.9860  -40.4723 O.2       6 UNK        -0.5000 
     42 CA          1.7178  -16.0093  -39.4990 C.3       6 UNK         0.1400 
     43 CB          1.9037  -15.8728  -37.9761 C.3       6 UNK        -0.1800 
     44 N           2.7276  -15.2436  -40.2254 N.am      6 UNK        -0.5000 
     45 C           2.6911  -13.9226  -40.4295 C.2       5 UNK         0.5000 
     46 O           1.8443  -13.1793  -39.9289 O.2       5 UNK        -0.5000 
     47 CA          3.7754  -13.3147  -41.3486 C.3       5 UNK         0.1400 
     48 CB          4.6318  -14.3594  -42.1029 C.3       5 UNK        -0.1800 
     49 N           3.2013  -12.3447  -42.2878 N.am      5 UNK        -0.5000 
     50 C           2.2602  -12.5834  -43.2129 C.2       4 UNK         0.5000 
     51 O           1.7771  -13.6984  -43.4266 O.2       4 UNK        -0.5000 
     52 CA          1.7316  -11.3793  -44.0199 C.3       4 UNK         0.1400 
     53 CB          2.4763  -10.0473  -43.7702 C.3       4 UNK        -0.1800 
     54 N           1.6499  -11.6933  -45.4487 N.am      4 UNK        -0.5000 
     55 C           2.6650  -11.9277  -46.2955 C.2       3 UNK         0.5000 
     56 O           3.8510  -11.8187  -45.9814 O.2       3 UNK        -0.5000 
     57 CA          2.3036  -12.3759  -47.7306 C.3       3 UNK         0.1400 
     58 CB          3.2579  -13.4744  -48.2336 C.3       3 UNK        -0.1800 
     59 N           0.9360  -12.8878  -47.8176 N.am      3 UNK        -0.5000 
     60 C          -0.1446  -12.2139  -48.2331 C.2       2 UNK         0.5000 
     61 O          -0.1116  -11.0644  -48.6715 O.2       2 UNK        -0.5000 
     62 CA         -1.4990  -12.9471  -48.0983 C.3       2 UNK         0.1400 
     63 CB         -1.8945  -13.5915  -49.4362 C.3       2 UNK        -0.1800 
     64 N          -1.4984  -13.9839  -47.0577 N.am      2 UNK        -0.5000 
     65 C          -1.2956  -13.7630  -45.7517 C.2       1 UNK         0.5000 
     66 O          -1.1849  -12.6311  -45.2727 O.2       1 UNK        -0.5000 
     67 C          -0.3446  -22.3717  -48.1102 C.2       11 UNK         0.5000 
     68 O          -0.7312  -23.0708  -49.0457 O.2       11 UNK        -0.5000 
     69 N          -1.0191  -21.2992  -47.6660 N.am      12 UNK        -0.5000 
     70 CA         -2.3172  -20.8870  -48.2063 C.3       12 UNK         0.1400 
     71 CB         -2.7283  -19.5178  -47.6528 C.3       12 UNK        -0.1800 
     72 C          -3.4189  -21.9325  -47.9601 C.2       12 UNK         0.5000 
     73 O          -4.2066  -22.1983  -48.8677 O.2       12 UNK        -0.5000 
     74 N          -3.4309  -22.5381  -46.7643 N.am      13 UNK        -0.5000 
     75 CA         -4.3237  -23.6401  -46.4022 C.3       13 UNK         0.1400 
     76 CB         -4.1720  -23.9665  -44.9095 C.3       13 UNK        -0.1800 
     77 C          -4.0964  -24.8921  -47.2702 C.2       13 UNK         0.5000 
     78 O          -5.0651  -25.4516  -47.7857 O.2       13 UNK        -0.5000 
     79 N          -2.8243  -25.2713  -47.4689 N.am      14 UNK        -0.5000 
     80 CA         -2.4040  -26.3574  -48.3615 C.3       14 UNK         0.1400 
     81 CB         -0.8976  -26.6066  -48.1969 C.3       14 UNK        -0.1800 
     82 C          -2.7536  -26.0954  -49.8400 C.2       14 UNK         0.5000 
     83 O          -3.0774  -27.0360  -50.5649 O.2       14 UNK        -0.5000 
     84 N          -2.7432  -24.8178  -50.2413 N.am      15 UNK        -0.5000 
     85 CA         -3.1863  -24.3162  -51.5420 C.3       15 UNK         0.1400 
     86 CB         -2.4704  -22.9851  -51.8332 C.3       15 UNK        -0.1800 
     87 C          -4.7206  -24.1720  -51.6645 C.2       15 UNK         0.5000 
     88 O          -5.1808  -23.4721  -52.5680 O.2       15 UNK        -0.5000 
     89 N          -5.4853  -24.8188  -50.7720 N.am      16 UNK        -0.5000 
     90 CA         -6.9492  -24.8743  -50.7266 C.3       16 UNK         0.1400 
     91 CB         -7.5087  -25.6023  -51.9674 C.3       16 UNK        -0.1800 
     92 C          -7.5803  -23.4886  -50.4926 C.2       16 UNK         0.5000 
     93 O          -8.4903  -23.0881  -51.2190 O.2       16 UNK        -0.5000 
     94 N          -7.0548  -22.7815  -49.4825 N.am      17 UNK        -0.5000 
     95 CA         -7.3801  -21.4039  -49.0992 C.3       17 UNK         0.1400 
     96 CB         -8.8533  -21.2677  -48.6591 C.3       17 UNK        -0.1800 
     97 C          -6.9630  -20.4021  -50.1940 C.2       17 UNK         0.5000 
     98 O          -7.7565  -19.5520  -50.6013 O.2       17 UNK        -0.5000 
     99 N          -5.7073  -20.5455  -50.6448 N.am      18 UNK        -0.5000 
    100 CA        -5.0162  -19.7325  -51.6521 C.3       18 UNK         0.1400 
    101 CB        -4.8444  -18.2833  -51.1443 C.3       18 UNK        -0.1800 
    102 C         -5.6430  -19.8009  -53.0634 C.2       18 UNK         0.5000 
    103 O         -5.4550  -18.8787  -53.8600 O.2       18 UNK        -0.5000 
    104 N         -6.3657  -20.8885  -53.3609 N.am      19 UNK        -0.5000 
    105 CA        -7.0406  -21.1034  -54.6390 C.3       19 UNK         0.1400 
    106 CB        -8.2529  -22.0199  -54.4181 C.3       19 UNK        -0.1800 
    107 C         -6.1066  -21.7006  -55.7049 C.2       19 UNK         0.5000 
    108 O         -6.2320  -21.3492  -56.8784 O.2       19 UNK        -0.5000 
    109 N         -5.2119  -22.6070  -55.2880 N.am      20 UNK        -0.5000 
    110 CA        -4.3036  -23.3380  -56.1683 C.3       20 UNK         0.1400 
    111 CB        -3.9654  -24.7013  -55.5376 C.3       20 UNK        -0.1800 
    112 C         -3.0514  -22.5044  -56.4898 C.2       20 UNK         0.5000 
    113 O         -2.9911  -21.8798  -57.5493 O.2       20 UNK        -0.5000 
    114 N         -2.0771  -22.5026  -55.5678 N.am      21 UNK        -0.5000 
    115 CA        -0.7461  -21.9007  -55.7244 C.3       21 UNK         0.1400 
    116 CB         0.0939  -22.2157  -54.4762 C.3       21 UNK        -0.1800 
    117 C         -0.7453  -20.3833  -55.9945 C.2       21 UNK         0.5000 
    118 O          0.1791  -19.8862  -56.6392 O.2       21 UNK        -0.5000 
    119 N         -1.7818  -19.6916  -55.5109 N.am      22 UNK        -0.5000 
    120 CA        -2.0279  -18.2588  -55.7342 C.3       22 UNK         0.1400 
    121 C         -3.2092  -17.9963  -56.7164 C.2       22 UNK         0.5000 
    122 N         -3.7322  -18.9933  -57.4215 N.am      22 UNK        -0.7600 
    123 O         -3.6467  -16.8589  -56.8689 O.2       22 UNK        -0.5000 
    124 C124       -2.1999  -17.5017  -54.3920 C.3       23 UNK        -0.0398 
    125 S125       -0.6749  -17.4956  -53.3888 S.3       23 UNK        -0.2404 
    126 C126       -1.0858  -18.6836  -52.0746 C.3       23 UNK        -0.0205 
    127 H127       -1.7476  -14.7757  -40.4568 H         1 UNK         0.0600 
    128 H128       -2.1614  -13.1223  -40.9275 H         1 UNK         0.0600 
    129 H129       -0.5135  -13.7140  -41.1431 H         1 UNK         0.0600 
    130 H130       -0.0101  -14.3354  -43.2184 H         1 UNK         0.3000 
    131 H131       -2.0107  -15.6250  -44.9605 H         1 UNK         0.0600 
    132 H132        0.9617  -15.2285  -45.5953 H         1 UNK         0.0800 
    133 H133        0.4638  -16.4593  -44.4829 H         1 UNK         0.0800 
    134 H134        0.7124  -15.6709  -48.3671 H         1 UNK         0.0800 
    135 H135        1.9236  -16.5518  -47.4609 H         1 UNK         0.0800 
    136 H136       -0.8219  -16.9832  -49.9730 H         1 UNK         0.1150 
    137 H137        1.0383  -20.3876  -51.8039 H         1 UNK         0.1150 
    138 H138        2.7466  -18.6406  -48.2800 H         1 UNK         0.1150 
    139 H139        3.5230  -20.7117  -51.1086 H         1 UNK         0.0800 
    140 H140        3.9863  -20.3062  -49.4776 H         1 UNK         0.0800 
    141 H141        2.0572  -20.9458  -47.6141 H         1 UNK         0.0800 
    142 H142        3.0404  -22.3098  -47.1802 H         1 UNK         0.0800 
    143 H143        1.1050  -23.8392  -47.5636 H         1 UNK         0.0600 
    144 H144        1.0926  -21.8489  -45.4527 H         1 UNK         0.3000 
    145 H145       -1.2170  -23.5791  -43.3794 H         1 UNK         0.0600 
    146 H146        0.6785  -23.6960  -41.7781 H         1 UNK         0.0600 
    147 H147        0.8367  -24.9463  -43.0028 H         1 UNK         0.0600 
    148 H148        1.8347  -23.4992  -43.0943 H         1 UNK         0.0600 
    149 H149        0.5615  -21.3879  -42.9037 H         1 UNK         0.3000 
    150 H150       -1.1924  -18.8604  -44.5660 H         1 UNK         0.0600 
    151 H151       -2.7513  -19.0124  -42.6385 H         1 UNK         0.0600 
    152 H152       -1.5485  -17.7598  -42.3718 H         1 UNK         0.0600 
    153 H153       -1.4034  -19.3126  -41.5472 H         1 UNK         0.0600 
    154 H154        0.7911  -18.6470  -42.5634 H         1 UNK         0.3000 
    155 H155        3.6248  -19.7275  -44.3239 H         1 UNK         0.0600 
    156 H156        2.8255  -16.7687  -44.1852 H         1 UNK         0.0600 
    157 H157        4.4526  -17.4055  -44.4103 H         1 UNK         0.0600 
    158 H158        3.2427  -17.6317  -45.6615 H         1 UNK         0.0600 
    159 H159        3.4583  -17.9572  -42.1290 H         1 UNK         0.3000 
    160 H160        2.4835  -20.1147  -39.5657 H         1 UNK         0.0600 
    161 H161        5.3762  -19.2910  -40.1643 H         1 UNK         0.0600 
    162 H162        4.8285  -20.9361  -39.8648 H         1 UNK         0.0600 
    163 H163        4.7279  -19.7382  -38.5854 H         1 UNK         0.0600 
    164 H164        3.7023  -17.6104  -39.3440 H         1 UNK         0.3000 
    165 H165        0.7293  -15.6266  -39.7622 H         1 UNK         0.0600 
    166 H166        1.7401  -14.8459  -37.6492 H         1 UNK         0.0600 
    167 H167        1.1910  -16.4992  -37.4381 H         1 UNK         0.0600 
    168 H168        2.9054  -16.1656  -37.6601 H         1 UNK         0.0600 
    169 H169        3.4438  -15.7788  -40.6930 H         1 UNK         0.3000 
    170 H170        4.4428  -12.7511  -40.6954 H         1 UNK         0.0600 
    171 H171        4.0269  -15.0083  -42.7369 H         1 UNK         0.0600 
    172 H172        5.3643  -13.8687  -42.7440 H         1 UNK         0.0600 
    173 H173        5.1910  -14.9904  -41.4112 H         1 UNK         0.0600 
    174 H174        3.5103  -11.3907  -42.1679 H         1 UNK         0.3000 
    175 H175        0.7016  -11.2368  -43.6901 H         1 UNK         0.0600 
    176 H176        2.0593   -9.2486  -44.3837 H         1 UNK         0.0600 
    177 H177        3.5403  -10.1165  -43.9983 H         1 UNK         0.0600 
    178 H178        2.3793   -9.7313  -42.7309 H         1 UNK         0.0600 
    179 H179        0.7069  -11.8566  -45.7807 H         1 UNK         0.3000 
    180 H180        2.4157  -11.5047  -48.3789 H         1 UNK         0.0600 
    181 H181        3.2519  -14.3447  -47.5764 H         1 UNK         0.0600 
    182 H182        4.2846  -13.1100  -48.2859 H         1 UNK         0.0600 
    183 H183        2.9844  -13.8076  -49.2350 H         1 UNK         0.0600 
    184 H184        0.7924  -13.8178  -47.4591 H         1 UNK         0.3000 
    185 H185       -2.2534  -12.2032  -47.8342 H         1 UNK         0.0600 
    186 H186       -2.8787  -14.0564  -49.3756 H         1 UNK         0.0600 
    187 H187       -1.9377  -12.8457  -50.2310 H         1 UNK         0.0600 
    188 H188       -1.1798  -14.3562  -49.7431 H         1 UNK         0.0600 
    189 H189       -1.5908  -14.9390  -47.3762 H         1 UNK         0.3000 
    190 H190       -0.6472  -20.7680  -46.8911 H         1 UNK         0.3000 
    191 H191       -2.2070  -20.7806  -49.2872 H         1 UNK         0.0600 
    192 H192       -2.0847  -18.7367  -48.0527 H         1 UNK         0.0600 
    193 H193       -3.7495  -19.2657  -47.9418 H         1 UNK         0.0600 
    194 H194       -2.6764  -19.4823  -46.5648 H         1 UNK         0.0600 
    195 H195       -2.7949  -22.2079  -46.0439 H         1 UNK         0.3000 
    196 H196       -5.3483  -23.3016  -46.5695 H         1 UNK         0.0600 
    197 H197       -4.8716  -24.7473  -44.6089 H         1 UNK         0.0600 
    198 H198       -4.3750  -23.0915  -44.2918 H         1 UNK         0.0600 
    199 H199       -3.1684  -24.3177  -44.6722 H         1 UNK         0.0600 
    200 H200       -2.0835  -24.7856  -46.9720 H         1 UNK         0.3000 
    201 H201       -2.9335  -27.2614  -48.0539 H         1 UNK         0.0600 
    202 H202       -0.6515  -26.8698  -47.1681 H         1 UNK         0.0600 
    203 H203       -0.3126  -25.7273  -48.4670 H         1 UNK         0.0600 
    204 H204       -0.5658  -27.4295  -48.8312 H         1 UNK         0.0600 
    205 H205       -2.3927  -24.1190  -49.5945 H         1 UNK         0.3000 
    206 H206       -2.8780  -25.0334  -52.3042 H         1 UNK         0.0600 
    207 H207       -1.3877  -23.1097  -51.8081 H         1 UNK         0.0600 
    208 H208       -2.7315  -22.5935  -52.8154 H         1 UNK         0.0600 
    209 H209       -2.7319  -22.2226  -51.1019 H         1 UNK         0.0600 
    210 H210       -5.0161  -25.3158  -50.0259 H         1 UNK         0.3000 
    211 H211       -7.2051  -25.4755  -49.8529 H         1 UNK         0.0600 
    212 H212       -7.3131  -25.0523  -52.8878 H         1 UNK         0.0600 
    213 H213       -8.5885  -25.7333  -51.8890 H         1 UNK         0.0600 
    214 H214       -7.0688  -26.5940  -52.0719 H         1 UNK         0.0600 
    215 H215       -6.2501  -23.1757  -49.0116 H         1 UNK         0.3000 
    216 H216       -6.7626  -21.1769  -48.2288 H         1 UNK         0.0600 
    217 H217       -9.0437  -20.2758  -48.2478 H         1 UNK         0.0600 
    218 H218       -9.1018  -21.9933  -47.8847 H         1 UNK         0.0600 
    219 H219       -9.5453  -21.4115  -49.4890 H         1 UNK         0.0600 
    220 H220       -5.1495  -21.2772  -50.2108 H         1 UNK         0.3000 
    221 H221       -4.0198  -20.1637  -51.7539 H         1 UNK         0.0600 
    222 H222       -5.8039  -17.7820  -51.0165 H         1 UNK         0.0600 
    223 H223       -4.3253  -18.2610  -50.1863 H         1 UNK         0.0600 
    224 H224       -4.2633  -17.6781  -51.8390 H         1 UNK         0.0600 
    225 H225       -6.4224  -21.6399  -52.6825 H         1 UNK         0.3000 
    226 H226       -7.4097  -20.1464  -55.0143 H         1 UNK         0.0600 
    227 H227       -8.9494  -21.5851  -53.7007 H         1 UNK         0.0600 
    228 H228       -8.7992  -22.1789  -55.3487 H         1 UNK         0.0600 
    229 H229       -7.9534  -22.9980  -54.0405 H         1 UNK         0.0600 
    230 H230       -5.1923  -22.8515  -54.3000 H         1 UNK         0.3000 
    231 H231       -4.8110  -23.5391  -57.1145 H         1 UNK         0.0600 
    232 H232       -3.5033  -24.6009  -54.5573 H         1 UNK         0.0600 
    233 H233       -3.2791  -25.2654  -56.1704 H         1 UNK         0.0600 
    234 H234       -4.8641  -25.3063  -55.4152 H         1 UNK         0.0600 
    235 H235       -2.2194  -23.0459  -54.7308 H         1 UNK         0.3000 
    236 H236       -0.2732  -22.3812  -56.5833 H         1 UNK         0.0600 
    237 H237        0.1618  -23.2897  -54.3019 H         1 UNK         0.0600 
    238 H238        1.1124  -21.8411  -54.5868 H         1 UNK         0.0600 
    239 H239       -0.3258  -21.7541  -53.5825 H         1 UNK         0.0600 
    240 H240       -2.5100  -20.1954  -55.0283 H         1 UNK         0.3000 
    241 H241       -1.1647  -17.8179  -56.2357 H         1 UNK         0.0600 
    242 H242       -3.3691  -19.9386  -57.3631 H         1 UNK         0.3800 
    243 H243       -4.4976  -18.8011  -58.0475 H         1 UNK         0.3800 
    244 H244       -3.0228  -17.9251  -53.8188 H         1 UNK         0.0800 
    245 H245       -2.4622  -16.4572  -54.5684 H         1 UNK         0.0800 
    246 H246       -2.0394  -18.4160  -51.6220 H         1 UNK         0.0800 
    247 H247       -1.2089  -19.6791  -52.5028 H         1 UNK         0.0800 
@<TRIPOS>BOND
     1    1    2 1    
     2    1  127 1    
     3    1  128 1    
     4    1  129 1    
     5    2    3 2    
     6    2    4 am   BACKBONE|DICT|INTERRES
     7    4    5 1    
     8    4  130 1    
     9    5    6 1    
    10    5   65 1    
    11    5  131 1    
    12    6    7 1    
    13    6  132 1    
    14    6  133 1    
    15    7    8 1    
    16    8    9 1    
    17    8  134 1    
    18    8  135 1    
    19    9   10 ar   
    20    9   14 ar   
    21   10   11 ar   
    22   10  136 1    
    23   11   12 ar   
    24   11  126 1    
    25   12   13 ar   
    26   12  137 1    
    27   13   14 ar   
    28   13   15 1    
    29   14  138 1    
    30   15   16 1    
    31   15  139 1    
    32   15  140 1    
    33   16   17 1    
    34   17   18 1    
    35   17  141 1    
    36   17  142 1    
    37   18   19 1    
    38   18   67 1    
    39   18  143 1    
    40   19   20 am   BACKBONE|DICT|INTERRES
    41   19  144 1    
    42   20   21 2    
    43   20   22 1    
    44   22   23 1    
    45   22   24 1    
    46   22  145 1    
    47   23  146 1    
    48   23  147 1    
    49   23  148 1    
    50   24   25 am   BACKBONE|DICT|INTERRES
    51   24  149 1    
    52   25   26 2    
    53   25   27 1    
    54   27   28 1    
    55   27   29 1    
    56   27  150 1    
    57   28  151 1    
    58   28  152 1    
    59   28  153 1    
    60   29   30 am   BACKBONE|DICT|INTERRES
    61   29  154 1    
    62   30   31 2    
    63   30   32 1    
    64   32   33 1    
    65   32   34 1    
    66   32  155 1    
    67   33  156 1    
    68   33  157 1    
    69   33  158 1    
    70   34   35 am   BACKBONE|DICT|INTERRES
    71   34  159 1    
    72   35   36 2    
    73   35   37 1    
    74   37   38 1    
    75   37   39 1    
    76   37  160 1    
    77   38  161 1    
    78   38  162 1    
    79   38  163 1    
    80   39   40 am   BACKBONE|DICT|INTERRES
    81   39  164 1    
    82   40   41 2    
    83   40   42 1    
    84   42   43 1    
    85   42   44 1    
    86   42  165 1    
    87   43  166 1    
    88   43  167 1    
    89   43  168 1    
    90   44   45 am   BACKBONE|DICT|INTERRES
    91   44  169 1    
    92   45   46 2    
    93   45   47 1    
    94   47   48 1    
    95   47   49 1    
    96   47  170 1    
    97   48  171 1    
    98   48  172 1    
    99   48  173 1    
   100   49   50 am   BACKBONE|DICT|INTERRES
   101   49  174 1    
   102   50   51 2    
   103   50   52 1    
   104   52   53 1    
   105   52   54 1    
   106   52  175 1    
   107   53  176 1    
   108   53  177 1    
   109   53  178 1    
   110   54   55 am   BACKBONE|DICT|INTERRES
   111   54  179 1    
   112   55   56 2    
   113   55   57 1    
   114   57   58 1    
   115   57   59 1    
   116   57  180 1    
   117   58  181 1    
   118   58  182 1    
   119   58  183 1    
   120   59   60 am   BACKBONE|DICT|INTERRES
   121   59  184 1    
   122   60   61 2    
   123   60   62 1    
   124   62   63 1    
   125   62   64 1    
   126   62  185 1    
   127   63  186 1    
   128   63  187 1    
   129   63  188 1    
   130   64   65 am   BACKBONE|DICT|INTERRES
   131   64  189 1    
   132   65   66 2    
   133   67   68 2    
   134   67   69 am   BACKBONE|DICT|INTERRES
   135   69   70 1    
   136   69  190 1    
   137   70   71 1    
   138   70   72 1    
   139   70  191 1    
   140   71  192 1    
   141   71  193 1    
   142   71  194 1    
   143   72   73 2    
   144   72   74 am   BACKBONE|DICT|INTERRES
   145   74   75 1    
   146   74  195 1    
   147   75   76 1    
   148   75   77 1    
   149   75  196 1    
   150   76  197 1    
   151   76  198 1    
   152   76  199 1    
   153   77   78 2    
   154   77   79 am   BACKBONE|DICT|INTERRES
   155   79   80 1    
   156   79  200 1    
   157   80   81 1    
   158   80   82 1    
   159   80  201 1    
   160   81  202 1    
   161   81  203 1    
   162   81  204 1    
   163   82   83 2    
   164   82   84 am   BACKBONE|DICT|INTERRES
   165   84   85 1    
   166   84  205 1    
   167   85   86 1    
   168   85   87 1    
   169   85  206 1    
   170   86  207 1    
   171   86  208 1    
   172   86  209 1    
   173   87   88 2    
   174   87   89 am   BACKBONE|DICT|INTERRES
   175   89   90 1    
   176   89  210 1    
   177   90   91 1    
   178   90   92 1    
   179   90  211 1    
   180   91  212 1    
   181   91  213 1    
   182   91  214 1    
   183   92   93 2    
   184   92   94 am   BACKBONE|DICT|INTERRES
   185   94   95 1    
   186   94  215 1    
   187   95   96 1    
   188   95   97 1    
   189   95  216 1    
   190   96  217 1    
   191   96  218 1    
   192   96  219 1    
   193   97   98 2    
   194   97   99 am   BACKBONE|DICT|INTERRES
   195   99  100 1    
   196   99  220 1    
   197  100  101 1    
   198  100  102 1    
   199  100  221 1    
   200  101  222 1    
   201  101  223 1    
   202  101  224 1    
   203  102  103 2    
   204  102  104 am   BACKBONE|DICT|INTERRES
   205  104  105 1    
   206  104  225 1    
   207  105  106 1    
   208  105  107 1    
   209  105  226 1    
   210  106  227 1    
   211  106  228 1    
   212  106  229 1    
   213  107  108 2    
   214  107  109 am   BACKBONE|DICT|INTERRES
   215  109  110 1    
   216  109  230 1    
   217  110  111 1    
   218  110  112 1    
   219  110  231 1    
   220  111  232 1    
   221  111  233 1    
   222  111  234 1    
   223  112  113 2    
   224  112  114 am   BACKBONE|DICT|INTERRES
   225  114  115 1    
   226  114  235 1    
   227  115  116 1    
   228  115  117 1    
   229  115  236 1    
   230  116  237 1    
   231  116  238 1    
   232  116  239 1    
   233  117  118 2    
   234  117  119 am   BACKBONE|DICT|INTERRES
   235  119  120 1    
   236  119  240 1    
   237  120  121 1    
   238  120  124 1    
   239  120  241 1    
   240  121  122 am   BACKBONE|DICT|INTERRES
   241  121  123 2    
   242  122  242 1    
   243  122  243 1    
   244  124  125 1    
   245  124  244 1    
   246  124  245 1    
   247  125  126 1    
   248  126  246 1    
   249  126  247 1    
@<TRIPOS>SUBSTRUCTURE
     1 UNK         1 GROUP             0       ****    0 ROOT    
