@<TRIPOS>MOLECULE
3R540
247   249    1
SMALL
USER_CHARGES


@<TRIPOS>ATOM
      1 CA          5.0090  -16.5489  -47.5302 C.3       0 UNK        -0.1800 
      2 C           4.4948  -15.1557  -47.8606 C.2       0 UNK         0.5000 
      3 O           5.0648  -14.4817  -48.7174 O.2       0 UNK        -0.5000 
      4 N           3.4304  -14.7210  -47.1716 N.am      1 UNK        -0.5000 
      5 CA          2.7674  -13.4135  -47.3173 C.3       1 UNK         0.1400 
      6 C6          2.0853  -13.2127  -48.7016 C.3       23 UNK        -0.0398 
      7 S7          0.6115  -14.2691  -48.9014 S.3       23 UNK        -0.2404 
      8 C8          1.2324  -15.6145  -49.9680 C.3       23 UNK        -0.0205 
      9 C9          0.2208  -16.7136  -50.3130 C.ar      23 UNK        -0.0193 
     10 C10         0.6388  -17.7484  -51.1565 C.ar      23 UNK        -0.1150 
     11 C11        -0.2294  -18.7857  -51.5122 C.ar      23 UNK        -0.0193 
     12 C12        -1.5272  -18.7953  -50.9971 C.ar      23 UNK        -0.1150 
     13 C13        -1.9707  -17.7732  -50.1568 C.ar      23 UNK        -0.0193 
     14 C14        -1.0939  -16.7357  -49.8224 C.ar      23 UNK        -0.1150 
     15 C15        -3.4103  -17.7666  -49.6522 C.3       23 UNK        -0.0205 
     16 S16        -3.5291  -17.6853  -47.8352 S.3       23 UNK        -0.2404 
     17 C17        -3.6190  -19.4313  -47.3044 C.3       23 UNK        -0.0398 
     18 CA         -2.4872  -20.3611  -47.8075 C.3       11 UNK         0.1400 
     19 N          -1.1502  -19.9325  -47.3877 N.am      11 UNK        -0.5000 
     20 C          -0.0078  -20.4819  -47.8247 C.2       10 UNK         0.5000 
     21 O           0.0399  -21.3791  -48.6660 O.2       10 UNK        -0.5000 
     22 CA          1.3000  -19.9983  -47.1737 C.3       10 UNK         0.1400 
     23 CB          1.7912  -18.6957  -47.8167 C.3       10 UNK        -0.1800 
     24 N           1.1891  -19.8282  -45.7243 N.am      10 UNK        -0.5000 
     25 C           0.9681  -20.8291  -44.8606 C.2       9 UNK         0.5000 
     26 O           0.8496  -22.0054  -45.1985 O.2       9 UNK        -0.5000 
     27 CA          0.8172  -20.4591  -43.3740 C.3       9 UNK         0.1400 
     28 CB          2.1888  -20.2061  -42.7311 C.3       9 UNK        -0.1800 
     29 N          -0.0490  -19.3006  -43.1634 N.am      9 UNK        -0.5000 
     30 C          -1.3484  -19.2540  -43.4916 C.2       8 UNK         0.5000 
     31 O          -1.9751  -20.2060  -43.9595 O.2       8 UNK        -0.5000 
     32 CA         -2.0505  -17.8930  -43.3263 C.3       8 UNK         0.1400 
     33 CB         -2.4455  -17.6523  -41.8618 C.3       8 UNK        -0.1800 
     34 N          -1.2433  -16.7700  -43.8089 N.am      8 UNK        -0.5000 
     35 C          -0.7760  -16.6574  -45.0612 C.2       7 UNK         0.5000 
     36 O          -0.9689  -17.4903  -45.9419 O.2       7 UNK        -0.5000 
     37 CA          0.1205  -15.4499  -45.3623 C.3       7 UNK         0.1400 
     38 CB         -0.7015  -14.1509  -45.4049 C.3       7 UNK        -0.1800 
     39 N           1.2084  -15.3353  -44.3934 N.am      7 UNK        -0.5000 
     40 C           2.1717  -16.2502  -44.2147 C.2       6 UNK         0.5000 
     41 O           2.3173  -17.2341  -44.9361 O.2       6 UNK        -0.5000 
     42 CA          3.1229  -16.0415  -43.0255 C.3       6 UNK         0.1400 
     43 CB          4.3034  -15.1430  -43.4226 C.3       6 UNK        -0.1800 
     44 N           2.4362  -15.4768  -41.8639 N.am      6 UNK        -0.5000 
     45 C           1.5263  -16.1356  -41.1317 C.2       5 UNK         0.5000 
     46 O           1.1929  -17.3021  -41.3410 O.2       5 UNK        -0.5000 
     47 CA          0.8478  -15.3387  -40.0031 C.3       5 UNK         0.1400 
     48 CB          1.7374  -15.3036  -38.7515 C.3       5 UNK        -0.1800 
     49 N           0.5224  -13.9699  -40.4083 N.am      5 UNK        -0.5000 
     50 C          -0.4102  -13.6568  -41.3188 C.2       4 UNK         0.5000 
     51 O          -1.1184  -14.4906  -41.8842 O.2       4 UNK        -0.5000 
     52 CA         -0.5355  -12.1666  -41.6955 C.3       4 UNK         0.1400 
     53 CB         -1.4532  -11.4346  -40.7052 C.3       4 UNK        -0.1800 
     54 N           0.7536  -11.4672  -41.7758 N.am      4 UNK        -0.5000 
     55 C           1.7385  -11.7984  -42.6202 C.2       3 UNK         0.5000 
     56 O           1.6687  -12.7529  -43.4000 O.2       3 UNK        -0.5000 
     57 CA          3.0254  -10.9599  -42.5725 C.3       3 UNK         0.1400 
     58 CB          3.7911  -11.1924  -41.2565 C.3       3 UNK        -0.1800 
     59 N           3.8420  -11.3793  -43.7033 N.am      3 UNK        -0.5000 
     60 C           4.8834  -10.7527  -44.2566 C.2       2 UNK         0.5000 
     61 O           5.3260   -9.6748  -43.8583 O.2       2 UNK        -0.5000 
     62 CA          5.5477  -11.4604  -45.4582 C.3       2 UNK         0.1400 
     63 CB          6.8577  -12.1347  -45.0217 C.3       2 UNK        -0.1800 
     64 N           4.6857  -12.4752  -46.0758 N.am      2 UNK        -0.5000 
     65 C           3.6505  -12.2139  -46.8874 C.2       1 UNK         0.5000 
     66 O           3.3578  -11.0730  -47.2481 O.2       1 UNK        -0.5000 
     67 C          -2.7725  -21.8199  -47.3962 C.2       11 UNK         0.5000 
     68 O          -3.2842  -22.5828  -48.2131 O.2       11 UNK        -0.5000 
     69 N          -2.4111  -22.1950  -46.1604 N.am      12 UNK        -0.5000 
     70 CA         -2.5468  -23.5606  -45.6483 C.3       12 UNK         0.1400 
     71 CB         -2.2950  -23.5651  -44.1330 C.3       12 UNK        -0.1800 
     72 C          -1.6205  -24.5666  -46.3590 C.2       12 UNK         0.5000 
     73 O          -2.0275  -25.7040  -46.5981 O.2       12 UNK        -0.5000 
     74 N          -0.3977  -24.1313  -46.6912 N.am      13 UNK        -0.5000 
     75 CA          0.5992  -24.9198  -47.4151 C.3       13 UNK         0.1400 
     76 CB          1.9699  -24.2350  -47.3049 C.3       13 UNK        -0.1800 
     77 C           0.2365  -25.1593  -48.8924 C.2       13 UNK         0.5000 
     78 O           0.6596  -26.1724  -49.4509 O.2       13 UNK        -0.5000 
     79 N          -0.5235  -24.2349  -49.4994 N.am      14 UNK        -0.5000 
     80 CA         -0.9736  -24.3045  -50.8907 C.3       14 UNK         0.1400 
     81 CB         -1.6675  -22.9893  -51.2800 C.3       14 UNK        -0.1800 
     82 C          -1.8889  -25.5129  -51.1571 C.2       14 UNK         0.5000 
     83 O          -1.6374  -26.2625  -52.1013 O.2       14 UNK        -0.5000 
     84 N          -2.8979  -25.6928  -50.2963 N.am      15 UNK        -0.5000 
     85 CA         -3.8707  -26.7840  -50.2865 C.3       15 UNK         0.1400 
     86 CB         -4.6596  -26.8501  -51.6131 C.3       15 UNK        -0.1800 
     87 C          -4.8453  -26.5524  -49.1228 C.2       15 UNK         0.5000 
     88 O          -4.8577  -25.4683  -48.5323 O.2       15 UNK        -0.5000 
     89 N          -5.6974  -27.5496  -48.8515 N.am      16 UNK        -0.5000 
     90 CA         -6.8693  -27.4129  -47.9859 C.3       16 UNK         0.1400 
     91 CB         -7.5337  -28.7865  -47.8037 C.3       16 UNK        -0.1800 
     92 C          -7.8511  -26.3913  -48.5923 C.2       16 UNK         0.5000 
     93 O          -8.3137  -26.5921  -49.7173 O.2       16 UNK        -0.5000 
     94 N          -8.0853  -25.2923  -47.8620 N.am      17 UNK        -0.5000 
     95 CA         -8.8155  -24.0907  -48.2885 C.3       17 UNK         0.1400 
     96 CB        -10.2990  -24.4067  -48.5757 C.3       17 UNK        -0.1800 
     97 C          -8.1252  -23.3293  -49.4455 C.2       17 UNK         0.5000 
     98 O          -8.7980  -22.6404  -50.2133 O.2       17 UNK        -0.5000 
     99 N          -6.7942  -23.4655  -49.5502 N.am      18 UNK        -0.5000 
    100 CA        -5.8523  -22.8074  -50.4665 C.3       18 UNK         0.1400 
    101 CB        -5.8619  -21.2828  -50.2607 C.3       18 UNK        -0.1800 
    102 C         -5.9796  -23.1680  -51.9601 C.2       18 UNK         0.5000 
    103 O         -4.9761  -23.0874  -52.6707 O.2       18 UNK        -0.5000 
    104 N         -7.1751  -23.5734  -52.4095 N.am      19 UNK        -0.5000 
    105 CA        -7.5353  -23.9796  -53.7710 C.3       19 UNK         0.1400 
    106 CB        -6.8924  -25.3404  -54.1193 C.3       19 UNK        -0.1800 
    107 C         -7.2343  -22.8665  -54.7955 C.2       19 UNK         0.5000 
    108 O         -7.9801  -21.8880  -54.8555 O.2       19 UNK        -0.5000 
    109 N         -6.1451  -23.0203  -55.5618 N.am      20 UNK        -0.5000 
    110 CA        -5.6347  -22.0279  -56.5103 C.3       20 UNK         0.1400 
    111 CB        -4.5604  -22.6852  -57.3901 C.3       20 UNK        -0.1800 
    112 C         -5.0699  -20.7647  -55.8298 C.2       20 UNK         0.5000 
    113 O         -5.0289  -19.7102  -56.4654 O.2       20 UNK        -0.5000 
    114 N         -4.6430  -20.8947  -54.5629 N.am      21 UNK        -0.5000 
    115 CA        -4.2012  -19.8306  -53.6551 C.3       21 UNK         0.1400 
    116 CB        -5.4201  -19.0132  -53.1812 C.3       21 UNK        -0.1800 
    117 C         -3.0735  -18.9413  -54.2220 C.2       21 UNK         0.5000 
    118 O         -3.0842  -17.7278  -54.0105 O.2       21 UNK        -0.5000 
    119 N         -2.1374  -19.5644  -54.9534 N.am      22 UNK        -0.5000 
    120 CA        -1.0349  -18.9098  -55.6834 C.3       22 UNK         0.1400 
    121 C         -1.4934  -17.9963  -56.8674 C.2       22 UNK         0.5000 
    122 N         -2.7400  -18.0566  -57.3229 N.am      22 UNK        -0.7600 
    123 O         -0.6946  -17.2452  -57.4209 O.2       22 UNK        -0.5000 
    124 C124       -0.0120  -18.2127  -54.7338 C.3       23 UNK        -0.0398 
    125 S125        1.1300  -19.3824  -53.9175 S.3       23 UNK        -0.2404 
    126 C126        0.2184  -19.9180  -52.4303 C.3       23 UNK        -0.0205 
    127 H127        4.8064  -17.2289  -48.3575 H         1 UNK         0.0600 
    128 H128        4.5417  -16.9508  -46.6311 H         1 UNK         0.0600 
    129 H129        6.0861  -16.5226  -47.3650 H         1 UNK         0.0600 
    130 H130        2.9985  -15.3490  -46.5082 H         1 UNK         0.3000 
    131 H131        1.9769  -13.4152  -46.5689 H         1 UNK         0.0600 
    132 H132        1.7294  -12.1882  -48.8193 H         1 UNK         0.0800 
    133 H133        2.7859  -13.3774  -49.5207 H         1 UNK         0.0800 
    134 H134        2.0889  -16.0773  -49.4773 H         1 UNK         0.0800 
    135 H135        1.6017  -15.1762  -50.8962 H         1 UNK         0.0800 
    136 H136        1.6493  -17.7465  -51.5403 H         1 UNK         0.1150 
    137 H137       -2.1973  -19.6011  -51.2551 H         1 UNK         0.1150 
    138 H138       -1.4541  -15.9538  -49.1712 H         1 UNK         0.1150 
    139 H139       -3.9093  -16.8905  -50.0682 H         1 UNK         0.0800 
    140 H140       -3.9658  -18.6314  -50.0165 H         1 UNK         0.0800 
    141 H141       -4.5915  -19.8108  -47.6189 H         1 UNK         0.0800 
    142 H142       -3.6395  -19.4327  -46.2131 H         1 UNK         0.0800 
    143 H143       -2.5012  -20.3494  -48.8972 H         1 UNK         0.0600 
    144 H144       -1.1025  -19.1427  -46.7459 H         1 UNK         0.3000 
    145 H145        2.0584  -20.7622  -47.3554 H         1 UNK         0.0600 
    146 H146        2.7474  -18.3904  -47.3960 H         1 UNK         0.0600 
    147 H147        1.9361  -18.8252  -48.8889 H         1 UNK         0.0600 
    148 H148        1.0833  -17.8793  -47.6718 H         1 UNK         0.0600 
    149 H149        1.2990  -18.8826  -45.3716 H         1 UNK         0.3000 
    150 H150        0.3583  -21.3101  -42.8666 H         1 UNK         0.0600 
    151 H151        2.8416  -21.0715  -42.8516 H         1 UNK         0.0600 
    152 H152        2.0940  -20.0159  -41.6619 H         1 UNK         0.0600 
    153 H153        2.6924  -19.3499  -43.1797 H         1 UNK         0.0600 
    154 H154        0.3793  -18.4811  -42.7445 H         1 UNK         0.3000 
    155 H155       -2.9629  -17.9195  -43.9255 H         1 UNK         0.0600 
    156 H156       -1.5707  -17.5761  -41.2155 H         1 UNK         0.0600 
    157 H157       -3.0641  -18.4676  -41.4847 H         1 UNK         0.0600 
    158 H158       -3.0193  -16.7315  -41.7554 H         1 UNK         0.0600 
    159 H159       -1.0466  -16.0299  -43.1418 H         1 UNK         0.3000 
    160 H160        0.5672  -15.6092  -46.3443 H         1 UNK         0.0600 
    161 H161       -1.2216  -13.9657  -44.4662 H         1 UNK         0.0600 
    162 H162       -1.4562  -14.2008  -46.1907 H         1 UNK         0.0600 
    163 H163       -0.0780  -13.2822  -45.6106 H         1 UNK         0.0600 
    164 H164        1.2077  -14.5061  -43.8053 H         1 UNK         0.3000 
    165 H165        3.5213  -17.0180  -42.7426 H         1 UNK         0.0600 
    166 H166        5.0028  -15.0213  -42.5953 H         1 UNK         0.0600 
    167 H167        4.8591  -15.5749  -44.2558 H         1 UNK         0.0600 
    168 H168        3.9703  -14.1531  -43.7271 H         1 UNK         0.0600 
    169 H169        2.6196  -14.5085  -41.6505 H         1 UNK         0.3000 
    170 H170       -0.0823  -15.8504  -39.7464 H         1 UNK         0.0600 
    171 H171        1.9840  -16.3134  -38.4205 H         1 UNK         0.0600 
    172 H172        2.6763  -14.7800  -38.9361 H         1 UNK         0.0600 
    173 H173        1.2325  -14.8058  -37.9235 H         1 UNK         0.0600 
    174 H174        1.0593  -13.2249  -39.9898 H         1 UNK         0.3000 
    175 H175       -0.9978  -12.1191  -42.6836 H         1 UNK         0.0600 
    176 H176       -1.0282  -11.4132  -39.7009 H         1 UNK         0.0600 
    177 H177       -1.6296  -10.4053  -41.0178 H         1 UNK         0.0600 
    178 H178       -2.4261  -11.9238  -40.6398 H         1 UNK         0.0600 
    179 H179        0.8779  -10.6770  -41.1593 H         1 UNK         0.3000 
    180 H180        2.7650   -9.9055  -42.6813 H         1 UNK         0.0600 
    181 H181        4.0562  -12.2425  -41.1264 H         1 UNK         0.0600 
    182 H182        3.1964  -10.8922  -40.3933 H         1 UNK         0.0600 
    183 H183        4.7129  -10.6114  -41.2267 H         1 UNK         0.0600 
    184 H184        3.4969  -12.2256  -44.1371 H         1 UNK         0.3000 
    185 H185        5.7850  -10.6979  -46.2030 H         1 UNK         0.0600 
    186 H186        7.5449  -11.4085  -44.5855 H         1 UNK         0.0600 
    187 H187        6.6823  -12.9102  -44.2749 H         1 UNK         0.0600 
    188 H188        7.3669  -12.5931  -45.8697 H         1 UNK         0.0600 
    189 H189        4.8847  -13.4381  -45.8506 H         1 UNK         0.3000 
    190 H190       -2.0209  -21.5056  -45.5251 H         1 UNK         0.3000 
    191 H191       -3.5757  -23.8831  -45.8222 H         1 UNK         0.0600 
    192 H192       -1.2888  -23.2215  -43.8910 H         1 UNK         0.0600 
    193 H193       -2.4088  -24.5684  -43.7205 H         1 UNK         0.0600 
    194 H194       -3.0021  -22.9174  -43.6146 H         1 UNK         0.0600 
    195 H195       -0.1082  -23.2066  -46.3851 H         1 UNK         0.3000 
    196 H196        0.6708  -25.8968  -46.9327 H         1 UNK         0.0600 
    197 H197        2.7389  -24.8118  -47.8202 H         1 UNK         0.0600 
    198 H198        2.2801  -24.1380  -46.2645 H         1 UNK         0.0600 
    199 H199        1.9562  -23.2380  -47.7458 H         1 UNK         0.0600 
    200 H200       -0.7703  -23.3999  -48.9816 H         1 UNK         0.3000 
    201 H201       -0.0847  -24.4122  -51.5157 H         1 UNK         0.0600 
    202 H202       -1.0262  -22.1341  -51.0750 H         1 UNK         0.0600 
    203 H203       -2.5969  -22.8409  -50.7328 H         1 UNK         0.0600 
    204 H204       -1.9109  -22.9750  -52.3431 H         1 UNK         0.0600 
    205 H205       -3.0227  -25.0342  -49.5342 H         1 UNK         0.3000 
    206 H206       -3.3414  -27.7233  -50.1178 H         1 UNK         0.0600 
    207 H207       -4.0234  -27.0974  -52.4615 H         1 UNK         0.0600 
    208 H208       -5.4389  -27.6121  -51.5807 H         1 UNK         0.0600 
    209 H209       -5.1459  -25.9002  -51.8258 H         1 UNK         0.0600 
    210 H210       -5.6452  -28.3978  -49.3965 H         1 UNK         0.3000 
    211 H211       -6.5347  -27.0611  -47.0076 H         1 UNK         0.0600 
    212 H212       -7.8664  -29.2045  -48.7547 H         1 UNK         0.0600 
    213 H213       -8.4069  -28.7126  -47.1543 H         1 UNK         0.0600 
    214 H214       -6.8474  -29.4990  -47.3456 H         1 UNK         0.0600 
    215 H215       -7.6373  -25.2212  -46.9586 H         1 UNK         0.3000 
    216 H216       -8.7909  -23.4105  -47.4361 H         1 UNK         0.0600 
    217 H217      -10.8725  -23.4901  -48.7185 H         1 UNK         0.0600 
    218 H218      -10.7555  -24.9464  -47.7460 H         1 UNK         0.0600 
    219 H219      -10.4213  -25.0085  -49.4764 H         1 UNK         0.0600 
    220 H220       -6.3411  -24.1089  -48.9087 H         1 UNK         0.3000 
    221 H221       -4.8724  -23.1734  -50.1637 H         1 UNK         0.0600 
    222 H222       -6.7811  -20.8280  -50.6309 H         1 UNK         0.0600 
    223 H223       -5.7654  -21.0315  -49.2058 H         1 UNK         0.0600 
    224 H224       -5.0265  -20.8169  -50.7818 H         1 UNK         0.0600 
    225 H225       -7.9452  -23.5062  -51.7520 H         1 UNK         0.3000 
    226 H226       -8.6175  -24.1178  -53.7756 H         1 UNK         0.0600 
    227 H227       -7.2162  -26.1110  -53.4195 H         1 UNK         0.0600 
    228 H228       -7.1880  -25.6690  -55.1165 H         1 UNK         0.0600 
    229 H229       -5.8031  -25.3078  -54.0903 H         1 UNK         0.0600 
    230 H230       -5.5797  -23.8452  -55.4232 H         1 UNK         0.3000 
    231 H231       -6.4603  -21.7140  -57.1523 H         1 UNK         0.0600 
    232 H232       -4.9655  -23.5362  -57.9380 H         1 UNK         0.0600 
    233 H233       -3.7150  -23.0376  -56.7979 H         1 UNK         0.0600 
    234 H234       -4.1737  -21.9802  -58.1274 H         1 UNK         0.0600 
    235 H235       -4.7190  -21.8122  -54.1315 H         1 UNK         0.3000 
    236 H236       -3.7813  -20.3378  -52.7869 H         1 UNK         0.0600 
    237 H237       -5.8472  -18.4240  -53.9935 H         1 UNK         0.0600 
    238 H238       -6.2058  -19.6624  -52.7953 H         1 UNK         0.0600 
    239 H239       -5.1453  -18.3233  -52.3826 H         1 UNK         0.0600 
    240 H240       -2.2289  -20.5593  -55.0974 H         1 UNK         0.3000 
    241 H241       -0.5067  -19.7202  -56.1869 H         1 UNK         0.0600 
    242 H242       -3.4347  -18.6627  -56.8973 H         1 UNK         0.3800 
    243 H243       -3.0072  -17.4695  -58.0967 H         1 UNK         0.3800 
    244 H244       -0.5075  -17.5869  -53.9923 H         1 UNK         0.0800 
    245 H245        0.6332  -17.5316  -55.2899 H         1 UNK         0.0800 
    246 H246        0.8532  -20.5941  -51.8561 H         1 UNK         0.0800 
    247 H247       -0.6382  -20.5067  -52.7582 H         1 UNK         0.0800 
@<TRIPOS>BOND
     1    1    2 1    
     2    1  127 1    
     3    1  128 1    
     4    1  129 1    
     5    2    3 2    
     6    2    4 am   BACKBONE|DICT|INTERRES
     7    4    5 1    
     8    4  130 1    
     9    5    6 1    
    10    5   65 1    
    11    5  131 1    
    12    6    7 1    
    13    6  132 1    
    14    6  133 1    
    15    7    8 1    
    16    8    9 1    
    17    8  134 1    
    18    8  135 1    
    19    9   10 ar   
    20    9   14 ar   
    21   10   11 ar   
    22   10  136 1    
    23   11   12 ar   
    24   11  126 1    
    25   12   13 ar   
    26   12  137 1    
    27   13   14 ar   
    28   13   15 1    
    29   14  138 1    
    30   15   16 1    
    31   15  139 1    
    32   15  140 1    
    33   16   17 1    
    34   17   18 1    
    35   17  141 1    
    36   17  142 1    
    37   18   19 1    
    38   18   67 1    
    39   18  143 1    
    40   19   20 am   BACKBONE|DICT|INTERRES
    41   19  144 1    
    42   20   21 2    
    43   20   22 1    
    44   22   23 1    
    45   22   24 1    
    46   22  145 1    
    47   23  146 1    
    48   23  147 1    
    49   23  148 1    
    50   24   25 am   BACKBONE|DICT|INTERRES
    51   24  149 1    
    52   25   26 2    
    53   25   27 1    
    54   27   28 1    
    55   27   29 1    
    56   27  150 1    
    57   28  151 1    
    58   28  152 1    
    59   28  153 1    
    60   29   30 am   BACKBONE|DICT|INTERRES
    61   29  154 1    
    62   30   31 2    
    63   30   32 1    
    64   32   33 1    
    65   32   34 1    
    66   32  155 1    
    67   33  156 1    
    68   33  157 1    
    69   33  158 1    
    70   34   35 am   BACKBONE|DICT|INTERRES
    71   34  159 1    
    72   35   36 2    
    73   35   37 1    
    74   37   38 1    
    75   37   39 1    
    76   37  160 1    
    77   38  161 1    
    78   38  162 1    
    79   38  163 1    
    80   39   40 am   BACKBONE|DICT|INTERRES
    81   39  164 1    
    82   40   41 2    
    83   40   42 1    
    84   42   43 1    
    85   42   44 1    
    86   42  165 1    
    87   43  166 1    
    88   43  167 1    
    89   43  168 1    
    90   44   45 am   BACKBONE|DICT|INTERRES
    91   44  169 1    
    92   45   46 2    
    93   45   47 1    
    94   47   48 1    
    95   47   49 1    
    96   47  170 1    
    97   48  171 1    
    98   48  172 1    
    99   48  173 1    
   100   49   50 am   BACKBONE|DICT|INTERRES
   101   49  174 1    
   102   50   51 2    
   103   50   52 1    
   104   52   53 1    
   105   52   54 1    
   106   52  175 1    
   107   53  176 1    
   108   53  177 1    
   109   53  178 1    
   110   54   55 am   BACKBONE|DICT|INTERRES
   111   54  179 1    
   112   55   56 2    
   113   55   57 1    
   114   57   58 1    
   115   57   59 1    
   116   57  180 1    
   117   58  181 1    
   118   58  182 1    
   119   58  183 1    
   120   59   60 am   BACKBONE|DICT|INTERRES
   121   59  184 1    
   122   60   61 2    
   123   60   62 1    
   124   62   63 1    
   125   62   64 1    
   126   62  185 1    
   127   63  186 1    
   128   63  187 1    
   129   63  188 1    
   130   64   65 am   BACKBONE|DICT|INTERRES
   131   64  189 1    
   132   65   66 2    
   133   67   68 2    
   134   67   69 am   BACKBONE|DICT|INTERRES
   135   69   70 1    
   136   69  190 1    
   137   70   71 1    
   138   70   72 1    
   139   70  191 1    
   140   71  192 1    
   141   71  193 1    
   142   71  194 1    
   143   72   73 2    
   144   72   74 am   BACKBONE|DICT|INTERRES
   145   74   75 1    
   146   74  195 1    
   147   75   76 1    
   148   75   77 1    
   149   75  196 1    
   150   76  197 1    
   151   76  198 1    
   152   76  199 1    
   153   77   78 2    
   154   77   79 am   BACKBONE|DICT|INTERRES
   155   79   80 1    
   156   79  200 1    
   157   80   81 1    
   158   80   82 1    
   159   80  201 1    
   160   81  202 1    
   161   81  203 1    
   162   81  204 1    
   163   82   83 2    
   164   82   84 am   BACKBONE|DICT|INTERRES
   165   84   85 1    
   166   84  205 1    
   167   85   86 1    
   168   85   87 1    
   169   85  206 1    
   170   86  207 1    
   171   86  208 1    
   172   86  209 1    
   173   87   88 2    
   174   87   89 am   BACKBONE|DICT|INTERRES
   175   89   90 1    
   176   89  210 1    
   177   90   91 1    
   178   90   92 1    
   179   90  211 1    
   180   91  212 1    
   181   91  213 1    
   182   91  214 1    
   183   92   93 2    
   184   92   94 am   BACKBONE|DICT|INTERRES
   185   94   95 1    
   186   94  215 1    
   187   95   96 1    
   188   95   97 1    
   189   95  216 1    
   190   96  217 1    
   191   96  218 1    
   192   96  219 1    
   193   97   98 2    
   194   97   99 am   BACKBONE|DICT|INTERRES
   195   99  100 1    
   196   99  220 1    
   197  100  101 1    
   198  100  102 1    
   199  100  221 1    
   200  101  222 1    
   201  101  223 1    
   202  101  224 1    
   203  102  103 2    
   204  102  104 am   BACKBONE|DICT|INTERRES
   205  104  105 1    
   206  104  225 1    
   207  105  106 1    
   208  105  107 1    
   209  105  226 1    
   210  106  227 1    
   211  106  228 1    
   212  106  229 1    
   213  107  108 2    
   214  107  109 am   BACKBONE|DICT|INTERRES
   215  109  110 1    
   216  109  230 1    
   217  110  111 1    
   218  110  112 1    
   219  110  231 1    
   220  111  232 1    
   221  111  233 1    
   222  111  234 1    
   223  112  113 2    
   224  112  114 am   BACKBONE|DICT|INTERRES
   225  114  115 1    
   226  114  235 1    
   227  115  116 1    
   228  115  117 1    
   229  115  236 1    
   230  116  237 1    
   231  116  238 1    
   232  116  239 1    
   233  117  118 2    
   234  117  119 am   BACKBONE|DICT|INTERRES
   235  119  120 1    
   236  119  240 1    
   237  120  121 1    
   238  120  124 1    
   239  120  241 1    
   240  121  122 am   BACKBONE|DICT|INTERRES
   241  121  123 2    
   242  122  242 1    
   243  122  243 1    
   244  124  125 1    
   245  124  244 1    
   246  124  245 1    
   247  125  126 1    
   248  126  246 1    
   249  126  247 1    
@<TRIPOS>SUBSTRUCTURE
     1 UNK         1 GROUP             0       ****    0 ROOT    
