@<TRIPOS>MOLECULE
3R540
247   249    1
SMALL
USER_CHARGES


@<TRIPOS>ATOM
      1 CA         -4.5250  -17.6421  -43.5814 C.3       0 UNK        -0.1800 
      2 C          -4.4580  -16.1377  -43.7938 C.2       0 UNK         0.5000 
      3 O          -5.2318  -15.3990  -43.1852 O.2       0 UNK        -0.5000 
      4 N          -3.5307  -15.6807  -44.6450 N.am      1 UNK        -0.5000 
      5 CA         -3.2859  -14.2603  -44.9322 C.3       1 UNK         0.1400 
      6 C6         -2.6100  -14.0736  -46.3211 C.3       23 UNK        -0.0398 
      7 S7         -3.7479  -13.3533  -47.5490 S.3       23 UNK        -0.2404 
      8 C8         -4.6967  -14.8156  -48.0928 C.3       23 UNK        -0.0205 
      9 C9         -3.8741  -15.8325  -48.8780 C.ar      23 UNK        -0.0193 
     10 C10        -3.0419  -15.4247  -49.9251 C.ar      23 UNK        -0.1150 
     11 C11        -2.2911  -16.3590  -50.6405 C.ar      23 UNK        -0.0193 
     12 C12        -2.3970  -17.7143  -50.3202 C.ar      23 UNK        -0.1150 
     13 C13        -3.2453  -18.1490  -49.2970 C.ar      23 UNK        -0.0193 
     14 C14        -3.9735  -17.1941  -48.5732 C.ar      23 UNK        -0.1150 
     15 C15        -3.3134  -19.6517  -49.0129 C.3       23 UNK        -0.0205 
     16 S16        -4.7094  -20.2245  -47.9890 S.3       23 UNK        -0.2404 
     17 C17        -4.0414  -19.9906  -46.3101 C.3       23 UNK        -0.0398 
     18 CA         -3.1245  -21.1421  -45.8267 C.3       11 UNK         0.1400 
     19 N          -2.3055  -20.7177  -44.6815 N.am      11 UNK        -0.5000 
     20 C          -1.3577  -21.4537  -44.0842 C.2       10 UNK         0.5000 
     21 O          -1.0743  -22.6018  -44.4293 O.2       10 UNK        -0.5000 
     22 CA         -0.6320  -20.7911  -42.9000 C.3       10 UNK         0.1400 
     23 CB          0.4316  -21.7042  -42.2651 C.3       10 UNK        -0.1800 
     24 N           0.0078  -19.5613  -43.3531 N.am      10 UNK        -0.5000 
     25 C          -0.4015  -18.3190  -43.0693 C.2       9 UNK         0.5000 
     26 O          -1.3663  -18.0519  -42.3535 O.2       9 UNK        -0.5000 
     27 CA          0.3647  -17.1783  -43.7575 C.3       9 UNK         0.1400 
     28 CB          1.7154  -16.9290  -43.0742 C.3       9 UNK        -0.1800 
     29 N           0.5695  -17.4325  -45.1797 N.am      9 UNK        -0.5000 
     30 C          -0.4037  -17.5586  -46.0906 C.2       8 UNK         0.5000 
     31 O          -1.5986  -17.4105  -45.8325 O.2       8 UNK        -0.5000 
     32 CA          0.0314  -17.9288  -47.5163 C.3       8 UNK         0.1400 
     33 CB          0.4137  -16.6802  -48.3214 C.3       8 UNK        -0.1800 
     34 N           1.1603  -18.8561  -47.5036 N.am      8 UNK        -0.5000 
     35 C           1.0472  -20.1898  -47.5064 C.2       7 UNK         0.5000 
     36 O          -0.0260  -20.7816  -47.6030 O.2       7 UNK        -0.5000 
     37 CA          2.3487  -21.0075  -47.3834 C.3       7 UNK         0.1400 
     38 CB          2.8348  -21.4518  -48.7707 C.3       7 UNK        -0.1800 
     39 N           3.4353  -20.2971  -46.7019 N.am      7 UNK        -0.5000 
     40 C           3.4429  -20.0108  -45.3933 C.2       6 UNK         0.5000 
     41 O           2.5195  -20.2898  -44.6289 O.2       6 UNK        -0.5000 
     42 CA          4.6657  -19.2410  -44.8529 C.3       6 UNK         0.1400 
     43 CB          5.8409  -20.2020  -44.6178 C.3       6 UNK        -0.1800 
     44 N           5.1252  -18.1041  -45.6648 N.am      6 UNK        -0.5000 
     45 C           4.3542  -17.1371  -46.1805 C.2       5 UNK         0.5000 
     46 O           3.1246  -17.1851  -46.2056 O.2       5 UNK        -0.5000 
     47 CA          5.0692  -15.9165  -46.7922 C.3       5 UNK         0.1400 
     48 CB          5.5019  -16.2222  -48.2342 C.3       5 UNK        -0.1800 
     49 N           4.1990  -14.7355  -46.8023 N.am      5 UNK        -0.5000 
     50 C           3.7295  -14.1207  -45.7076 C.2       4 UNK         0.5000 
     51 O           4.1132  -14.3765  -44.5624 O.2       4 UNK        -0.5000 
     52 CA          2.6434  -13.0541  -45.9331 C.3       4 UNK         0.1400 
     53 CB          1.4320  -13.6159  -46.7047 C.3       4 UNK        -0.1800 
     54 N           2.1951  -12.5402  -44.6432 N.am      4 UNK        -0.5000 
     55 C           1.5938  -11.3657  -44.4370 C.2       3 UNK         0.5000 
     56 O           1.3541  -10.5556  -45.3347 O.2       3 UNK        -0.5000 
     57 CA          1.1566  -11.0770  -42.9892 C.3       3 UNK         0.1400 
     58 CB          0.6784   -9.6276  -42.7889 C.3       3 UNK        -0.1800 
     59 N           0.0766  -11.9807  -42.5999 N.am      3 UNK        -0.5000 
     60 C           0.2261  -13.2058  -42.0872 C.2       2 UNK         0.5000 
     61 O           1.3222  -13.7281  -41.8854 O.2       2 UNK        -0.5000 
     62 CA         -1.0614  -13.9811  -41.7455 C.3       2 UNK         0.1400 
     63 CB         -1.9086  -13.2471  -40.6876 C.3       2 UNK        -0.1800 
     64 N          -1.8705  -14.3483  -42.9136 N.am      2 UNK        -0.5000 
     65 C          -2.4932  -13.5591  -43.8032 C.2       1 UNK         0.5000 
     66 O          -2.4740  -12.3282  -43.7600 O.2       1 UNK        -0.5000 
     67 C          -3.9168  -22.4446  -45.5621 C.2       11 UNK         0.5000 
     68 O          -4.0792  -23.2563  -46.4743 O.2       11 UNK        -0.5000 
     69 N          -4.3444  -22.6483  -44.3070 N.am      12 UNK        -0.5000 
     70 CA         -5.0086  -23.8666  -43.8425 C.3       12 UNK         0.1400 
     71 CB         -5.5799  -23.6266  -42.4372 C.3       12 UNK        -0.1800 
     72 C          -4.0838  -25.0997  -43.8484 C.2       12 UNK         0.5000 
     73 O          -4.5384  -26.1907  -44.1917 O.2       12 UNK        -0.5000 
     74 N          -2.7998  -24.9072  -43.5100 N.am      13 UNK        -0.5000 
     75 CA         -1.7711  -25.9523  -43.5473 C.3       13 UNK         0.1400 
     76 CB         -0.5585  -25.5219  -42.7085 C.3       13 UNK        -0.1800 
     77 C          -1.3486  -26.2887  -44.9890 C.2       13 UNK         0.5000 
     78 O          -1.0465  -27.4454  -45.2823 O.2       13 UNK        -0.5000 
     79 N          -1.3942  -25.2822  -45.8728 N.am      14 UNK        -0.5000 
     80 CA         -1.2295  -25.4194  -47.3217 C.3       14 UNK         0.1400 
     81 CB         -0.8487  -24.0499  -47.9084 C.3       14 UNK        -0.1800 
     82 C          -2.4799  -25.9898  -48.0290 C.2       14 UNK         0.5000 
     83 O          -2.4558  -26.1445  -49.2503 O.2       14 UNK        -0.5000 
     84 N          -3.5576  -26.2588  -47.2729 N.am      15 UNK        -0.5000 
     85 CA         -4.8526  -26.7974  -47.7078 C.3       15 UNK         0.1400 
     86 CB         -4.6968  -28.2667  -48.1504 C.3       15 UNK        -0.1800 
     87 C          -5.5535  -25.9256  -48.7720 C.2       15 UNK         0.5000 
     88 O          -6.2764  -26.4496  -49.6209 O.2       15 UNK        -0.5000 
     89 N          -5.2927  -24.6109  -48.7214 N.am      16 UNK        -0.5000 
     90 CA         -5.7115  -23.5705  -49.6638 C.3       16 UNK         0.1400 
     91 CB         -7.2424  -23.3890  -49.6423 C.3       16 UNK        -0.1800 
     92 C          -5.1559  -23.7264  -51.0971 C.2       16 UNK         0.5000 
     93 O          -5.5926  -22.9982  -51.9886 O.2       16 UNK        -0.5000 
     94 N          -4.1857  -24.6291  -51.3116 N.am      17 UNK        -0.5000 
     95 CA         -3.5821  -24.8863  -52.6224 C.3       17 UNK         0.1400 
     96 CB         -2.7852  -26.1979  -52.5724 C.3       17 UNK        -0.1800 
     97 C          -2.6890  -23.7280  -53.0998 C.2       17 UNK         0.5000 
     98 O          -2.6148  -23.4681  -54.3009 O.2       17 UNK        -0.5000 
     99 N          -2.0545  -23.0310  -52.1463 N.am      18 UNK        -0.5000 
    100 CA        -1.1896  -21.8760  -52.3896 C.3       18 UNK         0.1400 
    101 CB        -0.4556  -21.5151  -51.0893 C.3       18 UNK        -0.1800 
    102 C         -1.9393  -20.6515  -52.9466 C.2       18 UNK         0.5000 
    103 O         -1.3304  -19.8509  -53.6557 O.2       18 UNK        -0.5000 
    104 N         -3.2430  -20.5398  -52.6466 N.am      19 UNK        -0.5000 
    105 CA        -4.1136  -19.4348  -53.0626 C.3       19 UNK         0.1400 
    106 CB        -5.4451  -19.5173  -52.2999 C.3       19 UNK        -0.1800 
    107 C         -4.3672  -19.3841  -54.5808 C.2       19 UNK         0.5000 
    108 O         -4.7284  -18.3286  -55.1016 O.2       19 UNK        -0.5000 
    109 N         -4.1643  -20.5164  -55.2672 N.am      20 UNK        -0.5000 
    110 CA        -4.2524  -20.6321  -56.7213 C.3       20 UNK         0.1400 
    111 CB        -4.4495  -22.1124  -57.0843 C.3       20 UNK        -0.1800 
    112 C         -3.0206  -20.0566  -57.4503 C.2       20 UNK         0.5000 
    113 O         -3.0914  -19.8560  -58.6638 O.2       20 UNK        -0.5000 
    114 N         -1.9202  -19.8226  -56.7214 N.am      21 UNK        -0.5000 
    115 CA        -0.6481  -19.3514  -57.2606 C.3       21 UNK         0.1400 
    116 CB         0.4402  -20.4013  -56.9739 C.3       21 UNK        -0.1800 
    117 C         -0.2735  -17.9826  -56.6749 C.2       21 UNK         0.5000 
    118 O         -0.1501  -17.0169  -57.4301 O.2       21 UNK        -0.5000 
    119 N         -0.0891  -17.9290  -55.3488 N.am      22 UNK        -0.5000 
    120 CA         0.4604  -16.7923  -54.5895 C.3       22 UNK         0.1400 
    121 C          1.8691  -16.3294  -55.0891 C.2       22 UNK         0.5000 
    122 N          2.2655  -15.0789  -54.8870 N.am      22 UNK        -0.7600 
    123 O          2.6494  -17.1221  -55.6128 O.2       22 UNK        -0.5000 
    124 C124       -0.5737  -15.6444  -54.3986 C.3       23 UNK        -0.0398 
    125 S125       -2.0065  -16.1671  -53.3975 S.3       23 UNK        -0.2404 
    126 C126       -1.3319  -15.9027  -51.7278 C.3       23 UNK        -0.0205 
    127 H127       -4.5117  -17.8718  -42.5159 H         1 UNK         0.0600 
    128 H128       -3.6771  -18.1463  -44.0415 H         1 UNK         0.0600 
    129 H129       -5.4443  -18.0420  -44.0084 H         1 UNK         0.0600 
    130 H130       -2.9133  -16.3401  -45.1168 H         1 UNK         0.3000 
    131 H131       -4.2559  -13.7583  -44.9444 H         1 UNK         0.0600 
    132 H132       -1.7489  -13.4044  -46.2713 H         1 UNK         0.0800 
    133 H133       -2.2131  -15.0102  -46.7119 H         1 UNK         0.0800 
    134 H134       -5.5195  -14.4799  -48.7250 H         1 UNK         0.0800 
    135 H135       -5.1529  -15.2798  -47.2169 H         1 UNK         0.0800 
    136 H136       -2.9665  -14.3752  -50.1722 H         1 UNK         0.1150 
    137 H137       -1.8110  -18.4343  -50.8738 H         1 UNK         0.1150 
    138 H138       -4.6277  -17.4998  -47.7709 H         1 UNK         0.1150 
    139 H139       -2.3785  -19.9750  -48.5583 H         1 UNK         0.0800 
    140 H140       -3.3797  -20.1825  -49.9605 H         1 UNK         0.0800 
    141 H141       -4.8779  -19.8490  -45.6245 H         1 UNK         0.0800 
    142 H142       -3.4917  -19.0511  -46.3096 H         1 UNK         0.0800 
    143 H143       -2.4190  -21.3687  -46.6265 H         1 UNK         0.0600 
    144 H144       -2.4450  -19.7737  -44.3528 H         1 UNK         0.3000 
    145 H145       -1.3830  -20.5758  -42.1374 H         1 UNK         0.0600 
    146 H146        0.9561  -21.1944  -41.4570 H         1 UNK         0.0600 
    147 H147       -0.0264  -22.5975  -41.8400 H         1 UNK         0.0600 
    148 H148        1.1758  -22.0281  -42.9937 H         1 UNK         0.0600 
    149 H149        0.8166  -19.6883  -43.9572 H         1 UNK         0.3000 
    150 H150       -0.2277  -16.2694  -43.6733 H         1 UNK         0.0600 
    151 H151        2.3658  -17.8009  -43.1351 H         1 UNK         0.0600 
    152 H152        1.5807  -16.6907  -42.0184 H         1 UNK         0.0600 
    153 H153        2.2371  -16.0885  -43.5312 H         1 UNK         0.0600 
    154 H154        1.5353  -17.4971  -45.4958 H         1 UNK         0.3000 
    155 H155       -0.8212  -18.3941  -48.0060 H         1 UNK         0.0600 
    156 H156        1.3268  -16.2242  -47.9425 H         1 UNK         0.0600 
    157 H157       -0.3769  -15.9295  -48.2877 H         1 UNK         0.0600 
    158 H158        0.5818  -16.9309  -49.3682 H         1 UNK         0.0600 
    159 H159        2.0730  -18.4443  -47.3458 H         1 UNK         0.3000 
    160 H160        2.1140  -21.9028  -46.8033 H         1 UNK         0.0600 
    161 H161        3.0751  -20.5984  -49.4061 H         1 UNK         0.0600 
    162 H162        2.0697  -22.0374  -49.2809 H         1 UNK         0.0600 
    163 H163        3.7236  -22.0786  -48.6964 H         1 UNK         0.0600 
    164 H164        4.2220  -20.0100  -47.2655 H         1 UNK         0.3000 
    165 H165        4.3777  -18.8318  -43.8832 H         1 UNK         0.0600 
    166 H166        6.6600  -19.7052  -44.0974 H         1 UNK         0.0600 
    167 H167        6.2305  -20.5987  -45.5561 H         1 UNK         0.0600 
    168 H168        5.5367  -21.0507  -44.0034 H         1 UNK         0.0600 
    169 H169        6.1270  -17.9923  -45.7249 H         1 UNK         0.3000 
    170 H170        5.9526  -15.6899  -46.1921 H         1 UNK         0.0600 
    171 H171        6.1792  -17.0764  -48.2692 H         1 UNK         0.0600 
    172 H172        4.6466  -16.4555  -48.8700 H         1 UNK         0.0600 
    173 H173        6.0277  -15.3756  -48.6762 H         1 UNK         0.0600 
    174 H174        3.8227  -14.4744  -47.7011 H         1 UNK         0.3000 
    175 H175        3.0948  -12.2407  -46.5047 H         1 UNK         0.0600 
    176 H176        0.9981  -14.4765  -46.1936 H         1 UNK         0.0600 
    177 H177        0.6485  -12.8668  -46.8181 H         1 UNK         0.0600 
    178 H178        1.7129  -13.9263  -47.7107 H         1 UNK         0.0600 
    179 H179        2.3914  -13.1468  -43.8535 H         1 UNK         0.3000 
    180 H180        2.0215  -11.2354  -42.3415 H         1 UNK         0.0600 
    181 H181       -0.2029   -9.4055  -43.3922 H         1 UNK         0.0600 
    182 H182        1.4573   -8.9167  -43.0673 H         1 UNK         0.0600 
    183 H183        0.4247   -9.4386  -41.7457 H         1 UNK         0.0600 
    184 H184       -0.8663  -11.6970  -42.8487 H         1 UNK         0.3000 
    185 H185       -0.7437  -14.9258  -41.3007 H         1 UNK         0.0600 
    186 H186       -2.7556  -13.8571  -40.3734 H         1 UNK         0.0600 
    187 H187       -1.3167  -13.0306  -39.7974 H         1 UNK         0.0600 
    188 H188       -2.3010  -12.2990  -41.0558 H         1 UNK         0.0600 
    189 H189       -1.9912  -15.3424  -43.0464 H         1 UNK         0.3000 
    190 H190       -4.1685  -21.9353  -43.6150 H         1 UNK         0.3000 
    191 H191       -5.8414  -24.0747  -44.5179 H         1 UNK         0.0600 
    192 H192       -6.1015  -24.5122  -42.0717 H         1 UNK         0.0600 
    193 H193       -6.2976  -22.8060  -42.4381 H         1 UNK         0.0600 
    194 H194       -4.7958  -23.3872  -41.7177 H         1 UNK         0.0600 
    195 H195       -2.4777  -23.9686  -43.3190 H         1 UNK         0.3000 
    196 H196       -2.1858  -26.8580  -43.0994 H         1 UNK         0.0600 
    197 H197       -0.0435  -24.6680  -43.1481 H         1 UNK         0.0600 
    198 H198       -0.8520  -25.2547  -41.6933 H         1 UNK         0.0600 
    199 H199        0.1668  -26.3331  -42.6346 H         1 UNK         0.0600 
    200 H200       -1.5920  -24.3505  -45.5251 H         1 UNK         0.3000 
    201 H201       -0.4064  -26.1105  -47.5133 H         1 UNK         0.0600 
    202 H202       -1.6579  -23.3272  -47.8059 H         1 UNK         0.0600 
    203 H203       -0.6141  -24.1284  -48.9704 H         1 UNK         0.0600 
    204 H204        0.0306  -23.6374  -47.4132 H         1 UNK         0.0600 
    205 H205       -3.4912  -26.0582  -46.2845 H         1 UNK         0.3000 
    206 H206       -5.5000  -26.7816  -46.8301 H         1 UNK         0.0600 
    207 H207       -4.2080  -28.8604  -47.3778 H         1 UNK         0.0600 
    208 H208       -5.6678  -28.7242  -48.3430 H         1 UNK         0.0600 
    209 H209       -4.1069  -28.3530  -49.0635 H         1 UNK         0.0600 
    210 H210       -4.7123  -24.2773  -47.9543 H         1 UNK         0.3000 
    211 H211       -5.2702  -22.6506  -49.2875 H         1 UNK         0.0600 
    212 H212       -7.5408  -22.5116  -50.2173 H         1 UNK         0.0600 
    213 H213       -7.6069  -23.2457  -48.6251 H         1 UNK         0.0600 
    214 H214       -7.7594  -24.2491  -50.0682 H         1 UNK         0.0600 
    215 H215       -3.8443  -25.1868  -50.5362 H         1 UNK         0.3000 
    216 H216       -4.3876  -25.0071  -53.3499 H         1 UNK         0.0600 
    217 H217       -1.9345  -26.1277  -51.8937 H         1 UNK         0.0600 
    218 H218       -2.3963  -26.4545  -53.5585 H         1 UNK         0.0600 
    219 H219       -3.4100  -27.0280  -52.2418 H         1 UNK         0.0600 
    220 H220       -2.1712  -23.3231  -51.1875 H         1 UNK         0.3000 
    221 H221       -0.4437  -22.1645  -53.1332 H         1 UNK         0.0600 
    222 H222        0.1708  -22.3410  -50.7535 H         1 UNK         0.0600 
    223 H223       -1.1488  -21.2764  -50.2832 H         1 UNK         0.0600 
    224 H224        0.1954  -20.6509  -51.2292 H         1 UNK         0.0600 
    225 H225       -3.6820  -21.2805  -52.1190 H         1 UNK         0.3000 
    226 H226       -3.6245  -18.5014  -52.7845 H         1 UNK         0.0600 
    227 H227       -5.9958  -20.4248  -52.5479 H         1 UNK         0.0600 
    228 H228       -5.2937  -19.4984  -51.2215 H         1 UNK         0.0600 
    229 H229       -6.0860  -18.6701  -52.5469 H         1 UNK         0.0600 
    230 H230       -3.8645  -21.3414  -54.7649 H         1 UNK         0.3000 
    231 H231       -5.1282  -20.0779  -57.0652 H         1 UNK         0.0600 
    232 H232       -3.5925  -22.7169  -56.7850 H         1 UNK         0.0600 
    233 H233       -4.5790  -22.2377  -58.1600 H         1 UNK         0.0600 
    234 H234       -5.3358  -22.5237  -56.6009 H         1 UNK         0.0600 
    235 H235       -1.9603  -19.9573  -55.7186 H         1 UNK         0.3000 
    236 H236       -0.7071  -19.2300  -58.3442 H         1 UNK         0.0600 
    237 H237        0.2269  -21.3358  -57.4930 H         1 UNK         0.0600 
    238 H238        1.4169  -20.0550  -57.3148 H         1 UNK         0.0600 
    239 H239        0.5227  -20.6250  -55.9096 H         1 UNK         0.0600 
    240 H240       -0.2987  -18.7522  -54.7919 H         1 UNK         0.3000 
    241 H241        0.6725  -17.2035  -53.6028 H         1 UNK         0.0600 
    242 H242        3.1862  -14.8082  -55.1969 H         1 UNK         0.3800 
    243 H243        1.6769  -14.3936  -54.4420 H         1 UNK         0.3800 
    244 H244       -0.9312  -15.2888  -55.3658 H         1 UNK         0.0800 
    245 H245       -0.1332  -14.7793  -53.9034 H         1 UNK         0.0800 
    246 H246       -1.0901  -14.8465  -51.5991 H         1 UNK         0.0800 
    247 H247       -0.3930  -16.4469  -51.6230 H         1 UNK         0.0800 
@<TRIPOS>BOND
     1    1    2 1    
     2    1  127 1    
     3    1  128 1    
     4    1  129 1    
     5    2    3 2    
     6    2    4 am   BACKBONE|DICT|INTERRES
     7    4    5 1    
     8    4  130 1    
     9    5    6 1    
    10    5   65 1    
    11    5  131 1    
    12    6    7 1    
    13    6  132 1    
    14    6  133 1    
    15    7    8 1    
    16    8    9 1    
    17    8  134 1    
    18    8  135 1    
    19    9   10 ar   
    20    9   14 ar   
    21   10   11 ar   
    22   10  136 1    
    23   11   12 ar   
    24   11  126 1    
    25   12   13 ar   
    26   12  137 1    
    27   13   14 ar   
    28   13   15 1    
    29   14  138 1    
    30   15   16 1    
    31   15  139 1    
    32   15  140 1    
    33   16   17 1    
    34   17   18 1    
    35   17  141 1    
    36   17  142 1    
    37   18   19 1    
    38   18   67 1    
    39   18  143 1    
    40   19   20 am   BACKBONE|DICT|INTERRES
    41   19  144 1    
    42   20   21 2    
    43   20   22 1    
    44   22   23 1    
    45   22   24 1    
    46   22  145 1    
    47   23  146 1    
    48   23  147 1    
    49   23  148 1    
    50   24   25 am   BACKBONE|DICT|INTERRES
    51   24  149 1    
    52   25   26 2    
    53   25   27 1    
    54   27   28 1    
    55   27   29 1    
    56   27  150 1    
    57   28  151 1    
    58   28  152 1    
    59   28  153 1    
    60   29   30 am   BACKBONE|DICT|INTERRES
    61   29  154 1    
    62   30   31 2    
    63   30   32 1    
    64   32   33 1    
    65   32   34 1    
    66   32  155 1    
    67   33  156 1    
    68   33  157 1    
    69   33  158 1    
    70   34   35 am   BACKBONE|DICT|INTERRES
    71   34  159 1    
    72   35   36 2    
    73   35   37 1    
    74   37   38 1    
    75   37   39 1    
    76   37  160 1    
    77   38  161 1    
    78   38  162 1    
    79   38  163 1    
    80   39   40 am   BACKBONE|DICT|INTERRES
    81   39  164 1    
    82   40   41 2    
    83   40   42 1    
    84   42   43 1    
    85   42   44 1    
    86   42  165 1    
    87   43  166 1    
    88   43  167 1    
    89   43  168 1    
    90   44   45 am   BACKBONE|DICT|INTERRES
    91   44  169 1    
    92   45   46 2    
    93   45   47 1    
    94   47   48 1    
    95   47   49 1    
    96   47  170 1    
    97   48  171 1    
    98   48  172 1    
    99   48  173 1    
   100   49   50 am   BACKBONE|DICT|INTERRES
   101   49  174 1    
   102   50   51 2    
   103   50   52 1    
   104   52   53 1    
   105   52   54 1    
   106   52  175 1    
   107   53  176 1    
   108   53  177 1    
   109   53  178 1    
   110   54   55 am   BACKBONE|DICT|INTERRES
   111   54  179 1    
   112   55   56 2    
   113   55   57 1    
   114   57   58 1    
   115   57   59 1    
   116   57  180 1    
   117   58  181 1    
   118   58  182 1    
   119   58  183 1    
   120   59   60 am   BACKBONE|DICT|INTERRES
   121   59  184 1    
   122   60   61 2    
   123   60   62 1    
   124   62   63 1    
   125   62   64 1    
   126   62  185 1    
   127   63  186 1    
   128   63  187 1    
   129   63  188 1    
   130   64   65 am   BACKBONE|DICT|INTERRES
   131   64  189 1    
   132   65   66 2    
   133   67   68 2    
   134   67   69 am   BACKBONE|DICT|INTERRES
   135   69   70 1    
   136   69  190 1    
   137   70   71 1    
   138   70   72 1    
   139   70  191 1    
   140   71  192 1    
   141   71  193 1    
   142   71  194 1    
   143   72   73 2    
   144   72   74 am   BACKBONE|DICT|INTERRES
   145   74   75 1    
   146   74  195 1    
   147   75   76 1    
   148   75   77 1    
   149   75  196 1    
   150   76  197 1    
   151   76  198 1    
   152   76  199 1    
   153   77   78 2    
   154   77   79 am   BACKBONE|DICT|INTERRES
   155   79   80 1    
   156   79  200 1    
   157   80   81 1    
   158   80   82 1    
   159   80  201 1    
   160   81  202 1    
   161   81  203 1    
   162   81  204 1    
   163   82   83 2    
   164   82   84 am   BACKBONE|DICT|INTERRES
   165   84   85 1    
   166   84  205 1    
   167   85   86 1    
   168   85   87 1    
   169   85  206 1    
   170   86  207 1    
   171   86  208 1    
   172   86  209 1    
   173   87   88 2    
   174   87   89 am   BACKBONE|DICT|INTERRES
   175   89   90 1    
   176   89  210 1    
   177   90   91 1    
   178   90   92 1    
   179   90  211 1    
   180   91  212 1    
   181   91  213 1    
   182   91  214 1    
   183   92   93 2    
   184   92   94 am   BACKBONE|DICT|INTERRES
   185   94   95 1    
   186   94  215 1    
   187   95   96 1    
   188   95   97 1    
   189   95  216 1    
   190   96  217 1    
   191   96  218 1    
   192   96  219 1    
   193   97   98 2    
   194   97   99 am   BACKBONE|DICT|INTERRES
   195   99  100 1    
   196   99  220 1    
   197  100  101 1    
   198  100  102 1    
   199  100  221 1    
   200  101  222 1    
   201  101  223 1    
   202  101  224 1    
   203  102  103 2    
   204  102  104 am   BACKBONE|DICT|INTERRES
   205  104  105 1    
   206  104  225 1    
   207  105  106 1    
   208  105  107 1    
   209  105  226 1    
   210  106  227 1    
   211  106  228 1    
   212  106  229 1    
   213  107  108 2    
   214  107  109 am   BACKBONE|DICT|INTERRES
   215  109  110 1    
   216  109  230 1    
   217  110  111 1    
   218  110  112 1    
   219  110  231 1    
   220  111  232 1    
   221  111  233 1    
   222  111  234 1    
   223  112  113 2    
   224  112  114 am   BACKBONE|DICT|INTERRES
   225  114  115 1    
   226  114  235 1    
   227  115  116 1    
   228  115  117 1    
   229  115  236 1    
   230  116  237 1    
   231  116  238 1    
   232  116  239 1    
   233  117  118 2    
   234  117  119 am   BACKBONE|DICT|INTERRES
   235  119  120 1    
   236  119  240 1    
   237  120  121 1    
   238  120  124 1    
   239  120  241 1    
   240  121  122 am   BACKBONE|DICT|INTERRES
   241  121  123 2    
   242  122  242 1    
   243  122  243 1    
   244  124  125 1    
   245  124  244 1    
   246  124  245 1    
   247  125  126 1    
   248  126  246 1    
   249  126  247 1    
@<TRIPOS>SUBSTRUCTURE
     1 UNK         1 GROUP             0       ****    0 ROOT    
