@<TRIPOS>MOLECULE
3R540
247   249    1
SMALL
USER_CHARGES


@<TRIPOS>ATOM
      1 CA         -0.7162  -10.2477  -50.1376 C.3       0 UNK        -0.1800 
      2 C           0.0711  -11.3144  -49.3910 C.2       0 UNK         0.5000 
      3 O           0.5461  -11.0622  -48.2850 O.2       0 UNK        -0.5000 
      4 N           0.1992  -12.5101  -49.9808 N.am      1 UNK        -0.5000 
      5 CA          0.9234  -13.6564  -49.4162 C.3       1 UNK         0.1400 
      6 C6          1.0637  -14.7917  -50.4593 C.3       23 UNK        -0.0398 
      7 S7          2.3953  -15.9842  -50.0855 S.3       23 UNK        -0.2404 
      8 C8          1.4519  -17.3351  -49.3157 C.3       23 UNK        -0.0205 
      9 C9          2.0365  -18.6963  -49.6558 C.ar      23 UNK        -0.0193 
     10 C10         1.6621  -19.3288  -50.8427 C.ar      23 UNK        -0.1150 
     11 C11         2.1147  -20.6165  -51.1444 C.ar      23 UNK        -0.0193 
     12 C12         2.9901  -21.2527  -50.2563 C.ar      23 UNK        -0.1150 
     13 C13         3.3997  -20.6187  -49.0776 C.ar      23 UNK        -0.0193 
     14 C14         2.9123  -19.3418  -48.7796 C.ar      23 UNK        -0.1150 
     15 C15         4.4001  -21.2941  -48.1465 C.3       23 UNK        -0.0205 
     16 S16         3.7122  -22.7323  -47.2625 S.3       23 UNK        -0.2404 
     17 C17         2.4927  -21.9505  -46.1499 C.3       23 UNK        -0.0398 
     18 CA          1.1338  -22.6906  -46.0974 C.3       11 UNK         0.1400 
     19 N           0.2534  -22.1420  -45.0618 N.am      11 UNK        -0.5000 
     20 C          -0.9303  -22.6592  -44.7008 C.2       10 UNK         0.5000 
     21 O          -1.3798  -23.7133  -45.1479 O.2       10 UNK        -0.5000 
     22 CA         -1.7779  -21.8428  -43.7083 C.3       10 UNK         0.1400 
     23 CB         -1.3390  -22.1149  -42.2624 C.3       10 UNK        -0.1800 
     24 N          -1.7355  -20.4049  -43.9776 N.am      10 UNK        -0.5000 
     25 C          -2.2123  -19.8220  -45.0875 C.2       9 UNK         0.5000 
     26 O          -2.7924  -20.4335  -45.9847 O.2       9 UNK        -0.5000 
     27 CA         -1.9511  -18.3105  -45.2417 C.3       9 UNK         0.1400 
     28 CB         -2.9546  -17.4967  -44.4114 C.3       9 UNK        -0.1800 
     29 N          -0.5829  -17.9409  -44.8677 N.am      9 UNK        -0.5000 
     30 C           0.5141  -18.3893  -45.4962 C.2       8 UNK         0.5000 
     31 O           0.4781  -19.0942  -46.5037 O.2       8 UNK        -0.5000 
     32 CA          1.8736  -18.0690  -44.8485 C.3       8 UNK         0.1400 
     33 CB          2.3897  -16.6792  -45.2477 C.3       8 UNK        -0.1800 
     34 N           1.8097  -18.1709  -43.3912 N.am      8 UNK        -0.5000 
     35 C           1.7399  -19.3306  -42.7226 C.2       7 UNK         0.5000 
     36 O           1.7634  -20.4313  -43.2701 O.2       7 UNK        -0.5000 
     37 CA          1.5813  -19.2502  -41.1925 C.3       7 UNK         0.1400 
     38 CB          2.9561  -19.1639  -40.5137 C.3       7 UNK        -0.1800 
     39 N           0.7626  -18.1147  -40.7684 N.am      7 UNK        -0.5000 
     40 C          -0.5428  -17.9704  -41.0393 C.2       6 UNK         0.5000 
     41 O          -1.2166  -18.8224  -41.6159 O.2       6 UNK        -0.5000 
     42 CA         -1.1815  -16.6203  -40.6584 C.3       6 UNK         0.1400 
     43 CB         -1.7575  -16.6762  -39.2361 C.3       6 UNK        -0.1800 
     44 N          -0.2361  -15.5034  -40.7598 N.am      6 UNK        -0.5000 
     45 C           0.3288  -15.1012  -41.9054 C.2       5 UNK         0.5000 
     46 O           0.0685  -15.5938  -43.0059 O.2       5 UNK        -0.5000 
     47 CA          1.4387  -14.0519  -41.7858 C.3       5 UNK         0.1400 
     48 CB          2.7861  -14.7514  -41.5110 C.3       5 UNK        -0.1800 
     49 N           1.5020  -13.2826  -43.0233 N.am      5 UNK        -0.5000 
     50 C           2.1999  -12.1545  -43.2034 C.2       4 UNK         0.5000 
     51 O           2.8987  -11.6323  -42.3336 O.2       4 UNK        -0.5000 
     52 CA          2.0839  -11.4781  -44.5814 C.3       4 UNK         0.1400 
     53 CB          3.0741  -12.1037  -45.5758 C.3       4 UNK        -0.1800 
     54 N           0.7324  -11.5372  -45.1381 N.am      4 UNK        -0.5000 
     55 C          -0.3365  -10.9078  -44.6262 C.2       3 UNK         0.5000 
     56 O          -0.2951  -10.2067  -43.6144 O.2       3 UNK        -0.5000 
     57 CA         -1.6788  -11.0766  -45.3637 C.3       3 UNK         0.1400 
     58 CB         -2.0108   -9.8214  -46.1863 C.3       3 UNK        -0.1800 
     59 N          -1.6954  -12.2462  -46.2428 N.am      3 UNK        -0.5000 
     60 C          -1.8985  -13.5019  -45.8219 C.2       2 UNK         0.5000 
     61 O          -2.1430  -13.7910  -44.6516 O.2       2 UNK        -0.5000 
     62 CA         -1.8208  -14.6202  -46.8798 C.3       2 UNK         0.1400 
     63 CB         -3.2313  -15.0446  -47.3130 C.3       2 UNK        -0.1800 
     64 N          -1.0511  -14.2418  -48.0687 N.am      2 UNK        -0.5000 
     65 C           0.2861  -14.1508  -48.0983 C.2       1 UNK         0.5000 
     66 O           0.9996  -14.3841  -47.1251 O.2       1 UNK        -0.5000 
     67 C           0.4283  -22.7315  -47.4681 C.2       11 UNK         0.5000 
     68 O           0.4255  -23.7815  -48.1099 O.2       11 UNK        -0.5000 
     69 N          -0.2130  -21.6204  -47.8565 N.am      12 UNK        -0.5000 
     70 CA         -1.0087  -21.5234  -49.0788 C.3       12 UNK         0.1400 
     71 CB         -1.4817  -20.0789  -49.2760 C.3       12 UNK        -0.1800 
     72 C          -2.1983  -22.4985  -49.0977 C.2       12 UNK         0.5000 
     73 O          -2.3926  -23.2046  -50.0881 O.2       12 UNK        -0.5000 
     74 N          -2.9349  -22.5621  -47.9787 N.am      13 UNK        -0.5000 
     75 CA         -4.0543  -23.4801  -47.7746 C.3       13 UNK         0.1400 
     76 CB         -4.7469  -23.1670  -46.4415 C.3       13 UNK        -0.1800 
     77 C          -3.6472  -24.9620  -47.8514 C.2       13 UNK         0.5000 
     78 O          -4.3893  -25.7576  -48.4231 O.2       13 UNK        -0.5000 
     79 N          -2.4715  -25.3068  -47.3124 N.am      14 UNK        -0.5000 
     80 CA         -1.8867  -26.6425  -47.4154 C.3       14 UNK         0.1400 
     81 CB         -0.7313  -26.7749  -46.4112 C.3       14 UNK        -0.1800 
     82 C          -1.4120  -26.9716  -48.8439 C.2       14 UNK         0.5000 
     83 O          -1.6240  -28.0922  -49.3087 O.2       14 UNK        -0.5000 
     84 N          -0.7734  -25.9985  -49.5065 N.am      15 UNK        -0.5000 
     85 CA         -0.1842  -26.1436  -50.8355 C.3       15 UNK         0.1400 
     86 CB          0.7865  -24.9793  -51.0951 C.3       15 UNK        -0.1800 
     87 C          -1.2227  -26.2395  -51.9665 C.2       15 UNK         0.5000 
     88 O          -1.1148  -27.1353  -52.8055 O.2       15 UNK        -0.5000 
     89 N          -2.1790  -25.3027  -51.9933 N.am      16 UNK        -0.5000 
     90 CA         -3.0727  -25.0760  -53.1330 C.3       16 UNK         0.1400 
     91 CB         -2.8835  -23.6279  -53.6080 C.3       16 UNK        -0.1800 
     92 C          -4.5540  -25.3579  -52.8308 C.2       16 UNK         0.5000 
     93 O          -5.3850  -25.1625  -53.7183 O.2       16 UNK        -0.5000 
     94 N          -4.8713  -25.7928  -51.6023 N.am      17 UNK        -0.5000 
     95 CA         -6.2213  -26.0628  -51.0800 C.3       17 UNK         0.1400 
     96 CB         -6.9542  -27.1339  -51.9166 C.3       17 UNK        -0.1800 
     97 C          -7.0796  -24.7948  -50.8633 C.2       17 UNK         0.5000 
     98 O          -8.2711  -24.9137  -50.5727 O.2       17 UNK        -0.5000 
     99 N          -6.4706  -23.6089  -50.9751 N.am      18 UNK        -0.5000 
    100 CA        -7.0785  -22.3046  -50.7479 C.3       18 UNK         0.1400 
    101 CB        -7.8087  -21.8282  -52.0151 C.3       18 UNK        -0.1800 
    102 C         -5.9591  -21.3341  -50.3597 C.2       18 UNK         0.5000 
    103 O         -4.8924  -21.3663  -50.9740 O.2       18 UNK        -0.5000 
    104 N         -6.2104  -20.4963  -49.3469 N.am      19 UNK        -0.5000 
    105 CA        -5.2202  -19.5676  -48.7953 C.3       19 UNK         0.1400 
    106 CB        -5.7117  -19.0506  -47.4346 C.3       19 UNK        -0.1800 
    107 C         -4.8872  -18.3846  -49.7247 C.2       19 UNK         0.5000 
    108 O         -3.8111  -17.8035  -49.5988 O.2       19 UNK        -0.5000 
    109 N         -5.8218  -18.0276  -50.6154 N.am      20 UNK        -0.5000 
    110 CA        -5.7244  -16.8580  -51.4881 C.3       20 UNK         0.1400 
    111 CB        -7.1013  -16.5832  -52.1127 C.3       20 UNK        -0.1800 
    112 C         -4.6516  -16.9801  -52.5860 C.2       20 UNK         0.5000 
    113 O         -4.0013  -15.9828  -52.9018 O.2       20 UNK        -0.5000 
    114 N         -4.5005  -18.1793  -53.1607 N.am      21 UNK        -0.5000 
    115 CA        -3.6542  -18.4584  -54.3188 C.3       21 UNK         0.1400 
    116 CB        -4.2594  -17.7801  -55.5678 C.3       21 UNK        -0.1800 
    117 C         -3.5924  -19.9845  -54.5228 C.2       21 UNK         0.5000 
    118 O         -4.6386  -20.6200  -54.3890 O.2       21 UNK        -0.5000 
    119 N         -2.4541  -20.6073  -54.8711 N.am      22 UNK        -0.5000 
    120 CA        -1.0768  -20.0939  -55.0156 C.3       22 UNK         0.1400 
    121 C         -0.9020  -18.9886  -56.0963 C.2       22 UNK         0.5000 
    122 N         -1.4779  -19.1690  -57.2772 N.am      22 UNK        -0.7600 
    123 O         -0.2582  -17.9678  -55.8738 O.2       22 UNK        -0.5000 
    124 C124       -0.3949  -19.7829  -53.6532 C.3       23 UNK        -0.0398 
    125 S125       -0.1313  -21.3080  -52.6812 S.3       23 UNK        -0.2404 
    126 C126        1.6791  -21.3193  -52.4283 C.3       23 UNK        -0.0205 
    127 H127       -0.0941   -9.3672  -50.2977 H         1 UNK         0.0600 
    128 H128       -1.5880   -9.9489  -49.5558 H         1 UNK         0.0600 
    129 H129       -1.0602  -10.6026  -51.1094 H         1 UNK         0.0600 
    130 H130       -0.2147  -12.6530  -50.8912 H         1 UNK         0.3000 
    131 H131        1.9266  -13.2988  -49.1724 H         1 UNK         0.0600 
    132 H132        1.3221  -14.3586  -51.4267 H         1 UNK         0.0800 
    133 H133        0.1140  -15.3038  -50.6219 H         1 UNK         0.0800 
    134 H134        1.4274  -17.1868  -48.2371 H         1 UNK         0.0800 
    135 H135        0.4117  -17.3075  -49.6406 H         1 UNK         0.0800 
    136 H136        0.9899  -18.8194  -51.5154 H         1 UNK         0.1150 
    137 H137        3.3612  -22.2427  -50.4814 H         1 UNK         0.1150 
    138 H138        3.2100  -18.8488  -47.8653 H         1 UNK         0.1150 
    139 H139        5.2569  -21.6258  -48.7346 H         1 UNK         0.0800 
    140 H140        4.7926  -20.5828  -47.4181 H         1 UNK         0.0800 
    141 H141        2.3469  -20.9103  -46.4354 H         1 UNK         0.0800 
    142 H142        2.9364  -21.9278  -45.1541 H         1 UNK         0.0800 
    143 H143        1.3363  -23.7253  -45.8123 H         1 UNK         0.0600 
    144 H144        0.5827  -21.3076  -44.5878 H         1 UNK         0.3000 
    145 H145       -2.8150  -22.1674  -43.8118 H         1 UNK         0.0600 
    146 H146       -1.9743  -21.5866  -41.5512 H         1 UNK         0.0600 
    147 H147       -0.3097  -21.8030  -42.0876 H         1 UNK         0.0600 
    148 H148       -1.4036  -23.1785  -42.0293 H         1 UNK         0.0600 
    149 H149       -1.3367  -19.8177  -43.2505 H         1 UNK         0.3000 
    150 H150       -2.0894  -18.0521  -46.2940 H         1 UNK         0.0600 
    151 H151       -3.9741  -17.6671  -44.7586 H         1 UNK         0.0600 
    152 H152       -2.7582  -16.4282  -44.4847 H         1 UNK         0.0600 
    153 H153       -2.9217  -17.7652  -43.3560 H         1 UNK         0.0600 
    154 H154       -0.4685  -17.3298  -44.0667 H         1 UNK         0.3000 
    155 H155        2.5969  -18.8031  -45.2091 H         1 UNK         0.0600 
    156 H156        2.5641  -16.6205  -46.3214 H         1 UNK         0.0600 
    157 H157        3.3366  -16.4526  -44.7580 H         1 UNK         0.0600 
    158 H158        1.6838  -15.8906  -44.9904 H         1 UNK         0.0600 
    159 H159        1.7172  -17.3050  -42.8816 H         1 UNK         0.3000 
    160 H160        1.0905  -20.1664  -40.8582 H         1 UNK         0.0600 
    161 H161        3.4877  -18.2530  -40.7920 H         1 UNK         0.0600 
    162 H162        3.5840  -20.0100  -40.7964 H         1 UNK         0.0600 
    163 H163        2.8615  -19.1798  -39.4278 H         1 UNK         0.0600 
    164 H164        1.2351  -17.3717  -40.2762 H         1 UNK         0.3000 
    165 H165       -2.0019  -16.4334  -41.3546 H         1 UNK         0.0600 
    166 H166       -2.2749  -15.7504  -38.9836 H         1 UNK         0.0600 
    167 H167       -2.4804  -17.4875  -39.1402 H         1 UNK         0.0600 
    168 H168       -0.9784  -16.8407  -38.4907 H         1 UNK         0.0600 
    169 H169        0.0311  -15.0583  -39.8934 H         1 UNK         0.3000 
    170 H170        1.1966  -13.3763  -40.9630 H         1 UNK         0.0600 
    171 H171        3.0842  -15.3891  -42.3440 H         1 UNK         0.0600 
    172 H172        3.5864  -14.0313  -41.3426 H         1 UNK         0.0600 
    173 H173        2.7326  -15.3772  -40.6195 H         1 UNK         0.0600 
    174 H174        0.9290  -13.6463  -43.7750 H         1 UNK         0.3000 
    175 H175        2.3463  -10.4250  -44.4600 H         1 UNK         0.0600 
    176 H176        2.8942  -13.1712  -45.7064 H         1 UNK         0.0600 
    177 H177        3.0055  -11.6295  -46.5552 H         1 UNK         0.0600 
    178 H178        4.1008  -11.9868  -45.2271 H         1 UNK         0.0600 
    179 H179        0.6178  -12.0655  -45.9925 H         1 UNK         0.3000 
    180 H180       -2.4567  -11.1943  -44.6062 H         1 UNK         0.0600 
    181 H181       -2.9666   -9.9258  -46.7000 H         1 UNK         0.0600 
    182 H182       -1.2468   -9.6126  -46.9348 H         1 UNK         0.0600 
    183 H183       -2.0829   -8.9438  -45.5427 H         1 UNK         0.0600 
    184 H184       -1.4675  -12.0878  -47.2131 H         1 UNK         0.3000 
    185 H185       -1.3340  -15.4785  -46.4116 H         1 UNK         0.0600 
    186 H186       -3.7569  -14.2381  -47.8255 H         1 UNK         0.0600 
    187 H187       -3.1888  -15.8996  -47.9851 H         1 UNK         0.0600 
    188 H188       -3.8374  -15.3384  -46.4553 H         1 UNK         0.0600 
    189 H189       -1.5773  -14.0145  -48.8999 H         1 UNK         0.3000 
    190 H190       -0.1364  -20.7801  -47.2906 H         1 UNK         0.3000 
    191 H191       -0.3525  -21.7887  -49.9068 H         1 UNK         0.0600 
    192 H192       -2.0678  -19.7248  -48.4299 H         1 UNK         0.0600 
    193 H193       -2.0928  -19.9864  -50.1750 H         1 UNK         0.0600 
    194 H194       -0.6413  -19.4008  -49.3832 H         1 UNK         0.0600 
    195 H195       -2.7209  -21.9248  -47.2162 H         1 UNK         0.3000 
    196 H196       -4.7720  -23.3018  -48.5755 H         1 UNK         0.0600 
    197 H197       -5.0953  -22.1352  -46.4111 H         1 UNK         0.0600 
    198 H198       -4.0772  -23.3191  -45.5953 H         1 UNK         0.0600 
    199 H199       -5.6158  -23.8092  -46.2930 H         1 UNK         0.0600 
    200 H200       -1.9401  -24.6095  -46.7990 H         1 UNK         0.3000 
    201 H201       -2.6529  -27.3715  -47.1430 H         1 UNK         0.0600 
    202 H202       -1.0783  -26.6168  -45.3899 H         1 UNK         0.0600 
    203 H203        0.0607  -26.0520  -46.6090 H         1 UNK         0.0600 
    204 H204       -0.2874  -27.7701  -46.4547 H         1 UNK         0.0600 
    205 H205       -0.5954  -25.1180  -49.0296 H         1 UNK         0.3000 
    206 H206        0.3981  -27.0674  -50.8443 H         1 UNK         0.0600 
    207 H207        1.2347  -25.0531  -52.0867 H         1 UNK         0.0600 
    208 H208        0.2824  -24.0140  -51.0336 H         1 UNK         0.0600 
    209 H209        1.6004  -24.9748  -50.3699 H         1 UNK         0.0600 
    210 H210       -2.1980  -24.5928  -51.2608 H         1 UNK         0.3000 
    211 H211       -2.8064  -25.7294  -53.9660 H         1 UNK         0.0600 
    212 H212       -3.1262  -22.9106  -52.8221 H         1 UNK         0.0600 
    213 H213       -3.5205  -23.4056  -54.4648 H         1 UNK         0.0600 
    214 H214       -1.8530  -23.4538  -53.9163 H         1 UNK         0.0600 
    215 H215       -4.1197  -25.9097  -50.9354 H         1 UNK         0.3000 
    216 H216       -6.0828  -26.4973  -50.0916 H         1 UNK         0.0600 
    217 H217       -7.8564  -27.4738  -51.4070 H         1 UNK         0.0600 
    218 H218       -6.3253  -28.0096  -52.0766 H         1 UNK         0.0600 
    219 H219       -7.2608  -26.7551  -52.8916 H         1 UNK         0.0600 
    220 H220       -5.4842  -23.5772  -51.2003 H         1 UNK         0.3000 
    221 H221       -7.7899  -22.3764  -49.9224 H         1 UNK         0.0600 
    222 H222       -7.1279  -21.7552  -52.8649 H         1 UNK         0.0600 
    223 H223       -8.6129  -22.5111  -52.2893 H         1 UNK         0.0600 
    224 H224       -8.2542  -20.8444  -51.8638 H         1 UNK         0.0600 
    225 H225       -7.1116  -20.5199  -48.8913 H         1 UNK         0.3000 
    226 H226       -4.2996  -20.1254  -48.6257 H         1 UNK         0.0600 
    227 H227       -5.8701  -19.8688  -46.7326 H         1 UNK         0.0600 
    228 H228       -4.9762  -18.3815  -46.9858 H         1 UNK         0.0600 
    229 H229       -6.6471  -18.4976  -47.5263 H         1 UNK         0.0600 
    230 H230       -6.6783  -18.5592  -50.6533 H         1 UNK         0.3000 
    231 H231       -5.4599  -15.9991  -50.8672 H         1 UNK         0.0600 
    232 H232       -7.0698  -15.7021  -52.7552 H         1 UNK         0.0600 
    233 H233       -7.8532  -16.3972  -51.3456 H         1 UNK         0.0600 
    234 H234       -7.4419  -17.4212  -52.7222 H         1 UNK         0.0600 
    235 H235       -5.0380  -18.9707  -52.8293 H         1 UNK         0.3000 
    236 H236       -2.6638  -18.0507  -54.1259 H         1 UNK         0.0600 
    237 H237       -5.3090  -18.0474  -55.6962 H         1 UNK         0.0600 
    238 H238       -4.1977  -16.6940  -55.5048 H         1 UNK         0.0600 
    239 H239       -3.7433  -18.0727  -56.4798 H         1 UNK         0.0600 
    240 H240       -2.5219  -21.6033  -55.0100 H         1 UNK         0.3000 
    241 H241       -0.5158  -20.9279  -55.4400 H         1 UNK         0.0600 
    242 H242       -1.3713  -18.4652  -57.9911 H         1 UNK         0.3800 
    243 H243       -2.0083  -20.0032  -57.4767 H         1 UNK         0.3800 
    244 H244        0.5696  -19.2983  -53.8097 H         1 UNK         0.0800 
    245 H245       -0.9866  -19.0898  -53.0564 H         1 UNK         0.0800 
    246 H246        1.9978  -22.3623  -52.4040 H         1 UNK         0.0800 
    247 H247        2.1879  -20.8701  -53.2817 H         1 UNK         0.0800 
@<TRIPOS>BOND
     1    1    2 1    
     2    1  127 1    
     3    1  128 1    
     4    1  129 1    
     5    2    3 2    
     6    2    4 am   BACKBONE|DICT|INTERRES
     7    4    5 1    
     8    4  130 1    
     9    5    6 1    
    10    5   65 1    
    11    5  131 1    
    12    6    7 1    
    13    6  132 1    
    14    6  133 1    
    15    7    8 1    
    16    8    9 1    
    17    8  134 1    
    18    8  135 1    
    19    9   10 ar   
    20    9   14 ar   
    21   10   11 ar   
    22   10  136 1    
    23   11   12 ar   
    24   11  126 1    
    25   12   13 ar   
    26   12  137 1    
    27   13   14 ar   
    28   13   15 1    
    29   14  138 1    
    30   15   16 1    
    31   15  139 1    
    32   15  140 1    
    33   16   17 1    
    34   17   18 1    
    35   17  141 1    
    36   17  142 1    
    37   18   19 1    
    38   18   67 1    
    39   18  143 1    
    40   19   20 am   BACKBONE|DICT|INTERRES
    41   19  144 1    
    42   20   21 2    
    43   20   22 1    
    44   22   23 1    
    45   22   24 1    
    46   22  145 1    
    47   23  146 1    
    48   23  147 1    
    49   23  148 1    
    50   24   25 am   BACKBONE|DICT|INTERRES
    51   24  149 1    
    52   25   26 2    
    53   25   27 1    
    54   27   28 1    
    55   27   29 1    
    56   27  150 1    
    57   28  151 1    
    58   28  152 1    
    59   28  153 1    
    60   29   30 am   BACKBONE|DICT|INTERRES
    61   29  154 1    
    62   30   31 2    
    63   30   32 1    
    64   32   33 1    
    65   32   34 1    
    66   32  155 1    
    67   33  156 1    
    68   33  157 1    
    69   33  158 1    
    70   34   35 am   BACKBONE|DICT|INTERRES
    71   34  159 1    
    72   35   36 2    
    73   35   37 1    
    74   37   38 1    
    75   37   39 1    
    76   37  160 1    
    77   38  161 1    
    78   38  162 1    
    79   38  163 1    
    80   39   40 am   BACKBONE|DICT|INTERRES
    81   39  164 1    
    82   40   41 2    
    83   40   42 1    
    84   42   43 1    
    85   42   44 1    
    86   42  165 1    
    87   43  166 1    
    88   43  167 1    
    89   43  168 1    
    90   44   45 am   BACKBONE|DICT|INTERRES
    91   44  169 1    
    92   45   46 2    
    93   45   47 1    
    94   47   48 1    
    95   47   49 1    
    96   47  170 1    
    97   48  171 1    
    98   48  172 1    
    99   48  173 1    
   100   49   50 am   BACKBONE|DICT|INTERRES
   101   49  174 1    
   102   50   51 2    
   103   50   52 1    
   104   52   53 1    
   105   52   54 1    
   106   52  175 1    
   107   53  176 1    
   108   53  177 1    
   109   53  178 1    
   110   54   55 am   BACKBONE|DICT|INTERRES
   111   54  179 1    
   112   55   56 2    
   113   55   57 1    
   114   57   58 1    
   115   57   59 1    
   116   57  180 1    
   117   58  181 1    
   118   58  182 1    
   119   58  183 1    
   120   59   60 am   BACKBONE|DICT|INTERRES
   121   59  184 1    
   122   60   61 2    
   123   60   62 1    
   124   62   63 1    
   125   62   64 1    
   126   62  185 1    
   127   63  186 1    
   128   63  187 1    
   129   63  188 1    
   130   64   65 am   BACKBONE|DICT|INTERRES
   131   64  189 1    
   132   65   66 2    
   133   67   68 2    
   134   67   69 am   BACKBONE|DICT|INTERRES
   135   69   70 1    
   136   69  190 1    
   137   70   71 1    
   138   70   72 1    
   139   70  191 1    
   140   71  192 1    
   141   71  193 1    
   142   71  194 1    
   143   72   73 2    
   144   72   74 am   BACKBONE|DICT|INTERRES
   145   74   75 1    
   146   74  195 1    
   147   75   76 1    
   148   75   77 1    
   149   75  196 1    
   150   76  197 1    
   151   76  198 1    
   152   76  199 1    
   153   77   78 2    
   154   77   79 am   BACKBONE|DICT|INTERRES
   155   79   80 1    
   156   79  200 1    
   157   80   81 1    
   158   80   82 1    
   159   80  201 1    
   160   81  202 1    
   161   81  203 1    
   162   81  204 1    
   163   82   83 2    
   164   82   84 am   BACKBONE|DICT|INTERRES
   165   84   85 1    
   166   84  205 1    
   167   85   86 1    
   168   85   87 1    
   169   85  206 1    
   170   86  207 1    
   171   86  208 1    
   172   86  209 1    
   173   87   88 2    
   174   87   89 am   BACKBONE|DICT|INTERRES
   175   89   90 1    
   176   89  210 1    
   177   90   91 1    
   178   90   92 1    
   179   90  211 1    
   180   91  212 1    
   181   91  213 1    
   182   91  214 1    
   183   92   93 2    
   184   92   94 am   BACKBONE|DICT|INTERRES
   185   94   95 1    
   186   94  215 1    
   187   95   96 1    
   188   95   97 1    
   189   95  216 1    
   190   96  217 1    
   191   96  218 1    
   192   96  219 1    
   193   97   98 2    
   194   97   99 am   BACKBONE|DICT|INTERRES
   195   99  100 1    
   196   99  220 1    
   197  100  101 1    
   198  100  102 1    
   199  100  221 1    
   200  101  222 1    
   201  101  223 1    
   202  101  224 1    
   203  102  103 2    
   204  102  104 am   BACKBONE|DICT|INTERRES
   205  104  105 1    
   206  104  225 1    
   207  105  106 1    
   208  105  107 1    
   209  105  226 1    
   210  106  227 1    
   211  106  228 1    
   212  106  229 1    
   213  107  108 2    
   214  107  109 am   BACKBONE|DICT|INTERRES
   215  109  110 1    
   216  109  230 1    
   217  110  111 1    
   218  110  112 1    
   219  110  231 1    
   220  111  232 1    
   221  111  233 1    
   222  111  234 1    
   223  112  113 2    
   224  112  114 am   BACKBONE|DICT|INTERRES
   225  114  115 1    
   226  114  235 1    
   227  115  116 1    
   228  115  117 1    
   229  115  236 1    
   230  116  237 1    
   231  116  238 1    
   232  116  239 1    
   233  117  118 2    
   234  117  119 am   BACKBONE|DICT|INTERRES
   235  119  120 1    
   236  119  240 1    
   237  120  121 1    
   238  120  124 1    
   239  120  241 1    
   240  121  122 am   BACKBONE|DICT|INTERRES
   241  121  123 2    
   242  122  242 1    
   243  122  243 1    
   244  124  125 1    
   245  124  244 1    
   246  124  245 1    
   247  125  126 1    
   248  126  246 1    
   249  126  247 1    
@<TRIPOS>SUBSTRUCTURE
     1 UNK         1 GROUP             0       ****    0 ROOT    
