@<TRIPOS>MOLECULE
3R540
247   249    1
SMALL
USER_CHARGES


@<TRIPOS>ATOM
      1 CA          1.1498  -10.1892  -48.7457 C.3       0 UNK        -0.1800 
      2 C           1.7566  -11.1349  -47.7204 C.2       0 UNK         0.5000 
      3 O           1.8097  -10.8024  -46.5371 O.2       0 UNK        -0.5000 
      4 N           2.1984  -12.3196  -48.1621 N.am      1 UNK        -0.5000 
      5 CA          2.8090  -13.3698  -47.3353 C.3       1 UNK         0.1400 
      6 C6          3.3239  -14.5680  -48.1797 C.3       23 UNK        -0.0398 
      7 S7          2.1236  -15.1961  -49.4103 S.3       23 UNK        -0.2404 
      8 C8          1.4111  -16.6527  -48.5822 C.3       23 UNK        -0.0205 
      9 C9          1.8759  -17.9575  -49.2143 C.ar      23 UNK        -0.0193 
     10 C10         1.3660  -18.3390  -50.4574 C.ar      23 UNK        -0.1150 
     11 C11         1.7462  -19.5476  -51.0450 C.ar      23 UNK        -0.0193 
     12 C12         2.6425  -20.3859  -50.3747 C.ar      23 UNK        -0.1150 
     13 C13         3.1631  -20.0185  -49.1289 C.ar      23 UNK        -0.0193 
     14 C14         2.7789  -18.7995  -48.5566 C.ar      23 UNK        -0.1150 
     15 C15         4.1742  -20.9188  -48.4264 C.3       23 UNK        -0.0205 
     16 S16         3.4414  -22.4537  -47.7633 S.3       23 UNK        -0.2404 
     17 C17         2.4931  -21.8317  -46.3320 C.3       23 UNK        -0.0398 
     18 CA          1.1000  -22.4857  -46.1505 C.3       11 UNK         0.1400 
     19 N           0.4607  -22.0602  -44.8991 N.am      11 UNK        -0.5000 
     20 C          -0.7076  -22.5217  -44.4266 C.2       10 UNK         0.5000 
     21 O          -1.3444  -23.4333  -44.9505 O.2       10 UNK        -0.5000 
     22 CA         -1.3017  -21.8052  -43.1994 C.3       10 UNK         0.1400 
     23 CB         -0.6902  -22.3345  -41.8941 C.3       10 UNK        -0.1800 
     24 N          -1.1444  -20.3525  -43.2727 N.am      10 UNK        -0.5000 
     25 C          -1.7123  -19.5749  -44.2061 C.2       9 UNK         0.5000 
     26 O          -2.4965  -19.9940  -45.0576 O.2       9 UNK        -0.5000 
     27 CA         -1.2854  -18.0947  -44.2269 C.3       9 UNK         0.1400 
     28 CB         -2.0776  -17.2803  -43.1945 C.3       9 UNK        -0.1800 
     29 N           0.1548  -17.9353  -44.0015 N.am      9 UNK        -0.5000 
     30 C           1.0899  -18.3759  -44.8554 C.2       8 UNK         0.5000 
     31 O           0.8196  -18.8523  -45.9556 O.2       8 UNK        -0.5000 
     32 CA          2.5579  -18.3543  -44.3883 C.3       8 UNK         0.1400 
     33 CB          3.2594  -17.0443  -44.7505 C.3       8 UNK        -0.1800 
     34 N           2.6801  -18.5817  -42.9527 N.am      8 UNK        -0.5000 
     35 C           2.5366  -19.7773  -42.3684 C.2       7 UNK         0.5000 
     36 O           2.3436  -20.8198  -42.9930 O.2       7 UNK        -0.5000 
     37 CA          2.5674  -19.7961  -40.8286 C.3       7 UNK         0.1400 
     38 CB          4.0097  -19.9319  -40.3191 C.3       7 UNK        -0.1800 
     39 N           1.9581  -18.5973  -40.2465 N.am      7 UNK        -0.5000 
     40 C           0.6572  -18.2881  -40.3469 C.2       6 UNK         0.5000 
     41 O          -0.1727  -19.0225  -40.8805 O.2       6 UNK        -0.5000 
     42 CA          0.2216  -16.9105  -39.8125 C.3       6 UNK         0.1400 
     43 CB         -0.2148  -17.0162  -38.3441 C.3       6 UNK        -0.1800 
     44 N           1.2715  -15.8952  -39.9360 N.am      6 UNK        -0.5000 
     45 C           1.7088  -15.3893  -41.0971 C.2       5 UNK         0.5000 
     46 O           1.2602  -15.7139  -42.1978 O.2       5 UNK        -0.5000 
     47 CA          2.9015  -14.4302  -41.0054 C.3       5 UNK         0.1400 
     48 CB          4.2205  -15.1890  -41.2389 C.3       5 UNK        -0.1800 
     49 N           2.7798  -13.3396  -41.9709 N.am      5 UNK        -0.5000 
     50 C           3.3169  -12.1248  -41.7887 C.2       4 UNK         0.5000 
     51 O           3.9606  -11.8110  -40.7857 O.2       4 UNK        -0.5000 
     52 CA          3.1126  -11.0704  -42.8921 C.3       4 UNK         0.1400 
     53 CB          4.2248  -11.1654  -43.9481 C.3       4 UNK        -0.1800 
     54 N           1.8097  -11.1523  -43.5476 N.am      4 UNK        -0.5000 
     55 C           0.6425  -10.8138  -42.9819 C.2       3 UNK         0.5000 
     56 O           0.5353  -10.4030  -41.8259 O.2       3 UNK        -0.5000 
     57 CA         -0.6183  -10.9566  -43.8543 C.3       3 UNK         0.1400 
     58 CB         -0.8932   -9.6638  -44.6383 C.3       3 UNK        -0.1800 
     59 N          -0.4994  -12.0783  -44.7857 N.am      3 UNK        -0.5000 
     60 C          -0.7451  -13.3515  -44.4479 C.2       2 UNK         0.5000 
     61 O          -1.2174  -13.6815  -43.3607 O.2       2 UNK        -0.5000 
     62 CA         -0.4033  -14.4404  -45.4853 C.3       2 UNK         0.1400 
     63 CB         -1.6635  -14.8976  -46.2351 C.3       2 UNK        -0.1800 
     64 N           0.6075  -14.0306  -46.4627 N.am      2 UNK        -0.5000 
     65 C           1.8994  -13.8235  -46.1739 C.2       1 UNK         0.5000 
     66 O           2.3643  -13.9148  -45.0392 O.2       1 UNK        -0.5000 
     67 C           0.1781  -22.2482  -47.3657 C.2       11 UNK         0.5000 
     68 O          -0.0423  -23.1760  -48.1447 O.2       11 UNK        -0.5000 
     69 N          -0.3881  -21.0370  -47.4668 N.am      12 UNK        -0.5000 
     70 CA         -1.3271  -20.6468  -48.5177 C.3       12 UNK         0.1400 
     71 CB         -1.6798  -19.1606  -48.3676 C.3       12 UNK        -0.1800 
     72 C          -2.6009  -21.5099  -48.5367 C.2       12 UNK         0.5000 
     73 O          -3.0165  -21.9675  -49.6024 O.2       12 UNK        -0.5000 
     74 N          -3.1730  -21.7453  -47.3481 N.am      13 UNK        -0.5000 
     75 CA         -4.3429  -22.5967  -47.1411 C.3       13 UNK         0.1400 
     76 CB         -4.8394  -22.4348  -45.6966 C.3       13 UNK        -0.1800 
     77 C          -4.0785  -24.0792  -47.4653 C.2       13 UNK         0.5000 
     78 O          -4.9433  -24.7288  -48.0530 O.2       13 UNK        -0.5000 
     79 N          -2.8964  -24.5850  -47.0862 N.am      14 UNK        -0.5000 
     80 CA         -2.4551  -25.9544  -47.3527 C.3       14 UNK         0.1400 
     81 CB         -1.2172  -26.2758  -46.5013 C.3       14 UNK        -0.1800 
     82 C          -2.1698  -26.2073  -48.8431 C.2       14 UNK         0.5000 
     83 O          -2.5440  -27.2618  -49.3582 O.2       14 UNK        -0.5000 
     84 N          -1.5211  -25.2404  -49.5072 N.am      15 UNK        -0.5000 
     85 CA         -1.2369  -25.2662  -50.9418 C.3       15 UNK         0.1400 
     86 CB         -0.2491  -24.1434  -51.2862 C.3       15 UNK        -0.1800 
     87 C          -2.5174  -25.1564  -51.7878 C.2       15 UNK         0.5000 
     88 O          -2.6974  -25.9428  -52.7192 O.2       15 UNK        -0.5000 
     89 N          -3.3900  -24.2069  -51.4192 N.am      16 UNK        -0.5000 
     90 CA         -4.7328  -23.9287  -51.9374 C.3       16 UNK         0.1400 
     91 CB         -5.6832  -25.1172  -51.6997 C.3       16 UNK        -0.1800 
     92 C          -4.7910  -23.4675  -53.4053 C.2       16 UNK         0.5000 
     93 O          -5.3886  -22.4288  -53.6826 O.2       16 UNK        -0.5000 
     94 N          -4.2161  -24.2557  -54.3209 N.am      17 UNK        -0.5000 
     95 CA         -4.2716  -24.1212  -55.7837 C.3       17 UNK         0.1400 
     96 CB         -3.5934  -22.8174  -56.2518 C.3       17 UNK        -0.1800 
     97 C          -5.6913  -24.2958  -56.3735 C.2       17 UNK         0.5000 
     98 O          -5.9449  -23.8403  -57.4891 O.2       17 UNK        -0.5000 
     99 N          -6.5732  -24.9718  -55.6192 N.am      18 UNK        -0.5000 
    100 CA        -7.9631  -25.3255  -55.9336 C.3       18 UNK         0.1400 
    101 CB        -7.9785  -26.4845  -56.9520 C.3       18 UNK        -0.1800 
    102 C         -8.8289  -24.1244  -56.3935 C.2       18 UNK         0.5000 
    103 O         -9.2089  -24.0651  -57.5632 O.2       18 UNK        -0.5000 
    104 N         -9.1489  -23.1541  -55.5265 N.am      19 UNK        -0.5000 
    105 CA        -8.8334  -23.0431  -54.1019 C.3       19 UNK         0.1400 
    106 CB        -9.8994  -23.7763  -53.2644 C.3       19 UNK        -0.1800 
    107 C         -8.7079  -21.5497  -53.7492 C.2       19 UNK         0.5000 
    108 O         -9.3455  -21.0683  -52.8120 O.2       19 UNK        -0.5000 
    109 N         -7.9070  -20.8320  -54.5470 N.am      20 UNK        -0.5000 
    110 CA        -7.6767  -19.3873  -54.4522 C.3       20 UNK         0.1400 
    111 CB        -7.0830  -18.9119  -55.7888 C.3       20 UNK        -0.1800 
    112 C         -6.7655  -18.9585  -53.2815 C.2       20 UNK         0.5000 
    113 O         -6.6387  -17.7585  -53.0368 O.2       20 UNK        -0.5000 
    114 N         -6.1336  -19.9326  -52.6117 N.am      21 UNK        -0.5000 
    115 CA        -5.0561  -19.7973  -51.6265 C.3       21 UNK         0.1400 
    116 CB        -5.4738  -18.9472  -50.4076 C.3       21 UNK        -0.1800 
    117 C         -3.7455  -19.3427  -52.2984 C.2       21 UNK         0.5000 
    118 O         -3.0514  -18.4738  -51.7692 O.2       21 UNK        -0.5000 
    119 N         -3.4566  -19.9625  -53.4559 N.am      22 UNK        -0.5000 
    120 CA        -2.2710  -19.7870  -54.3176 C.3       22 UNK         0.1400 
    121 C         -1.8843  -18.3106  -54.6537 C.2       22 UNK         0.5000 
    122 N         -0.6347  -18.0204  -54.9938 N.am      22 UNK        -0.7600 
    123 O         -2.7349  -17.4249  -54.7017 O.2       22 UNK        -0.5000 
    124 C124       -1.0945  -20.7383  -53.9321 C.3       23 UNK        -0.0398 
    125 S125       -0.5022  -20.5944  -52.2155 S.3       23 UNK        -0.2404 
    126 C126        1.1776  -19.9346  -52.4010 C.3       23 UNK        -0.0205 
    127 H127        0.1214   -9.9522  -48.4733 H         1 UNK         0.0600 
    128 H128        1.1468  -10.6230  -49.7459 H         1 UNK         0.0600 
    129 H129        1.7177   -9.2595  -48.7786 H         1 UNK         0.0600 
    130 H130        2.1112  -12.5451  -49.1434 H         1 UNK         0.3000 
    131 H131        3.6845  -12.9150  -46.8668 H         1 UNK         0.0600 
    132 H132        3.6810  -15.3817  -47.5479 H         1 UNK         0.0800 
    133 H133        4.2018  -14.2439  -48.7400 H         1 UNK         0.0800 
    134 H134        0.3264  -16.5840  -48.6656 H         1 UNK         0.0800 
    135 H135        1.6235  -16.6388  -47.5144 H         1 UNK         0.0800 
    136 H136        0.6615  -17.6961  -50.9668 H         1 UNK         0.1150 
    137 H137        2.9376  -21.3249  -50.8215 H         1 UNK         0.1150 
    138 H138        3.1760  -18.5096  -47.5951 H         1 UNK         0.1150 
    139 H139        4.9554  -21.1885  -49.1384 H         1 UNK         0.0800 
    140 H140        4.6762  -20.3824  -47.6196 H         1 UNK         0.0800 
    141 H141        2.3905  -20.7542  -46.4267 H         1 UNK         0.0800 
    142 H142        3.0978  -21.9993  -45.4398 H         1 UNK         0.0800 
    143 H143        1.2512  -23.5641  -46.0689 H         1 UNK         0.0600 
    144 H144        0.9509  -21.3570  -44.3575 H         1 UNK         0.3000 
    145 H145       -2.3722  -22.0195  -43.1782 H         1 UNK         0.0600 
    146 H146       -1.1429  -21.8569  -41.0250 H         1 UNK         0.0600 
    147 H147        0.3841  -22.1610  -41.8481 H         1 UNK         0.0600 
    148 H148       -0.8522  -23.4087  -41.7974 H         1 UNK         0.0600 
    149 H149       -0.5731  -19.9147  -42.5560 H         1 UNK         0.3000 
    150 H150       -1.5127  -17.6974  -45.2179 H         1 UNK         0.0600 
    151 H151       -3.1372  -17.2598  -43.4515 H         1 UNK         0.0600 
    152 H152       -1.7322  -16.2489  -43.1522 H         1 UNK         0.0600 
    153 H153       -1.9963  -17.6991  -42.1924 H         1 UNK         0.0600 
    154 H154        0.4462  -17.4940  -43.1381 H         1 UNK         0.3000 
    155 H155        3.0829  -19.1562  -44.9095 H         1 UNK         0.0600 
    156 H156        3.1609  -16.8243  -45.8108 H         1 UNK         0.0600 
    157 H157        4.3249  -17.0923  -44.5262 H         1 UNK         0.0600 
    158 H158        2.8410  -16.2092  -44.1945 H         1 UNK         0.0600 
    159 H159        2.7942  -17.7648  -42.3720 H         1 UNK         0.3000 
    160 H160        2.0001  -20.6668  -40.4931 H         1 UNK         0.0600 
    161 H161        4.6227  -19.0769  -40.6076 H         1 UNK         0.0600 
    162 H162        4.4833  -20.8272  -40.7241 H         1 UNK         0.0600 
    163 H163        4.0377  -20.0143  -39.2325 H         1 UNK         0.0600 
    164 H164        2.5746  -17.9507  -39.7777 H         1 UNK         0.3000 
    165 H165       -0.6376  -16.5830  -40.4014 H         1 UNK         0.0600 
    166 H166       -0.5950  -16.0630  -37.9762 H         1 UNK         0.0600 
    167 H167       -1.0136  -17.7500  -38.2268 H         1 UNK         0.0600 
    168 H168        0.6093  -17.3219  -37.6983 H         1 UNK         0.0600 
    169 H169        1.6965  -15.5846  -39.0740 H         1 UNK         0.3000 
    170 H170        2.9112  -14.0134  -39.9958 H         1 UNK         0.0600 
    171 H171        4.2835  -15.5807  -42.2544 H         1 UNK         0.0600 
    172 H172        5.0821  -14.5403  -41.0801 H         1 UNK         0.0600 
    173 H173        4.3204  -16.0306  -40.5526 H         1 UNK         0.0600 
    174 H174        2.2772  -13.5521  -42.8270 H         1 UNK         0.3000 
    175 H175        3.1847  -10.0870  -42.4228 H         1 UNK         0.0600 
    176 H176        4.2319  -12.1364  -44.4427 H         1 UNK         0.0600 
    177 H177        4.1088  -10.3993  -44.7151 H         1 UNK         0.0600 
    178 H178        5.2059  -11.0248  -43.4929 H         1 UNK         0.0600 
    179 H179        1.8124  -11.4382  -44.5195 H         1 UNK         0.3000 
    180 H180       -1.4678  -11.1276  -43.1894 H         1 UNK         0.0600 
    181 H181       -1.7982   -9.7522  -45.2394 H         1 UNK         0.0600 
    182 H182       -0.0705   -9.4084  -45.3061 H         1 UNK         0.0600 
    183 H183       -1.0348   -8.8219  -43.9595 H         1 UNK         0.0600 
    184 H184       -0.0793  -11.8814  -45.6834 H         1 UNK         0.3000 
    185 H185       -0.0059  -15.2931  -44.9319 H         1 UNK         0.0600 
    186 H186       -2.0854  -14.0937  -46.8393 H         1 UNK         0.0600 
    187 H187       -1.4465  -15.7376  -46.8954 H         1 UNK         0.0600 
    188 H188       -2.4367  -15.2245  -45.5388 H         1 UNK         0.0600 
    189 H189        0.2995  -13.9014  -47.4157 H         1 UNK         0.3000 
    190 H190       -0.1205  -20.3128  -46.8063 H         1 UNK         0.3000 
    191 H191       -0.8092  -20.7844  -49.4649 H         1 UNK         0.0600 
    192 H192       -2.2477  -18.8084  -49.2281 H         1 UNK         0.0600 
    193 H193       -0.7814  -18.5526  -48.2997 H         1 UNK         0.0600 
    194 H194       -2.2772  -18.9673  -47.4774 H         1 UNK         0.0600 
    195 H195       -2.7837  -21.2948  -46.5247 H         1 UNK         0.3000 
    196 H196       -5.1301  -22.2465  -47.8121 H         1 UNK         0.0600 
    197 H197       -5.0970  -21.3974  -45.4824 H         1 UNK         0.0600 
    198 H198       -4.0841  -22.7466  -44.9747 H         1 UNK         0.0600 
    199 H199       -5.7320  -23.0361  -45.5201 H         1 UNK         0.0600 
    200 H200       -2.2610  -24.0017  -46.5486 H         1 UNK         0.3000 
    201 H201       -3.2564  -26.6313  -47.0490 H         1 UNK         0.0600 
    202 H202       -1.4397  -26.1935  -45.4373 H         1 UNK         0.0600 
    203 H203       -0.3896  -25.6010  -46.7228 H         1 UNK         0.0600 
    204 H204       -0.8703  -27.2937  -46.6829 H         1 UNK         0.0600 
    205 H205       -1.1913  -24.4268  -48.9927 H         1 UNK         0.3000 
    206 H206       -0.7616  -26.2202  -51.1791 H         1 UNK         0.0600 
    207 H207       -0.6256  -23.1751  -50.9579 H         1 UNK         0.0600 
    208 H208        0.7135  -24.3032  -50.8001 H         1 UNK         0.0600 
    209 H209       -0.0695  -24.0851  -52.3604 H         1 UNK         0.0600 
    210 H210       -3.1057  -23.5810  -50.6693 H         1 UNK         0.3000 
    211 H211       -5.1067  -23.1018  -51.3337 H         1 UNK         0.0600 
    212 H212       -5.3832  -26.0035  -52.2594 H         1 UNK         0.0600 
    213 H213       -6.7024  -24.8697  -51.9989 H         1 UNK         0.0600 
    214 H214       -5.7138  -25.3876  -50.6442 H         1 UNK         0.0600 
    215 H215       -3.7080  -25.0640  -53.9651 H         1 UNK         0.3000 
    216 H216       -3.6850  -24.9515  -56.1792 H         1 UNK         0.0600 
    217 H217       -3.4994  -22.7934  -57.3380 H         1 UNK         0.0600 
    218 H218       -2.5874  -22.7314  -55.8445 H         1 UNK         0.0600 
    219 H219       -4.1610  -21.9350  -55.9575 H         1 UNK         0.0600 
    220 H220       -6.2374  -25.3018  -54.7267 H         1 UNK         0.3000 
    221 H221       -8.4060  -25.7082  -55.0145 H         1 UNK         0.0600 
    222 H222       -7.5225  -26.1980  -57.9004 H         1 UNK         0.0600 
    223 H223       -7.4377  -27.3505  -56.5705 H         1 UNK         0.0600 
    224 H224       -8.9989  -26.8073  -57.1623 H         1 UNK         0.0600 
    225 H225       -9.6841  -22.3750  -55.8837 H         1 UNK         0.3000 
    226 H226       -7.8637  -23.4882  -53.8875 H         1 UNK         0.0600 
    227 H227       -9.9568  -24.8346  -53.5151 H         1 UNK         0.0600 
    228 H228       -9.6713  -23.7111  -52.1997 H         1 UNK         0.0600 
    229 H229      -10.8905  -23.3466  -53.4153 H         1 UNK         0.0600 
    230 H230       -7.4049  -21.3167  -55.2774 H         1 UNK         0.3000 
    231 H231       -8.6403  -18.8937  -54.3101 H         1 UNK         0.0600 
    232 H232       -6.9355  -17.8311  -55.7918 H         1 UNK         0.0600 
    233 H233       -7.7444  -19.1490  -56.6223 H         1 UNK         0.0600 
    234 H234       -6.1147  -19.3750  -55.9844 H         1 UNK         0.0600 
    235 H235       -6.2673  -20.8777  -52.9579 H         1 UNK         0.3000 
    236 H236       -4.8637  -20.8025  -51.2541 H         1 UNK         0.0600 
    237 H237       -5.5750  -17.8913  -50.6580 H         1 UNK         0.0600 
    238 H238       -6.4223  -19.2896  -49.9942 H         1 UNK         0.0600 
    239 H239       -4.7292  -19.0215  -49.6145 H         1 UNK         0.0600 
    240 H240       -4.1248  -20.6487  -53.7815 H         1 UNK         0.3000 
    241 H241       -2.6174  -20.1460  -55.2865 H         1 UNK         0.0600 
    242 H242       -0.4107  -17.0690  -55.2408 H         1 UNK         0.3800 
    243 H243        0.0873  -18.7203  -55.0237 H         1 UNK         0.3800 
    244 H244       -1.4346  -21.7683  -54.0400 H         1 UNK         0.0800 
    245 H245       -0.2596  -20.6491  -54.6275 H         1 UNK         0.0800 
    246 H246        1.8104  -20.6777  -52.8885 H         1 UNK         0.0800 
    247 H247        1.1624  -19.0575  -53.0481 H         1 UNK         0.0800 
@<TRIPOS>BOND
     1    1    2 1    
     2    1  127 1    
     3    1  128 1    
     4    1  129 1    
     5    2    3 2    
     6    2    4 am   BACKBONE|DICT|INTERRES
     7    4    5 1    
     8    4  130 1    
     9    5    6 1    
    10    5   65 1    
    11    5  131 1    
    12    6    7 1    
    13    6  132 1    
    14    6  133 1    
    15    7    8 1    
    16    8    9 1    
    17    8  134 1    
    18    8  135 1    
    19    9   10 ar   
    20    9   14 ar   
    21   10   11 ar   
    22   10  136 1    
    23   11   12 ar   
    24   11  126 1    
    25   12   13 ar   
    26   12  137 1    
    27   13   14 ar   
    28   13   15 1    
    29   14  138 1    
    30   15   16 1    
    31   15  139 1    
    32   15  140 1    
    33   16   17 1    
    34   17   18 1    
    35   17  141 1    
    36   17  142 1    
    37   18   19 1    
    38   18   67 1    
    39   18  143 1    
    40   19   20 am   BACKBONE|DICT|INTERRES
    41   19  144 1    
    42   20   21 2    
    43   20   22 1    
    44   22   23 1    
    45   22   24 1    
    46   22  145 1    
    47   23  146 1    
    48   23  147 1    
    49   23  148 1    
    50   24   25 am   BACKBONE|DICT|INTERRES
    51   24  149 1    
    52   25   26 2    
    53   25   27 1    
    54   27   28 1    
    55   27   29 1    
    56   27  150 1    
    57   28  151 1    
    58   28  152 1    
    59   28  153 1    
    60   29   30 am   BACKBONE|DICT|INTERRES
    61   29  154 1    
    62   30   31 2    
    63   30   32 1    
    64   32   33 1    
    65   32   34 1    
    66   32  155 1    
    67   33  156 1    
    68   33  157 1    
    69   33  158 1    
    70   34   35 am   BACKBONE|DICT|INTERRES
    71   34  159 1    
    72   35   36 2    
    73   35   37 1    
    74   37   38 1    
    75   37   39 1    
    76   37  160 1    
    77   38  161 1    
    78   38  162 1    
    79   38  163 1    
    80   39   40 am   BACKBONE|DICT|INTERRES
    81   39  164 1    
    82   40   41 2    
    83   40   42 1    
    84   42   43 1    
    85   42   44 1    
    86   42  165 1    
    87   43  166 1    
    88   43  167 1    
    89   43  168 1    
    90   44   45 am   BACKBONE|DICT|INTERRES
    91   44  169 1    
    92   45   46 2    
    93   45   47 1    
    94   47   48 1    
    95   47   49 1    
    96   47  170 1    
    97   48  171 1    
    98   48  172 1    
    99   48  173 1    
   100   49   50 am   BACKBONE|DICT|INTERRES
   101   49  174 1    
   102   50   51 2    
   103   50   52 1    
   104   52   53 1    
   105   52   54 1    
   106   52  175 1    
   107   53  176 1    
   108   53  177 1    
   109   53  178 1    
   110   54   55 am   BACKBONE|DICT|INTERRES
   111   54  179 1    
   112   55   56 2    
   113   55   57 1    
   114   57   58 1    
   115   57   59 1    
   116   57  180 1    
   117   58  181 1    
   118   58  182 1    
   119   58  183 1    
   120   59   60 am   BACKBONE|DICT|INTERRES
   121   59  184 1    
   122   60   61 2    
   123   60   62 1    
   124   62   63 1    
   125   62   64 1    
   126   62  185 1    
   127   63  186 1    
   128   63  187 1    
   129   63  188 1    
   130   64   65 am   BACKBONE|DICT|INTERRES
   131   64  189 1    
   132   65   66 2    
   133   67   68 2    
   134   67   69 am   BACKBONE|DICT|INTERRES
   135   69   70 1    
   136   69  190 1    
   137   70   71 1    
   138   70   72 1    
   139   70  191 1    
   140   71  192 1    
   141   71  193 1    
   142   71  194 1    
   143   72   73 2    
   144   72   74 am   BACKBONE|DICT|INTERRES
   145   74   75 1    
   146   74  195 1    
   147   75   76 1    
   148   75   77 1    
   149   75  196 1    
   150   76  197 1    
   151   76  198 1    
   152   76  199 1    
   153   77   78 2    
   154   77   79 am   BACKBONE|DICT|INTERRES
   155   79   80 1    
   156   79  200 1    
   157   80   81 1    
   158   80   82 1    
   159   80  201 1    
   160   81  202 1    
   161   81  203 1    
   162   81  204 1    
   163   82   83 2    
   164   82   84 am   BACKBONE|DICT|INTERRES
   165   84   85 1    
   166   84  205 1    
   167   85   86 1    
   168   85   87 1    
   169   85  206 1    
   170   86  207 1    
   171   86  208 1    
   172   86  209 1    
   173   87   88 2    
   174   87   89 am   BACKBONE|DICT|INTERRES
   175   89   90 1    
   176   89  210 1    
   177   90   91 1    
   178   90   92 1    
   179   90  211 1    
   180   91  212 1    
   181   91  213 1    
   182   91  214 1    
   183   92   93 2    
   184   92   94 am   BACKBONE|DICT|INTERRES
   185   94   95 1    
   186   94  215 1    
   187   95   96 1    
   188   95   97 1    
   189   95  216 1    
   190   96  217 1    
   191   96  218 1    
   192   96  219 1    
   193   97   98 2    
   194   97   99 am   BACKBONE|DICT|INTERRES
   195   99  100 1    
   196   99  220 1    
   197  100  101 1    
   198  100  102 1    
   199  100  221 1    
   200  101  222 1    
   201  101  223 1    
   202  101  224 1    
   203  102  103 2    
   204  102  104 am   BACKBONE|DICT|INTERRES
   205  104  105 1    
   206  104  225 1    
   207  105  106 1    
   208  105  107 1    
   209  105  226 1    
   210  106  227 1    
   211  106  228 1    
   212  106  229 1    
   213  107  108 2    
   214  107  109 am   BACKBONE|DICT|INTERRES
   215  109  110 1    
   216  109  230 1    
   217  110  111 1    
   218  110  112 1    
   219  110  231 1    
   220  111  232 1    
   221  111  233 1    
   222  111  234 1    
   223  112  113 2    
   224  112  114 am   BACKBONE|DICT|INTERRES
   225  114  115 1    
   226  114  235 1    
   227  115  116 1    
   228  115  117 1    
   229  115  236 1    
   230  116  237 1    
   231  116  238 1    
   232  116  239 1    
   233  117  118 2    
   234  117  119 am   BACKBONE|DICT|INTERRES
   235  119  120 1    
   236  119  240 1    
   237  120  121 1    
   238  120  124 1    
   239  120  241 1    
   240  121  122 am   BACKBONE|DICT|INTERRES
   241  121  123 2    
   242  122  242 1    
   243  122  243 1    
   244  124  125 1    
   245  124  244 1    
   246  124  245 1    
   247  125  126 1    
   248  126  246 1    
   249  126  247 1    
@<TRIPOS>SUBSTRUCTURE
     1 UNK         1 GROUP             0       ****    0 ROOT    
