@<TRIPOS>MOLECULE
3R540
247   249    1
SMALL
USER_CHARGES


@<TRIPOS>ATOM
      1 CA         -3.1504  -16.9435  -47.6141 C.3       0 UNK        -0.1800 
      2 C          -2.4850  -15.7122  -48.2083 C.2       0 UNK         0.5000 
      3 O          -3.1111  -14.6551  -48.2905 O.2       0 UNK        -0.5000 
      4 N          -1.2171  -15.8447  -48.6157 N.am      1 UNK        -0.5000 
      5 CA         -0.3618  -14.7430  -49.0715 C.3       1 UNK         0.1400 
      6 C6          0.9050  -15.2724  -49.7851 C.3       23 UNK        -0.0398 
      7 S7          0.5036  -15.9705  -51.4198 S.3       23 UNK        -0.2404 
      8 C8          2.1246  -16.6159  -51.9290 C.3       23 UNK        -0.0205 
      9 C9          2.2329  -18.1139  -51.6923 C.ar      23 UNK        -0.0193 
     10 C10         1.9082  -19.0026  -52.7216 C.ar      23 UNK        -0.1150 
     11 C11         2.0499  -20.3849  -52.5471 C.ar      23 UNK        -0.0193 
     12 C12         2.5077  -20.8608  -51.3148 C.ar      23 UNK        -0.1150 
     13 C13         2.8187  -19.9897  -50.2667 C.ar      23 UNK        -0.0193 
     14 C14         2.6884  -18.6113  -50.4676 C.ar      23 UNK        -0.1150 
     15 C15         3.3362  -20.5626  -48.9476 C.3       23 UNK        -0.0205 
     16 S16         2.6261  -19.8047  -47.4442 S.3       23 UNK        -0.2404 
     17 C17         0.8382  -20.0645  -47.6792 C.3       23 UNK        -0.0398 
     18 CA          0.3204  -21.4301  -47.1692 C.3       11 UNK         0.1400 
     19 N           0.4043  -21.5705  -45.7121 N.am      11 UNK        -0.5000 
     20 C           0.1260  -22.6959  -45.0379 C.2       10 UNK         0.5000 
     21 O          -0.1922  -23.7546  -45.5784 O.2       10 UNK        -0.5000 
     22 CA          0.1427  -22.6178  -43.5012 C.3       10 UNK         0.1400 
     23 CB          1.5785  -22.6510  -42.9572 C.3       10 UNK        -0.1800 
     24 N          -0.5656  -21.4420  -42.9935 N.am      10 UNK        -0.5000 
     25 C          -1.8785  -21.2248  -43.1624 C.2       9 UNK         0.5000 
     26 O          -2.6340  -22.0169  -43.7251 O.2       9 UNK        -0.5000 
     27 CA         -2.4391  -19.8831  -42.6584 C.3       9 UNK         0.1400 
     28 CB         -2.6955  -19.9337  -41.1451 C.3       9 UNK        -0.1800 
     29 N          -1.5715  -18.7491  -42.9758 N.am      9 UNK        -0.5000 
     30 C          -1.2596  -18.3553  -44.2199 C.2       8 UNK         0.5000 
     31 O          -1.7037  -18.8822  -45.2396 O.2       8 UNK        -0.5000 
     32 CA         -0.2252  -17.2237  -44.3445 C.3       8 UNK         0.1400 
     33 CB         -0.8615  -15.8623  -44.0285 C.3       8 UNK        -0.1800 
     34 N           0.9299  -17.4335  -43.4736 N.am      8 UNK        -0.5000 
     35 C           1.7480  -18.4932  -43.5128 C.2       7 UNK         0.5000 
     36 O           1.6392  -19.4123  -44.3207 O.2       7 UNK        -0.5000 
     37 CA          2.8293  -18.5701  -42.4238 C.3       7 UNK         0.1400 
     38 CB          4.0231  -17.6624  -42.7572 C.3       7 UNK        -0.1800 
     39 N           2.2948  -18.2236  -41.1076 N.am      7 UNK        -0.5000 
     40 C           1.4384  -18.9862  -40.4142 C.2       6 UNK         0.5000 
     41 O           1.0317  -20.0823  -40.7997 O.2       6 UNK        -0.5000 
     42 CA          0.9302  -18.4125  -39.0786 C.3       6 UNK         0.1400 
     43 CB          1.9362  -18.6907  -37.9517 C.3       6 UNK        -0.1800 
     44 N           0.6616  -16.9748  -39.1452 N.am      6 UNK        -0.5000 
     45 C          -0.3356  -16.4299  -39.8553 C.2       5 UNK         0.5000 
     46 O          -1.1403  -17.0846  -40.5185 O.2       5 UNK        -0.5000 
     47 CA         -0.4193  -14.8905  -39.8634 C.3       5 UNK         0.1400 
     48 CB         -1.1319  -14.3825  -38.6009 C.3       5 UNK        -0.1800 
     49 N           0.8706  -14.2012  -40.0060 N.am      5 UNK        -0.5000 
     50 C           1.7464  -14.4156  -40.9965 C.2       4 UNK         0.5000 
     51 O           1.6344  -15.3279  -41.8157 O.2       4 UNK        -0.5000 
     52 CA          2.9634  -13.4741  -41.0885 C.3       4 UNK         0.1400 
     53 CB          4.1051  -13.9943  -40.2021 C.3       4 UNK        -0.1800 
     54 N           3.4430  -13.3798  -42.4713 N.am      4 UNK        -0.5000 
     55 C           2.7287  -12.8636  -43.4811 C.2       3 UNK         0.5000 
     56 O           1.6972  -12.2068  -43.3082 O.2       3 UNK        -0.5000 
     57 CA          3.2373  -13.1578  -44.9094 C.3       3 UNK         0.1400 
     58 CB          3.5973  -14.6448  -45.0955 C.3       3 UNK        -0.1800 
     59 N           2.2012  -12.8264  -45.8823 N.am      3 UNK        -0.5000 
     60 C           2.0448  -11.6592  -46.5097 C.2       2 UNK         0.5000 
     61 O           2.8806  -10.7535  -46.4755 O.2       2 UNK        -0.5000 
     62 CA          0.7218  -11.4787  -47.2939 C.3       2 UNK         0.1400 
     63 CB          0.6726  -10.1500  -48.0706 C.3       2 UNK        -0.1800 
     64 N           0.4067  -12.5712  -48.2237 N.am      2 UNK        -0.5000 
     65 C           0.0124  -13.8105  -47.8980 C.2       1 UNK         0.5000 
     66 O          -0.0457  -14.2225  -46.7370 O.2       1 UNK        -0.5000 
     67 C          -1.1098  -21.6771  -47.6925 C.2       11 UNK         0.5000 
     68 O          -1.2704  -22.3551  -48.7072 O.2       11 UNK        -0.5000 
     69 N          -2.1248  -21.1413  -47.0006 N.am      12 UNK        -0.5000 
     70 CA         -3.5353  -21.3450  -47.3330 C.3       12 UNK         0.1400 
     71 CB         -4.4153  -20.4322  -46.4666 C.3       12 UNK        -0.1800 
     72 C          -3.9717  -22.8133  -47.1918 C.2       12 UNK         0.5000 
     73 O          -4.6668  -23.3262  -48.0683 O.2       12 UNK        -0.5000 
     74 N          -3.5458  -23.4624  -46.1012 N.am      13 UNK        -0.5000 
     75 CA         -3.8675  -24.8520  -45.7923 C.3       13 UNK         0.1400 
     76 CB         -3.5512  -25.1323  -44.3145 C.3       13 UNK        -0.1800 
     77 C          -3.1429  -25.8572  -46.7038 C.2       13 UNK         0.5000 
     78 O          -3.7920  -26.7406  -47.2655 O.2       13 UNK        -0.5000 
     79 N          -1.8134  -25.7329  -46.8059 N.am      14 UNK        -0.5000 
     80 CA         -0.9575  -26.7373  -47.4366 C.3       14 UNK         0.1400 
     81 CB          0.4127  -26.7424  -46.7403 C.3       14 UNK        -0.1800 
     82 C          -0.7768  -26.5303  -48.9475 C.2       14 UNK         0.5000 
     83 O          -0.6535  -27.5201  -49.6706 O.2       14 UNK        -0.5000 
     84 N          -0.7260  -25.2691  -49.3956 N.am      15 UNK        -0.5000 
     85 CA         -0.3323  -24.9024  -50.7595 C.3       15 UNK         0.1400 
     86 CB          0.9356  -24.0391  -50.6802 C.3       15 UNK        -0.1800 
     87 C          -1.4479  -24.1890  -51.5443 C.2       15 UNK         0.5000 
     88 O          -1.2247  -23.8323  -52.7015 O.2       15 UNK        -0.5000 
     89 N          -2.6207  -24.0025  -50.9201 N.am      16 UNK        -0.5000 
     90 CA         -3.8244  -23.3729  -51.4732 C.3       16 UNK         0.1400 
     91 CB         -4.4154  -24.2378  -52.6062 C.3       16 UNK        -0.1800 
     92 C          -3.6206  -21.8968  -51.8800 C.2       16 UNK         0.5000 
     93 O          -4.2141  -21.4369  -52.8595 O.2       16 UNK        -0.5000 
     94 N          -2.7905  -21.1674  -51.1208 N.am      17 UNK        -0.5000 
     95 CA         -2.5722  -19.7330  -51.3050 C.3       17 UNK         0.1400 
     96 CB         -1.4031  -19.2617  -50.4394 C.3       17 UNK        -0.1800 
     97 C          -3.8443  -18.9240  -51.0103 C.2       17 UNK         0.5000 
     98 O          -4.4185  -19.0663  -49.9305 O.2       17 UNK        -0.5000 
     99 N          -4.2687  -18.1239  -51.9967 N.am      18 UNK        -0.5000 
    100 CA        -5.4804  -17.2976  -52.0212 C.3       18 UNK         0.1400 
    101 CB        -5.4363  -16.2169  -50.9216 C.3       18 UNK        -0.1800 
    102 C         -6.7989  -18.1040  -51.9966 C.2       18 UNK         0.5000 
    103 O         -7.8663  -17.5096  -51.8414 O.2       18 UNK        -0.5000 
    104 N         -6.7224  -19.4277  -52.1919 N.am      19 UNK        -0.5000 
    105 CA        -7.8547  -20.3549  -52.1984 C.3       19 UNK         0.1400 
    106 CB        -7.4828  -21.5934  -51.3634 C.3       19 UNK        -0.1800 
    107 C         -8.2581  -20.7109  -53.6430 C.2       19 UNK         0.5000 
    108 O         -8.5634  -21.8693  -53.9307 O.2       19 UNK        -0.5000 
    109 N         -8.2291  -19.7023  -54.5291 N.am      20 UNK        -0.5000 
    110 CA        -8.4944  -19.7726  -55.9719 C.3       20 UNK         0.1400 
    111 CB        -9.9744  -20.1172  -56.2424 C.3       20 UNK        -0.1800 
    112 C         -7.5087  -20.6970  -56.7208 C.2       20 UNK         0.5000 
    113 O         -7.8999  -21.3885  -57.6636 O.2       20 UNK        -0.5000 
    114 N         -6.2447  -20.6902  -56.2811 N.am      21 UNK        -0.5000 
    115 CA        -5.1629  -21.5017  -56.8230 C.3       21 UNK         0.1400 
    116 CB        -5.0888  -22.8462  -56.0743 C.3       21 UNK        -0.1800 
    117 C         -3.8640  -20.6845  -56.7845 C.2       21 UNK         0.5000 
    118 O         -3.6143  -19.9226  -57.7202 O.2       21 UNK        -0.5000 
    119 N         -3.0601  -20.8505  -55.7270 N.am      22 UNK        -0.5000 
    120 CA        -1.7771  -20.1532  -55.5501 C.3       22 UNK         0.1400 
    121 C         -1.9457  -18.6882  -55.0538 C.2       22 UNK         0.5000 
    122 N         -0.9259  -17.8559  -55.2044 N.am      22 UNK        -0.7600 
    123 O         -2.9781  -18.3016  -54.5089 O.2       22 UNK        -0.5000 
    124 C124       -0.8090  -20.9793  -54.6598 C.3       23 UNK        -0.0398 
    125 S125        0.9350  -20.7799  -55.1516 S.3       23 UNK        -0.2404 
    126 C126        1.7902  -21.4020  -53.6628 C.3       23 UNK        -0.0205 
    127 H127       -3.2885  -16.8129  -46.5410 H         1 UNK         0.0600 
    128 H128       -4.1290  -17.1023  -48.0650 H         1 UNK         0.0600 
    129 H129       -2.5551  -17.8427  -47.7721 H         1 UNK         0.0600 
    130 H130       -0.7554  -16.7342  -48.5076 H         1 UNK         0.3000 
    131 H131       -0.9366  -14.1447  -49.7822 H         1 UNK         0.0600 
    132 H132        1.6294  -14.4720  -49.9472 H         1 UNK         0.0800 
    133 H133        1.4087  -16.0253  -49.1764 H         1 UNK         0.0800 
    134 H134        2.9271  -16.0911  -51.4085 H         1 UNK         0.0800 
    135 H135        2.2655  -16.3989  -52.9889 H         1 UNK         0.0800 
    136 H136        1.5713  -18.6009  -53.6652 H         1 UNK         0.1150 
    137 H137        2.6487  -21.9226  -51.1787 H         1 UNK         0.1150 
    138 H138        2.9498  -17.9261  -49.6741 H         1 UNK         0.1150 
    139 H139        3.1534  -21.6374  -48.9017 H         1 UNK         0.0800 
    140 H140        4.4190  -20.4362  -48.9197 H         1 UNK         0.0800 
    141 H141        0.6310  -19.9482  -48.7397 H         1 UNK         0.0800 
    142 H142        0.3111  -19.2501  -47.1796 H         1 UNK         0.0800 
    143 H143        0.9495  -22.2103  -47.6028 H         1 UNK         0.0600 
    144 H144        0.7090  -20.7483  -45.1938 H         1 UNK         0.3000 
    145 H145       -0.3760  -23.5011  -43.1229 H         1 UNK         0.0600 
    146 H146        1.5860  -22.6679  -41.8673 H         1 UNK         0.0600 
    147 H147        2.1033  -23.5434  -43.3002 H         1 UNK         0.0600 
    148 H148        2.1571  -21.7868  -43.2816 H         1 UNK         0.0600 
    149 H149       -0.0120  -20.7574  -42.4907 H         1 UNK         0.3000 
    150 H150       -3.3955  -19.7167  -43.1582 H         1 UNK         0.0600 
    151 H151       -3.3454  -20.7705  -40.8861 H         1 UNK         0.0600 
    152 H152       -3.1843  -19.0231  -40.7985 H         1 UNK         0.0600 
    153 H153       -1.7685  -20.0499  -40.5828 H         1 UNK         0.0600 
    154 H154       -1.1866  -18.2381  -42.1878 H         1 UNK         0.3000 
    155 H155        0.1347  -17.2040  -45.3753 H         1 UNK         0.0600 
    156 H156       -1.2602  -15.8264  -43.0146 H         1 UNK         0.0600 
    157 H157       -1.6808  -15.6467  -44.7153 H         1 UNK         0.0600 
    158 H158       -0.1342  -15.0559  -44.1265 H         1 UNK         0.0600 
    159 H159        1.1172  -16.7056  -42.7850 H         1 UNK         0.3000 
    160 H160        3.1906  -19.6000  -42.3858 H         1 UNK         0.0600 
    161 H161        4.8278  -17.7897  -42.0331 H         1 UNK         0.0600 
    162 H162        3.7436  -16.6096  -42.7629 H         1 UNK         0.0600 
    163 H163        4.4296  -17.8991  -43.7413 H         1 UNK         0.0600 
    164 H164        2.5102  -17.3006  -40.7606 H         1 UNK         0.3000 
    165 H165       -0.0040  -18.9225  -38.8334 H         1 UNK         0.0600 
    166 H166        1.5497  -18.3595  -36.9877 H         1 UNK         0.0600 
    167 H167        2.1426  -19.7587  -37.8684 H         1 UNK         0.0600 
    168 H168        2.8870  -18.1850  -38.1246 H         1 UNK         0.0600 
    169 H169        1.2851  -16.3639  -38.6385 H         1 UNK         0.3000 
    170 H170       -1.0262  -14.6095  -40.7265 H         1 UNK         0.0600 
    171 H171       -2.1018  -14.8664  -38.4777 H         1 UNK         0.0600 
    172 H172       -0.5487  -14.5817  -37.7011 H         1 UNK         0.0600 
    173 H173       -1.3118  -13.3086  -38.6540 H         1 UNK         0.0600 
    174 H174        1.0457  -13.4466  -39.3582 H         1 UNK         0.3000 
    175 H175        2.6697  -12.4782  -40.7506 H         1 UNK         0.0600 
    176 H176        4.4293  -14.9908  -40.5056 H         1 UNK         0.0600 
    177 H177        4.9704  -13.3325  -40.2450 H         1 UNK         0.0600 
    178 H178        3.7953  -14.0538  -39.1580 H         1 UNK         0.0600 
    179 H179        4.2682  -13.9166  -42.6909 H         1 UNK         0.3000 
    180 H180        4.1280  -12.5522  -45.0877 H         1 UNK         0.0600 
    181 H181        2.7691  -15.2969  -44.8127 H         1 UNK         0.0600 
    182 H182        4.4628  -14.9257  -44.4953 H         1 UNK         0.0600 
    183 H183        3.8494  -14.8615  -46.1339 H         1 UNK         0.0600 
    184 H184        1.4314  -13.4876  -45.9588 H         1 UNK         0.3000 
    185 H185       -0.0720  -11.4448  -46.5446 H         1 UNK         0.0600 
    186 H186        0.8281   -9.2992  -47.4059 H         1 UNK         0.0600 
    187 H187        1.4402  -10.1084  -48.8444 H         1 UNK         0.0600 
    188 H188       -0.2963  -10.0079  -48.5499 H         1 UNK         0.0600 
    189 H189        0.4585  -12.3278  -49.2024 H         1 UNK         0.3000 
    190 H190       -1.9249  -20.5401  -46.2054 H         1 UNK         0.3000 
    191 H191       -3.6775  -21.0592  -48.3757 H         1 UNK         0.0600 
    192 H192       -4.3016  -20.6484  -45.4044 H         1 UNK         0.0600 
    193 H193       -5.4694  -20.5549  -46.7180 H         1 UNK         0.0600 
    194 H194       -4.1672  -19.3836  -46.6215 H         1 UNK         0.0600 
    195 H195       -3.0111  -22.9525  -45.4035 H         1 UNK         0.3000 
    196 H196       -4.9415  -24.9903  -45.9343 H         1 UNK         0.0600 
    197 H197       -3.7797  -26.1663  -44.0533 H         1 UNK         0.0600 
    198 H198       -4.1421  -24.4928  -43.6586 H         1 UNK         0.0600 
    199 H199       -2.4985  -24.9589  -44.0868 H         1 UNK         0.0600 
    200 H200       -1.3394  -24.9706  -46.3238 H         1 UNK         0.3000 
    201 H201       -1.4000  -27.7252  -47.2894 H         1 UNK         0.0600 
    202 H202        0.3105  -26.9043  -45.6671 H         1 UNK         0.0600 
    203 H203        0.9448  -25.8020  -46.8884 H         1 UNK         0.0600 
    204 H204        1.0455  -27.5401  -47.1313 H         1 UNK         0.0600 
    205 H205       -0.8633  -24.5000  -48.7506 H         1 UNK         0.3000 
    206 H206       -0.0817  -25.7935  -51.3381 H         1 UNK         0.0600 
    207 H207        1.7027  -24.5138  -50.0683 H         1 UNK         0.0600 
    208 H208        1.3627  -23.8953  -51.6718 H         1 UNK         0.0600 
    209 H209        0.7296  -23.0556  -50.2581 H         1 UNK         0.0600 
    210 H210       -2.6880  -24.3034  -49.9582 H         1 UNK         0.3000 
    211 H211       -4.5585  -23.3571  -50.6684 H         1 UNK         0.0600 
    212 H212       -3.7729  -24.2471  -53.4870 H         1 UNK         0.0600 
    213 H213       -5.3922  -23.8668  -52.9167 H         1 UNK         0.0600 
    214 H214       -4.5536  -25.2692  -52.2822 H         1 UNK         0.0600 
    215 H215       -2.3272  -21.6109  -50.3351 H         1 UNK         0.3000 
    216 H216       -2.2931  -19.5692  -52.3422 H         1 UNK         0.0600 
    217 H217       -1.2106  -18.2010  -50.5961 H         1 UNK         0.0600 
    218 H218       -0.4912  -19.7999  -50.6974 H         1 UNK         0.0600 
    219 H219       -1.6107  -19.4020  -49.3802 H         1 UNK         0.0600 
    220 H220       -3.7464  -18.1299  -52.8731 H         1 UNK         0.3000 
    221 H221       -5.4631  -16.7848  -52.9838 H         1 UNK         0.0600 
    222 H222       -5.5719  -16.6447  -49.9285 H         1 UNK         0.0600 
    223 H223       -4.4879  -15.6794  -50.9299 H         1 UNK         0.0600 
    224 H224       -6.2272  -15.4802  -51.0661 H         1 UNK         0.0600 
    225 H225       -5.8113  -19.8399  -52.3515 H         1 UNK         0.3000 
    226 H226       -8.7246  -19.8912  -51.7292 H         1 UNK         0.0600 
    227 H227       -7.1527  -21.3123  -50.3629 H         1 UNK         0.0600 
    228 H228       -8.3384  -22.2598  -51.2483 H         1 UNK         0.0600 
    229 H229       -6.6831  -22.1656  -51.8311 H         1 UNK         0.0600 
    230 H230       -7.9758  -18.7898  -54.1772 H         1 UNK         0.3000 
    231 H231       -8.3178  -18.7695  -56.3625 H         1 UNK         0.0600 
    232 H232      -10.6408  -19.4401  -55.7080 H         1 UNK         0.0600 
    233 H233      -10.2166  -21.1359  -55.9385 H         1 UNK         0.0600 
    234 H234      -10.2085  -20.0293  -57.3039 H         1 UNK         0.0600 
    235 H235       -5.9957  -20.0732  -55.5209 H         1 UNK         0.3000 
    236 H236       -5.3539  -21.7162  -57.8768 H         1 UNK         0.0600 
    237 H237       -4.2128  -23.4222  -56.3751 H         1 UNK         0.0600 
    238 H238       -5.0456  -22.7037  -54.9965 H         1 UNK         0.0600 
    239 H239       -5.9667  -23.4567  -56.2860 H         1 UNK         0.0600 
    240 H240       -3.3833  -21.4052  -54.9440 H         1 UNK         0.3000 
    241 H241       -1.3311  -20.0865  -56.5448 H         1 UNK         0.0600 
    242 H242       -1.0164  -16.9062  -54.8803 H         1 UNK         0.3800 
    243 H243       -0.0668  -18.1548  -55.6388 H         1 UNK         0.3800 
    244 H244       -0.9209  -20.7471  -53.6017 H         1 UNK         0.0800 
    245 H245       -1.0317  -22.0435  -54.7508 H         1 UNK         0.0800 
    246 H246        1.2195  -22.2418  -53.2661 H         1 UNK         0.0800 
    247 H247        2.7532  -21.8070  -53.9762 H         1 UNK         0.0800 
@<TRIPOS>BOND
     1    1    2 1    
     2    1  127 1    
     3    1  128 1    
     4    1  129 1    
     5    2    3 2    
     6    2    4 am   BACKBONE|DICT|INTERRES
     7    4    5 1    
     8    4  130 1    
     9    5    6 1    
    10    5   65 1    
    11    5  131 1    
    12    6    7 1    
    13    6  132 1    
    14    6  133 1    
    15    7    8 1    
    16    8    9 1    
    17    8  134 1    
    18    8  135 1    
    19    9   10 ar   
    20    9   14 ar   
    21   10   11 ar   
    22   10  136 1    
    23   11   12 ar   
    24   11  126 1    
    25   12   13 ar   
    26   12  137 1    
    27   13   14 ar   
    28   13   15 1    
    29   14  138 1    
    30   15   16 1    
    31   15  139 1    
    32   15  140 1    
    33   16   17 1    
    34   17   18 1    
    35   17  141 1    
    36   17  142 1    
    37   18   19 1    
    38   18   67 1    
    39   18  143 1    
    40   19   20 am   BACKBONE|DICT|INTERRES
    41   19  144 1    
    42   20   21 2    
    43   20   22 1    
    44   22   23 1    
    45   22   24 1    
    46   22  145 1    
    47   23  146 1    
    48   23  147 1    
    49   23  148 1    
    50   24   25 am   BACKBONE|DICT|INTERRES
    51   24  149 1    
    52   25   26 2    
    53   25   27 1    
    54   27   28 1    
    55   27   29 1    
    56   27  150 1    
    57   28  151 1    
    58   28  152 1    
    59   28  153 1    
    60   29   30 am   BACKBONE|DICT|INTERRES
    61   29  154 1    
    62   30   31 2    
    63   30   32 1    
    64   32   33 1    
    65   32   34 1    
    66   32  155 1    
    67   33  156 1    
    68   33  157 1    
    69   33  158 1    
    70   34   35 am   BACKBONE|DICT|INTERRES
    71   34  159 1    
    72   35   36 2    
    73   35   37 1    
    74   37   38 1    
    75   37   39 1    
    76   37  160 1    
    77   38  161 1    
    78   38  162 1    
    79   38  163 1    
    80   39   40 am   BACKBONE|DICT|INTERRES
    81   39  164 1    
    82   40   41 2    
    83   40   42 1    
    84   42   43 1    
    85   42   44 1    
    86   42  165 1    
    87   43  166 1    
    88   43  167 1    
    89   43  168 1    
    90   44   45 am   BACKBONE|DICT|INTERRES
    91   44  169 1    
    92   45   46 2    
    93   45   47 1    
    94   47   48 1    
    95   47   49 1    
    96   47  170 1    
    97   48  171 1    
    98   48  172 1    
    99   48  173 1    
   100   49   50 am   BACKBONE|DICT|INTERRES
   101   49  174 1    
   102   50   51 2    
   103   50   52 1    
   104   52   53 1    
   105   52   54 1    
   106   52  175 1    
   107   53  176 1    
   108   53  177 1    
   109   53  178 1    
   110   54   55 am   BACKBONE|DICT|INTERRES
   111   54  179 1    
   112   55   56 2    
   113   55   57 1    
   114   57   58 1    
   115   57   59 1    
   116   57  180 1    
   117   58  181 1    
   118   58  182 1    
   119   58  183 1    
   120   59   60 am   BACKBONE|DICT|INTERRES
   121   59  184 1    
   122   60   61 2    
   123   60   62 1    
   124   62   63 1    
   125   62   64 1    
   126   62  185 1    
   127   63  186 1    
   128   63  187 1    
   129   63  188 1    
   130   64   65 am   BACKBONE|DICT|INTERRES
   131   64  189 1    
   132   65   66 2    
   133   67   68 2    
   134   67   69 am   BACKBONE|DICT|INTERRES
   135   69   70 1    
   136   69  190 1    
   137   70   71 1    
   138   70   72 1    
   139   70  191 1    
   140   71  192 1    
   141   71  193 1    
   142   71  194 1    
   143   72   73 2    
   144   72   74 am   BACKBONE|DICT|INTERRES
   145   74   75 1    
   146   74  195 1    
   147   75   76 1    
   148   75   77 1    
   149   75  196 1    
   150   76  197 1    
   151   76  198 1    
   152   76  199 1    
   153   77   78 2    
   154   77   79 am   BACKBONE|DICT|INTERRES
   155   79   80 1    
   156   79  200 1    
   157   80   81 1    
   158   80   82 1    
   159   80  201 1    
   160   81  202 1    
   161   81  203 1    
   162   81  204 1    
   163   82   83 2    
   164   82   84 am   BACKBONE|DICT|INTERRES
   165   84   85 1    
   166   84  205 1    
   167   85   86 1    
   168   85   87 1    
   169   85  206 1    
   170   86  207 1    
   171   86  208 1    
   172   86  209 1    
   173   87   88 2    
   174   87   89 am   BACKBONE|DICT|INTERRES
   175   89   90 1    
   176   89  210 1    
   177   90   91 1    
   178   90   92 1    
   179   90  211 1    
   180   91  212 1    
   181   91  213 1    
   182   91  214 1    
   183   92   93 2    
   184   92   94 am   BACKBONE|DICT|INTERRES
   185   94   95 1    
   186   94  215 1    
   187   95   96 1    
   188   95   97 1    
   189   95  216 1    
   190   96  217 1    
   191   96  218 1    
   192   96  219 1    
   193   97   98 2    
   194   97   99 am   BACKBONE|DICT|INTERRES
   195   99  100 1    
   196   99  220 1    
   197  100  101 1    
   198  100  102 1    
   199  100  221 1    
   200  101  222 1    
   201  101  223 1    
   202  101  224 1    
   203  102  103 2    
   204  102  104 am   BACKBONE|DICT|INTERRES
   205  104  105 1    
   206  104  225 1    
   207  105  106 1    
   208  105  107 1    
   209  105  226 1    
   210  106  227 1    
   211  106  228 1    
   212  106  229 1    
   213  107  108 2    
   214  107  109 am   BACKBONE|DICT|INTERRES
   215  109  110 1    
   216  109  230 1    
   217  110  111 1    
   218  110  112 1    
   219  110  231 1    
   220  111  232 1    
   221  111  233 1    
   222  111  234 1    
   223  112  113 2    
   224  112  114 am   BACKBONE|DICT|INTERRES
   225  114  115 1    
   226  114  235 1    
   227  115  116 1    
   228  115  117 1    
   229  115  236 1    
   230  116  237 1    
   231  116  238 1    
   232  116  239 1    
   233  117  118 2    
   234  117  119 am   BACKBONE|DICT|INTERRES
   235  119  120 1    
   236  119  240 1    
   237  120  121 1    
   238  120  124 1    
   239  120  241 1    
   240  121  122 am   BACKBONE|DICT|INTERRES
   241  121  123 2    
   242  122  242 1    
   243  122  243 1    
   244  124  125 1    
   245  124  244 1    
   246  124  245 1    
   247  125  126 1    
   248  126  246 1    
   249  126  247 1    
@<TRIPOS>SUBSTRUCTURE
     1 UNK         1 GROUP             0       ****    0 ROOT    
