@<TRIPOS>MOLECULE
3R540
247   249    1
SMALL
USER_CHARGES


@<TRIPOS>ATOM
      1 CA          0.5736   -9.8291  -48.5739 C.3       0 UNK        -0.1800 
      2 C           0.6212  -11.2904  -48.1527 C.2       0 UNK         0.5000 
      3 O           1.1947  -11.6068  -47.1110 O.2       0 UNK        -0.5000 
      4 N           0.0099  -12.1793  -48.9486 N.am      1 UNK        -0.5000 
      5 CA         -0.0586  -13.6258  -48.7040 C.3       1 UNK         0.1400 
      6 C6         -0.6745  -14.3752  -49.9140 C.3       23 UNK        -0.0398 
      7 S7         -0.2922  -16.1596  -49.9434 S.3       23 UNK        -0.2404 
      8 C8          1.1488  -16.1910  -51.0663 C.3       23 UNK        -0.0205 
      9 C9          1.7399  -17.5719  -51.3762 C.ar      23 UNK        -0.0193 
     10 C10         2.9108  -17.6188  -52.1415 C.ar      23 UNK        -0.1150 
     11 C11         3.4921  -18.8399  -52.4930 C.ar      23 UNK        -0.0193 
     12 C12         2.8886  -20.0293  -52.0826 C.ar      23 UNK        -0.1150 
     13 C13         1.7196  -20.0098  -51.3205 C.ar      23 UNK        -0.0193 
     14 C14         1.1575  -18.7798  -50.9559 C.ar      23 UNK        -0.1150 
     15 C15         1.0312  -21.3230  -50.9691 C.3       23 UNK        -0.0205 
     16 S16         1.9980  -22.3643  -49.8187 S.3       23 UNK        -0.2404 
     17 C17         1.6492  -21.5716  -48.2127 C.3       23 UNK        -0.0398 
     18 CA          0.5439  -22.2724  -47.3772 C.3       11 UNK         0.1400 
     19 N           0.4463  -21.7113  -46.0226 N.am      11 UNK        -0.5000 
     20 C          -0.3751  -22.1493  -45.0547 C.2       10 UNK         0.5000 
     21 O          -1.0773  -23.1513  -45.1561 O.2       10 UNK        -0.5000 
     22 CA         -0.5027  -21.2830  -43.7898 C.3       10 UNK         0.1400 
     23 CB          0.5833  -21.6159  -42.7552 C.3       10 UNK        -0.1800 
     24 N          -0.4759  -19.8590  -44.1141 N.am      10 UNK        -0.5000 
     25 C          -1.4599  -19.2170  -44.7619 C.2       9 UNK         0.5000 
     26 O          -2.5244  -19.7451  -45.0838 O.2       9 UNK        -0.5000 
     27 CA         -1.1848  -17.7540  -45.1519 C.3       9 UNK         0.1400 
     28 CB         -1.5530  -16.8231  -43.9938 C.3       9 UNK        -0.1800 
     29 N           0.2159  -17.5497  -45.5243 N.am      9 UNK        -0.5000 
     30 C           0.7498  -18.0354  -46.6532 C.2       8 UNK         0.5000 
     31 O           0.0961  -18.6613  -47.4870 O.2       8 UNK        -0.5000 
     32 CA          2.2712  -17.8792  -46.8528 C.3       8 UNK         0.1400 
     33 CB          2.6183  -16.6510  -47.6998 C.3       8 UNK        -0.1800 
     34 N           3.0279  -17.8384  -45.6014 N.am      8 UNK        -0.5000 
     35 C           3.1499  -18.8814  -44.7724 C.2       7 UNK         0.5000 
     36 O           2.5488  -19.9429  -44.9369 O.2       7 UNK        -0.5000 
     37 CA          4.1063  -18.7326  -43.5824 C.3       7 UNK         0.1400 
     38 CB          5.2688  -17.7534  -43.8381 C.3       7 UNK        -0.1800 
     39 N           3.3703  -18.3055  -42.3957 N.am      7 UNK        -0.5000 
     40 C           3.4797  -18.8845  -41.1922 C.2       6 UNK         0.5000 
     41 O           4.1352  -19.9083  -40.9908 O.2       6 UNK        -0.5000 
     42 CA          2.7860  -18.2083  -39.9926 C.3       6 UNK         0.1400 
     43 CB          3.8185  -17.8269  -38.9177 C.3       6 UNK        -0.1800 
     44 N           2.0436  -17.0007  -40.3549 N.am      6 UNK        -0.5000 
     45 C           0.7290  -16.9584  -40.5964 C.2       5 UNK         0.5000 
     46 O          -0.0032  -17.9481  -40.5926 O.2       5 UNK        -0.5000 
     47 CA          0.1300  -15.5695  -40.8905 C.3       5 UNK         0.1400 
     48 CB         -0.2187  -14.8562  -39.5752 C.3       5 UNK        -0.1800 
     49 N           0.9634  -14.6764  -41.7017 N.am      5 UNK        -0.5000 
     50 C           1.5650  -14.9451  -42.8688 C.2       4 UNK         0.5000 
     51 O           1.6241  -16.0676  -43.3780 O.2       4 UNK        -0.5000 
     52 CA          2.1739  -13.7259  -43.5906 C.3       4 UNK         0.1400 
     53 CB          3.0007  -14.1144  -44.8247 C.3       4 UNK        -0.1800 
     54 N           1.1231  -12.8005  -44.0115 N.am      4 UNK        -0.5000 
     55 C           0.5134  -11.9047  -43.2237 C.2       3 UNK         0.5000 
     56 O           0.8089  -11.7320  -42.0399 O.2       3 UNK        -0.5000 
     57 CA         -0.6339  -11.0875  -43.8458 C.3       3 UNK         0.1400 
     58 CB         -0.1183   -9.7418  -44.3783 C.3       3 UNK        -0.1800 
     59 N          -1.3199  -11.8068  -44.9211 N.am      3 UNK        -0.5000 
     60 C          -2.1820  -12.8152  -44.7259 C.2       2 UNK         0.5000 
     61 O          -2.5133  -13.2206  -43.6115 O.2       2 UNK        -0.5000 
     62 CA         -2.7838  -13.4829  -45.9791 C.3       2 UNK         0.1400 
     63 CB         -4.1886  -12.9283  -46.2600 C.3       2 UNK        -0.1800 
     64 N          -1.9634  -13.3275  -47.1829 N.am      2 UNK        -0.5000 
     65 C          -0.7899  -13.9447  -47.3818 C.2       1 UNK         0.5000 
     66 O          -0.2583  -14.6744  -46.5485 O.2       1 UNK        -0.5000 
     67 C          -0.8233  -22.2433  -48.0956 C.2       11 UNK         0.5000 
     68 O          -1.2805  -23.2775  -48.5836 O.2       11 UNK        -0.5000 
     69 N          -1.4591  -21.0633  -48.1152 N.am      12 UNK        -0.5000 
     70 CA         -2.7645  -20.8236  -48.7309 C.3       12 UNK         0.1400 
     71 CB         -3.0762  -19.3207  -48.6520 C.3       12 UNK        -0.1800 
     72 C          -3.8963  -21.6695  -48.1121 C.2       12 UNK         0.5000 
     73 O          -4.7659  -22.1489  -48.8425 O.2       12 UNK        -0.5000 
     74 N          -3.8462  -21.8625  -46.7867 N.am      13 UNK        -0.5000 
     75 CA         -4.7487  -22.7370  -46.0404 C.3       13 UNK         0.1400 
     76 CB         -4.6436  -22.4231  -44.5406 C.3       13 UNK        -0.1800 
     77 C          -4.4804  -24.2299  -46.3088 C.2       13 UNK         0.5000 
     78 O          -5.4262  -24.9773  -46.5594 O.2       13 UNK        -0.5000 
     79 N          -3.2030  -24.6383  -46.2681 N.am      14 UNK        -0.5000 
     80 CA         -2.7499  -26.0171  -46.4822 C.3       14 UNK         0.1400 
     81 CB         -1.2489  -26.1271  -46.1760 C.3       14 UNK        -0.1800 
     82 C          -3.0465  -26.5551  -47.8921 C.2       14 UNK         0.5000 
     83 O          -3.2590  -27.7590  -48.0471 O.2       14 UNK        -0.5000 
     84 N          -3.1040  -25.6593  -48.8857 N.am      15 UNK        -0.5000 
     85 CA         -3.5222  -25.9215  -50.2627 C.3       15 UNK         0.1400 
     86 CB         -3.0462  -24.7560  -51.1464 C.3       15 UNK        -0.1800 
     87 C          -5.0444  -26.1674  -50.3791 C.2       15 UNK         0.5000 
     88 O          -5.7347  -25.4468  -51.1008 O.2       15 UNK        -0.5000 
     89 N          -5.5456  -27.1671  -49.6382 N.am      16 UNK        -0.5000 
     90 CA         -6.9280  -27.6635  -49.5890 C.3       16 UNK         0.1400 
     91 CB         -7.2601  -28.4032  -50.9014 C.3       16 UNK        -0.1800 
     92 C          -7.9853  -26.5902  -49.2422 C.2       16 UNK         0.5000 
     93 O          -9.1457  -26.7289  -49.6334 O.2       16 UNK        -0.5000 
     94 N          -7.5601  -25.5254  -48.5444 N.am      17 UNK        -0.5000 
     95 CA         -8.3037  -24.2962  -48.2483 C.3       17 UNK         0.1400 
     96 CB         -9.4469  -24.5764  -47.2515 C.3       17 UNK        -0.1800 
     97 C          -8.7784  -23.5317  -49.5069 C.2       17 UNK         0.5000 
     98 O          -9.7232  -22.7454  -49.4216 O.2       17 UNK        -0.5000 
     99 N          -8.1168  -23.7578  -50.6525 N.am      18 UNK        -0.5000 
    100 CA        -8.4473  -23.1449  -51.9410 C.3       18 UNK         0.1400 
    101 CB        -7.9194  -24.0428  -53.0715 C.3       18 UNK        -0.1800 
    102 C         -7.8948  -21.7149  -52.0892 C.2       18 UNK         0.5000 
    103 O         -8.2721  -21.0256  -53.0376 O.2       18 UNK        -0.5000 
    104 N         -7.0103  -21.3040  -51.1671 N.am      19 UNK        -0.5000 
    105 CA        -6.3108  -20.0178  -51.1231 C.3       19 UNK         0.1400 
    106 CB        -7.2958  -18.8477  -50.9178 C.3       19 UNK        -0.1800 
    107 C         -5.3601  -19.8225  -52.3218 C.2       19 UNK         0.5000 
    108 O         -5.2903  -18.7313  -52.8909 O.2       19 UNK        -0.5000 
    109 N         -4.6513  -20.9000  -52.6886 N.am      20 UNK        -0.5000 
    110 CA        -3.6327  -20.9111  -53.7385 C.3       20 UNK         0.1400 
    111 CB        -3.2180  -22.3629  -54.0180 C.3       20 UNK        -0.1800 
    112 C         -2.4047  -20.0693  -53.3461 C.2       20 UNK         0.5000 
    113 O         -2.0679  -19.9902  -52.1623 O.2       20 UNK        -0.5000 
    114 N         -1.7505  -19.4768  -54.3480 N.am      21 UNK        -0.5000 
    115 CA        -0.6002  -18.5993  -54.1787 C.3       21 UNK         0.1400 
    116 CB        -1.0851  -17.1778  -53.8390 C.3       21 UNK        -0.1800 
    117 C          0.2595  -18.5997  -55.4470 C.2       21 UNK         0.5000 
    118 O         -0.2267  -18.9626  -56.5215 O.2       21 UNK        -0.5000 
    119 N          1.5141  -18.1621  -55.2950 N.am      22 UNK        -0.5000 
    120 CA         2.4895  -17.9880  -56.3843 C.3       22 UNK         0.1400 
    121 C          2.1966  -16.7907  -57.3390 C.2       22 UNK         0.5000 
    122 N          1.2828  -15.8824  -57.0183 N.am      22 UNK        -0.7600 
    123 O          2.8095  -16.6875  -58.3981 O.2       22 UNK        -0.5000 
    124 C124        3.9389  -17.9013  -55.8402 C.3       23 UNK        -0.0398 
    125 S125        4.4867  -19.4369  -55.0188 S.3       23 UNK        -0.2404 
    126 C126        4.7769  -18.8878  -53.3059 C.3       23 UNK        -0.0205 
    127 H127        0.0820   -9.2335  -47.8047 H         1 UNK         0.0600 
    128 H128        1.5849   -9.4455  -48.7087 H         1 UNK         0.0600 
    129 H129        0.0302   -9.6933  -49.5093 H         1 UNK         0.0600 
    130 H130       -0.4443  -11.8506  -49.7889 H         1 UNK         0.3000 
    131 H131        0.9739  -13.9631  -48.5925 H         1 UNK         0.0600 
    132 H132       -1.7586  -14.2528  -49.9411 H         1 UNK         0.0800 
    133 H133       -0.3114  -13.9390  -50.8456 H         1 UNK         0.0800 
    134 H134        0.8666  -15.7178  -52.0059 H         1 UNK         0.0800 
    135 H135        1.9297  -15.5618  -50.6373 H         1 UNK         0.0800 
    136 H136        3.3738  -16.6966  -52.4647 H         1 UNK         0.1150 
    137 H137        3.3242  -20.9765  -52.3694 H         1 UNK         0.1150 
    138 H138        0.2438  -18.7777  -50.3790 H         1 UNK         0.1150 
    139 H139        0.0344  -21.1375  -50.5692 H         1 UNK         0.0800 
    140 H140        0.8750  -21.8852  -51.8907 H         1 UNK         0.0800 
    141 H141        1.4073  -20.5284  -48.3965 H         1 UNK         0.0800 
    142 H142        2.5814  -21.5640  -47.6464 H         1 UNK         0.0800 
    143 H143        0.8270  -23.3206  -47.2610 H         1 UNK         0.0600 
    144 H144        1.0316  -20.9088  -45.8154 H         1 UNK         0.3000 
    145 H145       -1.4703  -21.5027  -43.3337 H         1 UNK         0.0600 
    146 H146        0.4859  -20.9919  -41.8664 H         1 UNK         0.0600 
    147 H147        0.5021  -22.6548  -42.4338 H         1 UNK         0.0600 
    148 H148        1.5887  -21.4788  -43.1506 H         1 UNK         0.0600 
    149 H149        0.3870  -19.3669  -43.9332 H         1 UNK         0.3000 
    150 H150       -1.8090  -17.4969  -46.0103 H         1 UNK         0.0600 
    151 H151       -2.6275  -16.8338  -43.8087 H         1 UNK         0.0600 
    152 H152       -1.2616  -15.7928  -44.1963 H         1 UNK         0.0600 
    153 H153       -1.0584  -17.1428  -43.0793 H         1 UNK         0.0600 
    154 H154        0.7987  -17.0283  -44.8762 H         1 UNK         0.3000 
    155 H155        2.6212  -18.7552  -47.4018 H         1 UNK         0.0600 
    156 H156        2.0412  -15.7757  -47.4106 H         1 UNK         0.0600 
    157 H157        2.3968  -16.8555  -48.7430 H         1 UNK         0.0600 
    158 H158        3.6775  -16.3996  -47.6441 H         1 UNK         0.0600 
    159 H159        3.5170  -16.9825  -45.3887 H         1 UNK         0.3000 
    160 H160        4.5407  -19.7231  -43.4328 H         1 UNK         0.0600 
    161 H161        6.0090  -17.8187  -43.0405 H         1 UNK         0.0600 
    162 H162        4.9318  -16.7186  -43.8844 H         1 UNK         0.0600 
    163 H163        5.7828  -17.9834  -44.7724 H         1 UNK         0.0600 
    164 H164        2.7563  -17.5054  -42.5120 H         1 UNK         0.3000 
    165 H165        2.1080  -18.9457  -39.5578 H         1 UNK         0.0600 
    166 H166        3.3353  -17.3815  -38.0478 H         1 UNK         0.0600 
    167 H167        4.3659  -18.7029  -38.5673 H         1 UNK         0.0600 
    168 H168        4.5502  -17.1129  -39.2978 H         1 UNK         0.0600 
    169 H169        2.5689  -16.1394  -40.3978 H         1 UNK         0.3000 
    170 H170       -0.8042  -15.7139  -41.4315 H         1 UNK         0.0600 
    171 H171       -0.8631  -15.4768  -38.9509 H         1 UNK         0.0600 
    172 H172        0.6749  -14.6220  -38.9952 H         1 UNK         0.0600 
    173 H173       -0.7514  -13.9233  -39.7618 H         1 UNK         0.0600 
    174 H174        0.9599  -13.7027  -41.4180 H         1 UNK         0.3000 
    175 H175        2.8408  -13.2212  -42.8886 H         1 UNK         0.0600 
    176 H176        3.4353  -13.2354  -45.3011 H         1 UNK         0.0600 
    177 H177        3.8211  -14.7789  -44.5573 H         1 UNK         0.0600 
    178 H178        2.3834  -14.6204  -45.5636 H         1 UNK         0.0600 
    179 H179        0.8040  -12.8947  -44.9672 H         1 UNK         0.3000 
    180 H180       -1.3573  -10.8797  -43.0544 H         1 UNK         0.0600 
    181 H181        0.6358   -9.8742  -45.1541 H         1 UNK         0.0600 
    182 H182        0.3377   -9.1573  -43.5781 H         1 UNK         0.0600 
    183 H183       -0.9290   -9.1440  -44.7950 H         1 UNK         0.0600 
    184 H184       -1.0743  -11.5555  -45.8672 H         1 UNK         0.3000 
    185 H185       -2.8766  -14.5503  -45.7675 H         1 UNK         0.0600 
    186 H186       -4.6584  -13.4479  -47.0953 H         1 UNK         0.0600 
    187 H187       -4.8392  -13.0549  -45.3936 H         1 UNK         0.0600 
    188 H188       -4.1613  -11.8640  -46.4972 H         1 UNK         0.0600 
    189 H189       -2.3191  -12.7108  -47.8987 H         1 UNK         0.3000 
    190 H190       -0.9909  -20.2493  -47.7253 H         1 UNK         0.3000 
    191 H191       -2.6878  -21.1034  -49.7831 H         1 UNK         0.0600 
    192 H192       -3.1248  -18.9732  -47.6203 H         1 UNK         0.0600 
    193 H193       -4.0283  -19.0806  -49.1206 H         1 UNK         0.0600 
    194 H194       -2.3107  -18.7366  -49.1644 H         1 UNK         0.0600 
    195 H195       -3.1328  -21.3783  -46.2529 H         1 UNK         0.3000 
    196 H196       -5.7707  -22.5193  -46.3571 H         1 UNK         0.0600 
    197 H197       -3.6373  -22.5997  -44.1600 H         1 UNK         0.0600 
    198 H198       -5.3281  -23.0450  -43.9625 H         1 UNK         0.0600 
    199 H199       -4.8980  -21.3825  -44.3379 H         1 UNK         0.0600 
    200 H200       -2.4779  -23.9686  -46.0198 H         1 UNK         0.3000 
    201 H201       -3.2870  -26.6519  -45.7747 H         1 UNK         0.0600 
    202 H202       -0.6607  -25.4656  -46.8131 H         1 UNK         0.0600 
    203 H203       -0.8884  -27.1441  -46.3352 H         1 UNK         0.0600 
    204 H204       -1.0388  -25.8695  -45.1380 H         1 UNK         0.0600 
    205 H205       -2.8534  -24.7007  -48.6689 H         1 UNK         0.3000 
    206 H206       -3.0223  -26.8281  -50.6090 H         1 UNK         0.0600 
    207 H207       -1.9641  -24.6349  -51.0924 H         1 UNK         0.0600 
    208 H208       -3.3021  -24.9320  -52.1918 H         1 UNK         0.0600 
    209 H209       -3.5021  -23.8116  -50.8459 H         1 UNK         0.0600 
    210 H210       -4.8842  -27.6531  -49.0380 H         1 UNK         0.3000 
    211 H211       -6.9616  -28.3921  -48.7780 H         1 UNK         0.0600 
    212 H212       -7.2988  -27.7183  -51.7494 H         1 UNK         0.0600 
    213 H213       -8.2270  -28.9040  -50.8394 H         1 UNK         0.0600 
    214 H214       -6.5159  -29.1684  -51.1222 H         1 UNK         0.0600 
    215 H215       -6.6001  -25.5247  -48.2170 H         1 UNK         0.3000 
    216 H216       -7.5945  -23.6318  -47.7535 H         1 UNK         0.0600 
    217 H217       -9.0788  -25.0995  -46.3689 H         1 UNK         0.0600 
    218 H218       -9.9048  -23.6482  -46.9081 H         1 UNK         0.0600 
    219 H219      -10.2346  -25.1834  -47.6983 H         1 UNK         0.0600 
    220 H220       -7.3373  -24.4108  -50.6562 H         1 UNK         0.3000 
    221 H221       -9.5340  -23.0897  -52.0339 H         1 UNK         0.0600 
    222 H222       -6.8293  -24.0671  -53.0909 H         1 UNK         0.0600 
    223 H223       -8.2766  -25.0673  -52.9641 H         1 UNK         0.0600 
    224 H224       -8.2538  -23.6815  -54.0447 H         1 UNK         0.0600 
    225 H225       -6.7530  -21.9616  -50.4430 H         1 UNK         0.3000 
    226 H226       -5.6784  -20.0604  -50.2396 H         1 UNK         0.0600 
    227 H227       -7.9420  -19.0233  -50.0578 H         1 UNK         0.0600 
    228 H228       -6.7592  -17.9160  -50.7350 H         1 UNK         0.0600 
    229 H229       -7.9314  -18.6910  -51.7895 H         1 UNK         0.0600 
    230 H230       -4.7595  -21.7495  -52.1555 H         1 UNK         0.3000 
    231 H231       -4.0773  -20.4920  -54.6437 H         1 UNK         0.0600 
    232 H232       -4.0816  -22.9911  -54.2379 H         1 UNK         0.0600 
    233 H233       -2.6903  -22.7954  -53.1682 H         1 UNK         0.0600 
    234 H234       -2.5483  -22.4173  -54.8771 H         1 UNK         0.0600 
    235 H235       -2.0255  -19.6303  -55.3099 H         1 UNK         0.3000 
    236 H236        0.0216  -18.9807  -53.3704 H         1 UNK         0.0600 
    237 H237       -0.2621  -16.4645  -53.8383 H         1 UNK         0.0600 
    238 H238       -1.8205  -16.8230  -54.5619 H         1 UNK         0.0600 
    239 H239       -1.5443  -17.1457  -52.8505 H         1 UNK         0.0600 
    240 H240        1.8393  -17.9154  -54.3714 H         1 UNK         0.3000 
    241 H241        2.4301  -18.8789  -57.0127 H         1 UNK         0.0600 
    242 H242        1.1032  -15.1175  -57.6500 H         1 UNK         0.3800 
    243 H243        0.7665  -15.9519  -56.1573 H         1 UNK         0.3800 
    244 H244        4.6430  -17.7169  -56.6538 H         1 UNK         0.0800 
    245 H245        4.0393  -17.0535  -55.1609 H         1 UNK         0.0800 
    246 H246        5.4658  -19.5877  -52.8307 H         1 UNK         0.0800 
    247 H247        5.2833  -17.9213  -53.3023 H         1 UNK         0.0800 
@<TRIPOS>BOND
     1    1    2 1    
     2    1  127 1    
     3    1  128 1    
     4    1  129 1    
     5    2    3 2    
     6    2    4 am   BACKBONE|DICT|INTERRES
     7    4    5 1    
     8    4  130 1    
     9    5    6 1    
    10    5   65 1    
    11    5  131 1    
    12    6    7 1    
    13    6  132 1    
    14    6  133 1    
    15    7    8 1    
    16    8    9 1    
    17    8  134 1    
    18    8  135 1    
    19    9   10 ar   
    20    9   14 ar   
    21   10   11 ar   
    22   10  136 1    
    23   11   12 ar   
    24   11  126 1    
    25   12   13 ar   
    26   12  137 1    
    27   13   14 ar   
    28   13   15 1    
    29   14  138 1    
    30   15   16 1    
    31   15  139 1    
    32   15  140 1    
    33   16   17 1    
    34   17   18 1    
    35   17  141 1    
    36   17  142 1    
    37   18   19 1    
    38   18   67 1    
    39   18  143 1    
    40   19   20 am   BACKBONE|DICT|INTERRES
    41   19  144 1    
    42   20   21 2    
    43   20   22 1    
    44   22   23 1    
    45   22   24 1    
    46   22  145 1    
    47   23  146 1    
    48   23  147 1    
    49   23  148 1    
    50   24   25 am   BACKBONE|DICT|INTERRES
    51   24  149 1    
    52   25   26 2    
    53   25   27 1    
    54   27   28 1    
    55   27   29 1    
    56   27  150 1    
    57   28  151 1    
    58   28  152 1    
    59   28  153 1    
    60   29   30 am   BACKBONE|DICT|INTERRES
    61   29  154 1    
    62   30   31 2    
    63   30   32 1    
    64   32   33 1    
    65   32   34 1    
    66   32  155 1    
    67   33  156 1    
    68   33  157 1    
    69   33  158 1    
    70   34   35 am   BACKBONE|DICT|INTERRES
    71   34  159 1    
    72   35   36 2    
    73   35   37 1    
    74   37   38 1    
    75   37   39 1    
    76   37  160 1    
    77   38  161 1    
    78   38  162 1    
    79   38  163 1    
    80   39   40 am   BACKBONE|DICT|INTERRES
    81   39  164 1    
    82   40   41 2    
    83   40   42 1    
    84   42   43 1    
    85   42   44 1    
    86   42  165 1    
    87   43  166 1    
    88   43  167 1    
    89   43  168 1    
    90   44   45 am   BACKBONE|DICT|INTERRES
    91   44  169 1    
    92   45   46 2    
    93   45   47 1    
    94   47   48 1    
    95   47   49 1    
    96   47  170 1    
    97   48  171 1    
    98   48  172 1    
    99   48  173 1    
   100   49   50 am   BACKBONE|DICT|INTERRES
   101   49  174 1    
   102   50   51 2    
   103   50   52 1    
   104   52   53 1    
   105   52   54 1    
   106   52  175 1    
   107   53  176 1    
   108   53  177 1    
   109   53  178 1    
   110   54   55 am   BACKBONE|DICT|INTERRES
   111   54  179 1    
   112   55   56 2    
   113   55   57 1    
   114   57   58 1    
   115   57   59 1    
   116   57  180 1    
   117   58  181 1    
   118   58  182 1    
   119   58  183 1    
   120   59   60 am   BACKBONE|DICT|INTERRES
   121   59  184 1    
   122   60   61 2    
   123   60   62 1    
   124   62   63 1    
   125   62   64 1    
   126   62  185 1    
   127   63  186 1    
   128   63  187 1    
   129   63  188 1    
   130   64   65 am   BACKBONE|DICT|INTERRES
   131   64  189 1    
   132   65   66 2    
   133   67   68 2    
   134   67   69 am   BACKBONE|DICT|INTERRES
   135   69   70 1    
   136   69  190 1    
   137   70   71 1    
   138   70   72 1    
   139   70  191 1    
   140   71  192 1    
   141   71  193 1    
   142   71  194 1    
   143   72   73 2    
   144   72   74 am   BACKBONE|DICT|INTERRES
   145   74   75 1    
   146   74  195 1    
   147   75   76 1    
   148   75   77 1    
   149   75  196 1    
   150   76  197 1    
   151   76  198 1    
   152   76  199 1    
   153   77   78 2    
   154   77   79 am   BACKBONE|DICT|INTERRES
   155   79   80 1    
   156   79  200 1    
   157   80   81 1    
   158   80   82 1    
   159   80  201 1    
   160   81  202 1    
   161   81  203 1    
   162   81  204 1    
   163   82   83 2    
   164   82   84 am   BACKBONE|DICT|INTERRES
   165   84   85 1    
   166   84  205 1    
   167   85   86 1    
   168   85   87 1    
   169   85  206 1    
   170   86  207 1    
   171   86  208 1    
   172   86  209 1    
   173   87   88 2    
   174   87   89 am   BACKBONE|DICT|INTERRES
   175   89   90 1    
   176   89  210 1    
   177   90   91 1    
   178   90   92 1    
   179   90  211 1    
   180   91  212 1    
   181   91  213 1    
   182   91  214 1    
   183   92   93 2    
   184   92   94 am   BACKBONE|DICT|INTERRES
   185   94   95 1    
   186   94  215 1    
   187   95   96 1    
   188   95   97 1    
   189   95  216 1    
   190   96  217 1    
   191   96  218 1    
   192   96  219 1    
   193   97   98 2    
   194   97   99 am   BACKBONE|DICT|INTERRES
   195   99  100 1    
   196   99  220 1    
   197  100  101 1    
   198  100  102 1    
   199  100  221 1    
   200  101  222 1    
   201  101  223 1    
   202  101  224 1    
   203  102  103 2    
   204  102  104 am   BACKBONE|DICT|INTERRES
   205  104  105 1    
   206  104  225 1    
   207  105  106 1    
   208  105  107 1    
   209  105  226 1    
   210  106  227 1    
   211  106  228 1    
   212  106  229 1    
   213  107  108 2    
   214  107  109 am   BACKBONE|DICT|INTERRES
   215  109  110 1    
   216  109  230 1    
   217  110  111 1    
   218  110  112 1    
   219  110  231 1    
   220  111  232 1    
   221  111  233 1    
   222  111  234 1    
   223  112  113 2    
   224  112  114 am   BACKBONE|DICT|INTERRES
   225  114  115 1    
   226  114  235 1    
   227  115  116 1    
   228  115  117 1    
   229  115  236 1    
   230  116  237 1    
   231  116  238 1    
   232  116  239 1    
   233  117  118 2    
   234  117  119 am   BACKBONE|DICT|INTERRES
   235  119  120 1    
   236  119  240 1    
   237  120  121 1    
   238  120  124 1    
   239  120  241 1    
   240  121  122 am   BACKBONE|DICT|INTERRES
   241  121  123 2    
   242  122  242 1    
   243  122  243 1    
   244  124  125 1    
   245  124  244 1    
   246  124  245 1    
   247  125  126 1    
   248  126  246 1    
   249  126  247 1    
@<TRIPOS>SUBSTRUCTURE
     1 UNK         1 GROUP             0       ****    0 ROOT    
