@<TRIPOS>MOLECULE
3R540
247   249    1
SMALL
USER_CHARGES


@<TRIPOS>ATOM
      1 CA          1.5217  -16.9184  -47.0783 C.3       0 UNK        -0.1800 
      2 C           1.2145  -15.8914  -48.1541 C.2       0 UNK         0.5000 
      3 O           0.1187  -15.3277  -48.1786 O.2       0 UNK        -0.5000 
      4 N           2.1824  -15.6612  -49.0476 N.am      1 UNK        -0.5000 
      5 CA          2.0732  -14.7872  -50.2173 C.3       1 UNK         0.1400 
      6 C6          3.3099  -14.8892  -51.1430 C.3       23 UNK        -0.0398 
      7 S7          3.8419  -16.5947  -51.5471 S.3       23 UNK        -0.2404 
      8 C8          2.3855  -17.3289  -52.3654 C.3       23 UNK        -0.0205 
      9 C9          1.5914  -18.2282  -51.4252 C.ar      23 UNK        -0.0193 
     10 C10         0.3409  -17.8295  -50.9444 C.ar      23 UNK        -0.1150 
     11 C11        -0.3940  -18.6491  -50.0842 C.ar      23 UNK        -0.0193 
     12 C12         0.1246  -19.8996  -49.7326 C.ar      23 UNK        -0.1150 
     13 C13         1.3665  -20.3199  -50.2109 C.ar      23 UNK        -0.0193 
     14 C14         2.0986  -19.4777  -51.0532 C.ar      23 UNK        -0.1150 
     15 C15         1.8955  -21.6975  -49.8429 C.3       23 UNK        -0.0205 
     16 S16         2.9004  -21.6848  -48.3204 S.3       23 UNK        -0.2404 
     17 C17         1.6646  -21.4825  -46.9876 C.3       23 UNK        -0.0398 
     18 CA          1.1802  -22.8268  -46.3883 C.3       11 UNK         0.1400 
     19 N           0.7494  -22.6860  -44.9950 N.am      11 UNK        -0.5000 
     20 C           0.4512  -23.7017  -44.1721 C.2       10 UNK         0.5000 
     21 O           0.4422  -24.8825  -44.5194 O.2       10 UNK        -0.5000 
     22 CA          0.0959  -23.3355  -42.7219 C.3       10 UNK         0.1400 
     23 CB          1.3606  -22.9997  -41.9163 C.3       10 UNK        -0.1800 
     24 N          -0.8250  -22.2024  -42.6757 N.am      10 UNK        -0.5000 
     25 C          -2.1595  -22.3138  -42.7204 C.2       9 UNK         0.5000 
     26 O          -2.7564  -23.3911  -42.7199 O.2       9 UNK        -0.5000 
     27 CA         -2.9703  -21.0031  -42.7950 C.3       9 UNK         0.1400 
     28 CB         -3.3286  -20.5124  -41.3843 C.3       9 UNK        -0.1800 
     29 N          -2.2924  -19.9229  -43.5133 N.am      9 UNK        -0.5000 
     30 C          -1.8861  -19.9840  -44.7892 C.2       8 UNK         0.5000 
     31 O          -2.0486  -20.9595  -45.5187 O.2       8 UNK        -0.5000 
     32 CA         -1.1009  -18.7765  -45.3185 C.3       8 UNK         0.1400 
     33 CB         -2.0644  -17.6753  -45.7776 C.3       8 UNK        -0.1800 
     34 N          -0.1612  -18.2265  -44.3406 N.am      8 UNK        -0.5000 
     35 C           0.8347  -18.8948  -43.7420 C.2       7 UNK         0.5000 
     36 O           1.0591  -20.0914  -43.9198 O.2       7 UNK        -0.5000 
     37 CA          1.7028  -18.1020  -42.7538 C.3       7 UNK         0.1400 
     38 CB          2.7937  -17.3120  -43.4926 C.3       7 UNK        -0.1800 
     39 N           0.8872  -17.1853  -41.9604 N.am      7 UNK        -0.5000 
     40 C           0.2565  -17.5242  -40.8287 C.2       6 UNK         0.5000 
     41 O           0.3629  -18.6260  -40.2892 O.2       6 UNK        -0.5000 
     42 CA         -0.6606  -16.4588  -40.1969 C.3       6 UNK         0.1400 
     43 CB          0.1308  -15.5802  -39.2165 C.3       6 UNK        -0.1800 
     44 N          -1.3273  -15.6008  -41.1791 N.am      6 UNK        -0.5000 
     45 C          -2.2462  -16.0241  -42.0574 C.2       5 UNK         0.5000 
     46 O          -2.6197  -17.1944  -42.1492 O.2       5 UNK        -0.5000 
     47 CA         -2.8236  -14.9654  -43.0178 C.3       5 UNK         0.1400 
     48 CB         -3.9263  -14.1571  -42.3182 C.3       5 UNK        -0.1800 
     49 N          -1.8575  -14.0354  -43.6179 N.am      5 UNK        -0.5000 
     50 C          -0.6638  -14.3270  -44.1541 C.2       4 UNK         0.5000 
     51 O          -0.1241  -15.4302  -44.0784 O.2       4 UNK        -0.5000 
     52 CA          0.0057  -13.2036  -44.9658 C.3       4 UNK         0.1400 
     53 CB          1.5228  -13.4080  -45.1198 C.3       4 UNK        -0.1800 
     54 N          -0.6046  -13.1354  -46.2922 N.am      4 UNK        -0.5000 
     55 C          -1.7717  -12.5386  -46.5618 C.2       3 UNK         0.5000 
     56 O          -2.4195  -11.9095  -45.7219 O.2       3 UNK        -0.5000 
     57 CA         -2.2987  -12.6896  -48.0027 C.3       3 UNK         0.1400 
     58 CB         -3.5711  -11.8585  -48.2686 C.3       3 UNK        -0.1800 
     59 N          -1.2766  -12.4300  -49.0198 N.am      3 UNK        -0.5000 
     60 C          -0.6061  -11.2888  -49.2418 C.2       2 UNK         0.5000 
     61 O          -0.7683  -10.2562  -48.5905 O.2       2 UNK        -0.5000 
     62 CA          0.3974  -11.3126  -50.4181 C.3       2 UNK         0.1400 
     63 CB          1.4904  -10.2278  -50.3111 C.3       2 UNK        -0.1800 
     64 N           0.9745  -12.6445  -50.6495 N.am      2 UNK        -0.5000 
     65 C           1.7841  -13.3233  -49.8228 C.2       1 UNK         0.5000 
     66 O           2.2726  -12.8568  -48.7911 O.2       1 UNK        -0.5000 
     67 C           0.1158  -23.5063  -47.2739 C.2       11 UNK         0.5000 
     68 O           0.4682  -24.3977  -48.0442 O.2       11 UNK        -0.5000 
     69 N          -1.1635  -23.1326  -47.1121 N.am      12 UNK        -0.5000 
     70 CA         -2.2985  -23.6843  -47.8629 C.3       12 UNK         0.1400 
     71 CB         -3.5854  -22.9458  -47.4649 C.3       12 UNK        -0.1800 
     72 C          -2.4941  -25.2024  -47.6828 C.2       12 UNK         0.5000 
     73 O          -2.9974  -25.8619  -48.5929 O.2       12 UNK        -0.5000 
     74 N          -2.0892  -25.7307  -46.5195 N.am      13 UNK        -0.5000 
     75 CA         -2.1048  -27.1605  -46.2164 C.3       13 UNK         0.1400 
     76 CB         -2.1020  -27.3525  -44.6920 C.3       13 UNK        -0.1800 
     77 C          -0.9267  -27.9139  -46.8638 C.2       13 UNK         0.5000 
     78 O          -1.0390  -29.1199  -47.0881 O.2       13 UNK        -0.5000 
     79 N           0.1750  -27.2062  -47.1503 N.am      14 UNK        -0.5000 
     80 CA          1.3579  -27.7516  -47.8110 C.3       14 UNK         0.1400 
     81 CB          2.6033  -26.9520  -47.3940 C.3       14 UNK        -0.1800 
     82 C           1.1934  -27.7668  -49.3398 C.2       14 UNK         0.5000 
     83 O           1.5207  -28.7755  -49.9670 O.2       14 UNK        -0.5000 
     84 N           0.6801  -26.6705  -49.9137 N.am      15 UNK        -0.5000 
     85 CA          0.4474  -26.5180  -51.3477 C.3       15 UNK         0.1400 
     86 CB          1.7745  -26.2124  -52.0678 C.3       15 UNK        -0.1800 
     87 C          -0.5692  -25.3993  -51.6096 C.2       15 UNK         0.5000 
     88 O          -0.6067  -24.4153  -50.8705 O.2       15 UNK        -0.5000 
     89 N          -1.3451  -25.5472  -52.6896 N.am      16 UNK        -0.5000 
     90 CA         -2.2281  -24.5043  -53.2123 C.3       16 UNK         0.1400 
     91 CB         -3.2316  -25.1416  -54.1858 C.3       16 UNK        -0.1800 
     92 C          -1.4202  -23.3949  -53.9130 C.2       16 UNK         0.5000 
     93 O          -0.3348  -23.6601  -54.4379 O.2       16 UNK        -0.5000 
     94 N          -1.9760  -22.1821  -53.9297 N.am      17 UNK        -0.5000 
     95 CA         -1.3733  -20.9891  -54.5134 C.3       17 UNK         0.1400 
     96 CB         -0.3118  -20.4113  -53.5516 C.3       17 UNK        -0.1800 
     97 C          -2.4920  -20.0047  -54.8969 C.2       17 UNK         0.5000 
     98 O          -3.4253  -20.3957  -55.6003 O.2       17 UNK        -0.5000 
     99 N          -2.3872  -18.7552  -54.4384 N.am      18 UNK        -0.5000 
    100 CA        -3.3503  -17.6777  -54.6245 C.3       18 UNK         0.1400 
    101 CB        -3.1017  -16.9827  -55.9749 C.3       18 UNK        -0.1800 
    102 C         -3.1961  -16.6993  -53.4515 C.2       18 UNK         0.5000 
    103 O         -2.1722  -16.7398  -52.7659 O.2       18 UNK        -0.5000 
    104 N         -4.2108  -15.8460  -53.2557 N.am      19 UNK        -0.5000 
    105 CA        -4.4187  -14.9444  -52.1125 C.3       19 UNK         0.1400 
    106 CB        -3.1920  -14.0416  -51.8549 C.3       19 UNK        -0.1800 
    107 C         -4.8533  -15.7064  -50.8427 C.2       19 UNK         0.5000 
    108 O         -4.8281  -16.9392  -50.8182 O.2       19 UNK        -0.5000 
    109 N         -5.2876  -14.9528  -49.8198 N.am      20 UNK        -0.5000 
    110 CA        -5.8543  -15.4341  -48.5519 C.3       20 UNK         0.1400 
    111 CB        -4.7494  -16.0327  -47.6510 C.3       20 UNK        -0.1800 
    112 C         -7.0456  -16.3861  -48.7970 C.2       20 UNK         0.5000 
    113 O         -8.1097  -15.9234  -49.2109 O.2       20 UNK        -0.5000 
    114 N         -6.8286  -17.6876  -48.5851 N.am      21 UNK        -0.5000 
    115 CA        -7.7360  -18.7748  -48.9450 C.3       21 UNK         0.1400 
    116 CB        -8.5000  -19.2340  -47.6893 C.3       21 UNK        -0.1800 
    117 C         -6.9520  -19.9204  -49.6180 C.2       21 UNK         0.5000 
    118 O         -7.3674  -21.0770  -49.5358 O.2       21 UNK        -0.5000 
    119 N         -5.8153  -19.5901  -50.2463 N.am      22 UNK        -0.5000 
    120 CA        -4.8541  -20.5515  -50.8110 C.3       22 UNK         0.1400 
    121 C         -5.2068  -21.0579  -52.2373 C.2       22 UNK         0.5000 
    122 N         -6.2242  -20.5281  -52.9036 N.am      22 UNK        -0.7600 
    123 O         -4.5412  -21.9534  -52.7483 O.2       22 UNK        -0.5000 
    124 C124       -3.4057  -20.0030  -50.7718 C.3       23 UNK        -0.0398 
    125 S125       -2.9213  -19.4405  -49.1066 S.3       23 UNK        -0.2404 
    126 C126       -1.7164  -18.1367  -49.5190 C.3       23 UNK        -0.0205 
    127 H127        2.5939  -17.0211  -46.9116 H         1 UNK         0.0600 
    128 H128        1.1235  -17.8903  -47.3674 H         1 UNK         0.0600 
    129 H129        1.0604  -16.6182  -46.1409 H         1 UNK         0.0600 
    130 H130        3.0560  -16.1605  -48.9694 H         1 UNK         0.3000 
    131 H131        1.2093  -15.1328  -50.7826 H         1 UNK         0.0600 
    132 H132        3.1253  -14.3610  -52.0799 H         1 UNK         0.0800 
    133 H133        4.1639  -14.3902  -50.6813 H         1 UNK         0.0800 
    134 H134        1.7537  -16.5462  -52.7876 H         1 UNK         0.0800 
    135 H135        2.7283  -17.9258  -53.2117 H         1 UNK         0.0800 
    136 H136       -0.0665  -16.8720  -51.2316 H         1 UNK         0.1150 
    137 H137       -0.4384  -20.5561  -49.0865 H         1 UNK         0.1150 
    138 H138        3.0608  -19.7971  -51.4276 H         1 UNK         0.1150 
    139 H139        1.0700  -22.4032  -49.7492 H         1 UNK         0.0800 
    140 H140        2.5119  -22.0777  -50.6586 H         1 UNK         0.0800 
    141 H141        2.1726  -20.9056  -46.2141 H         1 UNK         0.0800 
    142 H142        0.8321  -20.8569  -47.3013 H         1 UNK         0.0800 
    143 H143        2.0385  -23.5020  -46.3578 H         1 UNK         0.0600 
    144 H144        0.7578  -21.7419  -44.6153 H         1 UNK         0.3000 
    145 H145       -0.3703  -24.2081  -42.2594 H         1 UNK         0.0600 
    146 H146        1.1178  -22.7877  -40.8750 H         1 UNK         0.0600 
    147 H147        2.0598  -23.8367  -41.9234 H         1 UNK         0.0600 
    148 H148        1.8838  -22.1322  -42.3195 H         1 UNK         0.0600 
    149 H149       -0.4124  -21.2805  -42.7311 H         1 UNK         0.3000 
    150 H150       -3.8967  -21.2219  -43.3292 H         1 UNK         0.0600 
    151 H151       -3.8447  -21.2882  -40.8177 H         1 UNK         0.0600 
    152 H152       -3.9888  -19.6458  -41.4244 H         1 UNK         0.0600 
    153 H153       -2.4388  -20.2279  -40.8211 H         1 UNK         0.0600 
    154 H154       -2.1459  -19.0592  -43.0015 H         1 UNK         0.3000 
    155 H155       -0.5255  -19.1111  -46.1827 H         1 UNK         0.0600 
    156 H156       -1.5323  -16.8249  -46.2041 H         1 UNK         0.0600 
    157 H157       -2.6745  -17.3163  -44.9523 H         1 UNK         0.0600 
    158 H158       -2.7491  -18.0508  -46.5363 H         1 UNK         0.0600 
    159 H159       -0.2433  -17.2296  -44.1537 H         1 UNK         0.3000 
    160 H160        2.1974  -18.8188  -42.0949 H         1 UNK         0.0600 
    161 H161        2.3736  -16.5318  -44.1266 H         1 UNK         0.0600 
    162 H162        3.3901  -17.9677  -44.1281 H         1 UNK         0.0600 
    163 H163        3.4745  -16.8345  -42.7882 H         1 UNK         0.0600 
    164 H164        0.6794  -16.2886  -42.3841 H         1 UNK         0.3000 
    165 H165       -1.4341  -16.9854  -39.6339 H         1 UNK         0.0600 
    166 H166        0.9045  -15.0047  -39.7262 H         1 UNK         0.0600 
    167 H167       -0.5235  -14.8795  -38.6977 H         1 UNK         0.0600 
    168 H168        0.6217  -16.1886  -38.4558 H         1 UNK         0.0600 
    169 H169       -1.0663  -14.6259  -41.1881 H         1 UNK         0.3000 
    170 H170       -3.2931  -15.4983  -43.8438 H         1 UNK         0.0600 
    171 H171       -4.6768  -14.8154  -41.8783 H         1 UNK         0.0600 
    172 H172       -3.5233  -13.5361  -41.5175 H         1 UNK         0.0600 
    173 H173       -4.4428  -13.5035  -43.0215 H         1 UNK         0.0600 
    174 H174       -2.2124  -13.1044  -43.7971 H         1 UNK         0.3000 
    175 H175       -0.1503  -12.2594  -44.4400 H         1 UNK         0.0600 
    176 H176        1.9769  -12.5782  -45.6617 H         1 UNK         0.0600 
    177 H177        2.0091  -13.4681  -44.1457 H         1 UNK         0.0600 
    178 H178        1.7598  -14.3230  -45.6608 H         1 UNK         0.0600 
    179 H179       -0.1735  -13.6995  -47.0183 H         1 UNK         0.3000 
    180 H180       -2.5619  -13.7397  -48.1199 H         1 UNK         0.0600 
    181 H181       -3.9291  -11.9896  -49.2877 H         1 UNK         0.0600 
    182 H182       -4.3786  -12.1599  -47.6007 H         1 UNK         0.0600 
    183 H183       -3.3991  -10.7940  -48.1112 H         1 UNK         0.0600 
    184 H184       -1.0177  -13.2312  -49.5768 H         1 UNK         0.3000 
    185 H185       -0.1910  -11.0862  -51.3084 H         1 UNK         0.0600 
    186 H186        2.1881  -10.2861  -51.1463 H         1 UNK         0.0600 
    187 H187        1.0505   -9.2301  -50.3268 H         1 UNK         0.0600 
    188 H188        2.0626  -10.3133  -49.3873 H         1 UNK         0.0600 
    189 H189        0.6463  -13.1076  -51.4859 H         1 UNK         0.3000 
    190 H190       -1.3881  -22.3921  -46.4493 H         1 UNK         0.3000 
    191 H191       -2.1146  -23.4959  -48.9217 H         1 UNK         0.0600 
    192 H192       -4.4415  -23.3125  -48.0327 H         1 UNK         0.0600 
    193 H193       -3.5053  -21.8777  -47.6584 H         1 UNK         0.0600 
    194 H194       -3.8105  -23.0752  -46.4054 H         1 UNK         0.0600 
    195 H195       -1.6626  -25.1243  -45.8323 H         1 UNK         0.3000 
    196 H196       -3.0288  -27.5919  -46.6072 H         1 UNK         0.0600 
    197 H197       -2.1805  -28.4091  -44.4333 H         1 UNK         0.0600 
    198 H198       -2.9448  -26.8405  -44.2273 H         1 UNK         0.0600 
    199 H199       -1.1869  -26.9726  -44.2377 H         1 UNK         0.0600 
    200 H200        0.1707  -26.2060  -46.9920 H         1 UNK         0.3000 
    201 H201        1.5046  -28.7816  -47.4787 H         1 UNK         0.0600 
    202 H202        2.7197  -26.9408  -46.3102 H         1 UNK         0.0600 
    203 H203        2.5620  -25.9181  -47.7360 H         1 UNK         0.0600 
    204 H204        3.5060  -27.3965  -47.8143 H         1 UNK         0.0600 
    205 H205        0.4391  -25.8607  -49.3442 H         1 UNK         0.3000 
    206 H206        0.0331  -27.4506  -51.7368 H         1 UNK         0.0600 
    207 H207        2.4852  -27.0320  -51.9637 H         1 UNK         0.0600 
    208 H208        1.6146  -26.0573  -53.1355 H         1 UNK         0.0600 
    209 H209        2.2424  -25.3099  -51.6723 H         1 UNK         0.0600 
    210 H210       -1.2210  -26.3598  -53.2751 H         1 UNK         0.3000 
    211 H211       -2.7808  -24.0651  -52.3787 H         1 UNK         0.0600 
    212 H212       -2.7311  -25.5923  -55.0435 H         1 UNK         0.0600 
    213 H213       -3.9301  -24.3954  -54.5670 H         1 UNK         0.0600 
    214 H214       -3.8216  -25.9152  -53.6940 H         1 UNK         0.0600 
    215 H215       -2.9149  -22.0622  -53.5491 H         1 UNK         0.3000 
    216 H216       -0.8779  -21.2640  -55.4466 H         1 UNK         0.0600 
    217 H217        0.1832  -19.5379  -53.9777 H         1 UNK         0.0600 
    218 H218        0.4692  -21.1409  -53.3376 H         1 UNK         0.0600 
    219 H219       -0.7527  -20.1184  -52.5991 H         1 UNK         0.0600 
    220 H220       -1.6280  -18.5083  -53.8142 H         1 UNK         0.3000 
    221 H221       -4.3620  -18.0882  -54.5974 H         1 UNK         0.0600 
    222 H222       -2.0975  -16.5603  -56.0282 H         1 UNK         0.0600 
    223 H223       -3.2158  -17.6795  -56.8053 H         1 UNK         0.0600 
    224 H224       -3.8101  -16.1695  -56.1360 H         1 UNK         0.0600 
    225 H225       -4.9997  -15.9113  -53.8830 H         1 UNK         0.3000 
    226 H226       -5.2526  -14.3011  -52.3965 H         1 UNK         0.0600 
    227 H227       -2.8028  -13.6260  -52.7843 H         1 UNK         0.0600 
    228 H228       -3.4542  -13.2009  -51.2149 H         1 UNK         0.0600 
    229 H229       -2.3826  -14.5811  -51.3621 H         1 UNK         0.0600 
    230 H230       -5.3231  -13.9526  -49.9505 H         1 UNK         0.3000 
    231 H231       -6.2618  -14.5635  -48.0360 H         1 UNK         0.0600 
    232 H232       -5.1666  -16.4417  -46.7298 H         1 UNK         0.0600 
    233 H233       -4.0313  -15.2715  -47.3546 H         1 UNK         0.0600 
    234 H234       -4.1961  -16.8278  -48.1496 H         1 UNK         0.0600 
    235 H235       -5.9087  -17.9737  -48.2792 H         1 UNK         0.3000 
    236 H236       -8.4606  -18.4273  -49.6838 H         1 UNK         0.0600 
    237 H237       -9.0489  -18.4072  -47.2385 H         1 UNK         0.0600 
    238 H238       -9.2273  -20.0096  -47.9315 H         1 UNK         0.0600 
    239 H239       -7.8235  -19.6380  -46.9355 H         1 UNK         0.0600 
    240 H240       -5.5447  -18.6121  -50.3240 H         1 UNK         0.3000 
    241 H241       -4.8684  -21.4406  -50.1777 H         1 UNK         0.0600 
    242 H242       -6.7818  -19.7988  -52.4899 H         1 UNK         0.3800 
    243 H243       -6.4397  -20.8676  -53.8273 H         1 UNK         0.3800 
    244 H244       -2.6933  -20.7680  -51.0851 H         1 UNK         0.0800 
    245 H245       -3.2984  -19.1744  -51.4733 H         1 UNK         0.0800 
    246 H246       -1.4971  -17.5690  -48.6158 H         1 UNK         0.0800 
    247 H247       -2.1811  -17.4335  -50.2104 H         1 UNK         0.0800 
@<TRIPOS>BOND
     1    1    2 1    
     2    1  127 1    
     3    1  128 1    
     4    1  129 1    
     5    2    3 2    
     6    2    4 am   BACKBONE|DICT|INTERRES
     7    4    5 1    
     8    4  130 1    
     9    5    6 1    
    10    5   65 1    
    11    5  131 1    
    12    6    7 1    
    13    6  132 1    
    14    6  133 1    
    15    7    8 1    
    16    8    9 1    
    17    8  134 1    
    18    8  135 1    
    19    9   10 ar   
    20    9   14 ar   
    21   10   11 ar   
    22   10  136 1    
    23   11   12 ar   
    24   11  126 1    
    25   12   13 ar   
    26   12  137 1    
    27   13   14 ar   
    28   13   15 1    
    29   14  138 1    
    30   15   16 1    
    31   15  139 1    
    32   15  140 1    
    33   16   17 1    
    34   17   18 1    
    35   17  141 1    
    36   17  142 1    
    37   18   19 1    
    38   18   67 1    
    39   18  143 1    
    40   19   20 am   BACKBONE|DICT|INTERRES
    41   19  144 1    
    42   20   21 2    
    43   20   22 1    
    44   22   23 1    
    45   22   24 1    
    46   22  145 1    
    47   23  146 1    
    48   23  147 1    
    49   23  148 1    
    50   24   25 am   BACKBONE|DICT|INTERRES
    51   24  149 1    
    52   25   26 2    
    53   25   27 1    
    54   27   28 1    
    55   27   29 1    
    56   27  150 1    
    57   28  151 1    
    58   28  152 1    
    59   28  153 1    
    60   29   30 am   BACKBONE|DICT|INTERRES
    61   29  154 1    
    62   30   31 2    
    63   30   32 1    
    64   32   33 1    
    65   32   34 1    
    66   32  155 1    
    67   33  156 1    
    68   33  157 1    
    69   33  158 1    
    70   34   35 am   BACKBONE|DICT|INTERRES
    71   34  159 1    
    72   35   36 2    
    73   35   37 1    
    74   37   38 1    
    75   37   39 1    
    76   37  160 1    
    77   38  161 1    
    78   38  162 1    
    79   38  163 1    
    80   39   40 am   BACKBONE|DICT|INTERRES
    81   39  164 1    
    82   40   41 2    
    83   40   42 1    
    84   42   43 1    
    85   42   44 1    
    86   42  165 1    
    87   43  166 1    
    88   43  167 1    
    89   43  168 1    
    90   44   45 am   BACKBONE|DICT|INTERRES
    91   44  169 1    
    92   45   46 2    
    93   45   47 1    
    94   47   48 1    
    95   47   49 1    
    96   47  170 1    
    97   48  171 1    
    98   48  172 1    
    99   48  173 1    
   100   49   50 am   BACKBONE|DICT|INTERRES
   101   49  174 1    
   102   50   51 2    
   103   50   52 1    
   104   52   53 1    
   105   52   54 1    
   106   52  175 1    
   107   53  176 1    
   108   53  177 1    
   109   53  178 1    
   110   54   55 am   BACKBONE|DICT|INTERRES
   111   54  179 1    
   112   55   56 2    
   113   55   57 1    
   114   57   58 1    
   115   57   59 1    
   116   57  180 1    
   117   58  181 1    
   118   58  182 1    
   119   58  183 1    
   120   59   60 am   BACKBONE|DICT|INTERRES
   121   59  184 1    
   122   60   61 2    
   123   60   62 1    
   124   62   63 1    
   125   62   64 1    
   126   62  185 1    
   127   63  186 1    
   128   63  187 1    
   129   63  188 1    
   130   64   65 am   BACKBONE|DICT|INTERRES
   131   64  189 1    
   132   65   66 2    
   133   67   68 2    
   134   67   69 am   BACKBONE|DICT|INTERRES
   135   69   70 1    
   136   69  190 1    
   137   70   71 1    
   138   70   72 1    
   139   70  191 1    
   140   71  192 1    
   141   71  193 1    
   142   71  194 1    
   143   72   73 2    
   144   72   74 am   BACKBONE|DICT|INTERRES
   145   74   75 1    
   146   74  195 1    
   147   75   76 1    
   148   75   77 1    
   149   75  196 1    
   150   76  197 1    
   151   76  198 1    
   152   76  199 1    
   153   77   78 2    
   154   77   79 am   BACKBONE|DICT|INTERRES
   155   79   80 1    
   156   79  200 1    
   157   80   81 1    
   158   80   82 1    
   159   80  201 1    
   160   81  202 1    
   161   81  203 1    
   162   81  204 1    
   163   82   83 2    
   164   82   84 am   BACKBONE|DICT|INTERRES
   165   84   85 1    
   166   84  205 1    
   167   85   86 1    
   168   85   87 1    
   169   85  206 1    
   170   86  207 1    
   171   86  208 1    
   172   86  209 1    
   173   87   88 2    
   174   87   89 am   BACKBONE|DICT|INTERRES
   175   89   90 1    
   176   89  210 1    
   177   90   91 1    
   178   90   92 1    
   179   90  211 1    
   180   91  212 1    
   181   91  213 1    
   182   91  214 1    
   183   92   93 2    
   184   92   94 am   BACKBONE|DICT|INTERRES
   185   94   95 1    
   186   94  215 1    
   187   95   96 1    
   188   95   97 1    
   189   95  216 1    
   190   96  217 1    
   191   96  218 1    
   192   96  219 1    
   193   97   98 2    
   194   97   99 am   BACKBONE|DICT|INTERRES
   195   99  100 1    
   196   99  220 1    
   197  100  101 1    
   198  100  102 1    
   199  100  221 1    
   200  101  222 1    
   201  101  223 1    
   202  101  224 1    
   203  102  103 2    
   204  102  104 am   BACKBONE|DICT|INTERRES
   205  104  105 1    
   206  104  225 1    
   207  105  106 1    
   208  105  107 1    
   209  105  226 1    
   210  106  227 1    
   211  106  228 1    
   212  106  229 1    
   213  107  108 2    
   214  107  109 am   BACKBONE|DICT|INTERRES
   215  109  110 1    
   216  109  230 1    
   217  110  111 1    
   218  110  112 1    
   219  110  231 1    
   220  111  232 1    
   221  111  233 1    
   222  111  234 1    
   223  112  113 2    
   224  112  114 am   BACKBONE|DICT|INTERRES
   225  114  115 1    
   226  114  235 1    
   227  115  116 1    
   228  115  117 1    
   229  115  236 1    
   230  116  237 1    
   231  116  238 1    
   232  116  239 1    
   233  117  118 2    
   234  117  119 am   BACKBONE|DICT|INTERRES
   235  119  120 1    
   236  119  240 1    
   237  120  121 1    
   238  120  124 1    
   239  120  241 1    
   240  121  122 am   BACKBONE|DICT|INTERRES
   241  121  123 2    
   242  122  242 1    
   243  122  243 1    
   244  124  125 1    
   245  124  244 1    
   246  124  245 1    
   247  125  126 1    
   248  126  246 1    
   249  126  247 1    
@<TRIPOS>SUBSTRUCTURE
     1 UNK         1 GROUP             0       ****    0 ROOT    
