@<TRIPOS>MOLECULE
3R540
247   249    1
SMALL
USER_CHARGES


@<TRIPOS>ATOM
      1 CA         -2.1947  -13.9187  -46.6278 C.3       0 UNK        -0.1800 
      2 C          -2.2787  -14.4479  -45.1978 C.2       0 UNK         0.5000 
      3 O          -3.3698  -14.4956  -44.6350 O.2       0 UNK        -0.5000 
      4 N          -1.1670  -14.8464  -44.5639 N.am      1 UNK        -0.5000 
      5 CA          0.2031  -14.8440  -45.0961 C.3       1 UNK         0.1400 
      6 C6          1.0104  -16.0663  -44.5852 C.3       23 UNK        -0.0398 
      7 S7          2.1501  -16.7108  -45.8577 S.3       23 UNK        -0.2404 
      8 C8          1.3103  -18.2455  -46.3525 C.3       23 UNK        -0.0205 
      9 C9         -0.0124  -17.9733  -47.0512 C.ar      23 UNK        -0.0193 
     10 C10        -0.0232  -17.6232  -48.4029 C.ar      23 UNK        -0.1150 
     11 C11        -1.2276  -17.3579  -49.0585 C.ar      23 UNK        -0.0193 
     12 C12        -2.4282  -17.4447  -48.3495 C.ar      23 UNK        -0.1150 
     13 C13        -2.4345  -17.8219  -47.0033 C.ar      23 UNK        -0.0193 
     14 C14        -1.2222  -18.0785  -46.3575 C.ar      23 UNK        -0.1150 
     15 C15        -3.7496  -17.9329  -46.2441 C.3       23 UNK        -0.0205 
     16 S16        -4.3189  -19.6579  -46.0711 S.3       23 UNK        -0.2404 
     17 C17        -4.6005  -20.1598  -47.8118 C.3       23 UNK        -0.0398 
     18 CA         -3.7666  -21.3864  -48.2771 C.3       11 UNK         0.1400 
     19 N          -2.4013  -21.3737  -47.7422 N.am      11 UNK        -0.5000 
     20 C          -1.4771  -22.3356  -47.8636 C.2       10 UNK         0.5000 
     21 O          -1.6061  -23.3277  -48.5824 O.2       10 UNK        -0.5000 
     22 CA         -0.2328  -22.2118  -46.9615 C.3       10 UNK         0.1400 
     23 CB          0.9171  -21.5617  -47.7419 C.3       10 UNK        -0.1800 
     24 N          -0.4548  -21.4833  -45.6999 N.am      10 UNK        -0.5000 
     25 C          -1.3830  -21.7798  -44.7747 C.2       9 UNK         0.5000 
     26 O          -2.1918  -22.6995  -44.9016 O.2       9 UNK        -0.5000 
     27 CA         -1.4246  -20.9030  -43.5127 C.3       9 UNK         0.1400 
     28 CB         -2.2250  -21.5483  -42.3645 C.3       9 UNK        -0.1800 
     29 N          -0.0767  -20.5687  -43.0467 N.am      9 UNK        -0.5000 
     30 C           0.2507  -19.4013  -42.4813 C.2       8 UNK         0.5000 
     31 O          -0.5302  -18.4496  -42.3836 O.2       8 UNK        -0.5000 
     32 CA          1.6778  -19.2707  -41.9193 C.3       8 UNK         0.1400 
     33 CB          2.7328  -19.2625  -43.0449 C.3       8 UNK        -0.1800 
     34 N           1.7224  -18.0437  -41.1251 N.am      8 UNK        -0.5000 
     35 C           2.7582  -17.5211  -40.4642 C.2       7 UNK         0.5000 
     36 O           3.8947  -17.9995  -40.4524 O.2       7 UNK        -0.5000 
     37 CA          2.4709  -16.2487  -39.6574 C.3       7 UNK         0.1400 
     38 CB          2.2709  -16.5809  -38.1664 C.3       7 UNK        -0.1800 
     39 N           3.5897  -15.3329  -39.8401 N.am      7 UNK        -0.5000 
     40 C           3.5934  -14.0266  -39.5506 C.2       6 UNK         0.5000 
     41 O           2.6520  -13.4356  -39.0200 O.2       6 UNK        -0.5000 
     42 CA          4.8568  -13.2408  -39.9530 C.3       6 UNK         0.1400 
     43 CB          5.9368  -13.3548  -38.8660 C.3       6 UNK        -0.1800 
     44 N           5.4104  -13.6798  -41.2378 N.am      6 UNK        -0.5000 
     45 C           4.7967  -13.5097  -42.4164 C.2       5 UNK         0.5000 
     46 O           3.7198  -12.9260  -42.5454 O.2       5 UNK        -0.5000 
     47 CA          5.4928  -14.1186  -43.6407 C.3       5 UNK         0.1400 
     48 CB          5.2891  -15.6441  -43.6764 C.3       5 UNK        -0.1800 
     49 N           4.9494  -13.5365  -44.8655 N.am      5 UNK        -0.5000 
     50 C           5.6505  -13.2802  -45.9751 C.2       4 UNK         0.5000 
     51 O           6.8635  -13.4744  -46.0705 O.2       4 UNK        -0.5000 
     52 CA          4.8899  -12.7250  -47.1918 C.3       4 UNK         0.1400 
     53 CB          4.3586  -13.8824  -48.0533 C.3       4 UNK        -0.1800 
     54 N           3.7638  -11.8659  -46.8202 N.am      4 UNK        -0.5000 
     55 C           3.6377  -10.5744  -47.1550 C.2       3 UNK         0.5000 
     56 O           4.5147   -9.9335  -47.7364 O.2       3 UNK        -0.5000 
     57 CA          2.3023   -9.8717  -46.8277 C.3       3 UNK         0.1400 
     58 CB          1.4438   -9.7458  -48.0964 C.3       3 UNK        -0.1800 
     59 N           1.5127  -10.5515  -45.8010 N.am      3 UNK        -0.5000 
     60 C           1.7518  -10.4799  -44.4859 C.2       2 UNK         0.5000 
     61 O           2.6336   -9.7746  -43.9940 O.2       2 UNK        -0.5000 
     62 CA          0.8575  -11.3332  -43.5595 C.3       2 UNK         0.1400 
     63 CB         -0.2951  -10.4792  -43.0085 C.3       2 UNK        -0.1800 
     64 N           0.2920  -12.5634  -44.1353 N.am      2 UNK        -0.5000 
     65 C           0.9538  -13.5289  -44.7926 C.2       1 UNK         0.5000 
     66 O           2.1221  -13.4205  -45.1570 O.2       1 UNK        -0.5000 
     67 C          -4.5182  -22.7083  -48.0056 C.2       11 UNK         0.5000 
     68 O          -5.1663  -23.2223  -48.9189 O.2       11 UNK        -0.5000 
     69 N          -4.3739  -23.2451  -46.7876 N.am      12 UNK        -0.5000 
     70 CA         -4.9542  -24.5139  -46.3597 C.3       12 UNK         0.1400 
     71 CB         -5.6322  -24.3157  -44.9950 C.3       12 UNK        -0.1800 
     72 C          -3.8883  -25.6182  -46.2714 C.2       12 UNK         0.5000 
     73 O          -4.1336  -26.7293  -46.7392 O.2       12 UNK        -0.5000 
     74 N          -2.7260  -25.3031  -45.6817 N.am      13 UNK        -0.5000 
     75 CA         -1.6684  -26.2602  -45.3439 C.3       13 UNK         0.1400 
     76 CB         -0.6605  -25.5918  -44.3962 C.3       13 UNK        -0.1800 
     77 C          -0.9491  -26.8586  -46.5652 C.2       13 UNK         0.5000 
     78 O          -0.5799  -28.0328  -46.5298 O.2       13 UNK        -0.5000 
     79 N          -0.7855  -26.0553  -47.6235 N.am      14 UNK        -0.5000 
     80 CA         -0.2609  -26.4827  -48.9235 C.3       14 UNK         0.1400 
     81 CB          0.8596  -25.5187  -49.3525 C.3       14 UNK        -0.1800 
     82 C          -1.3813  -26.5440  -49.9812 C.2       14 UNK         0.5000 
     83 O          -1.0946  -26.8119  -51.1484 O.2       14 UNK        -0.5000 
     84 N          -2.6285  -26.2820  -49.5562 N.am      15 UNK        -0.5000 
     85 CA         -3.8588  -26.2048  -50.3478 C.3       15 UNK         0.1400 
     86 CB         -4.2360  -27.5966  -50.8946 C.3       15 UNK        -0.1800 
     87 C          -3.8129  -25.1232  -51.4475 C.2       15 UNK         0.5000 
     88 O          -4.4805  -25.2652  -52.4732 O.2       15 UNK        -0.5000 
     89 N          -3.0369  -24.0514  -51.2246 N.am      16 UNK        -0.5000 
     90 CA         -2.7820  -23.0043  -52.2144 C.3       16 UNK         0.1400 
     91 CB         -1.6582  -22.0846  -51.7181 C.3       16 UNK        -0.1800 
     92 C          -4.0298  -22.1936  -52.6120 C.2       16 UNK         0.5000 
     93 O          -4.0773  -21.6874  -53.7333 O.2       16 UNK        -0.5000 
     94 N          -5.0266  -22.0974  -51.7197 N.am      17 UNK        -0.5000 
     95 CA         -6.3072  -21.4513  -52.0147 C.3       17 UNK         0.1400 
     96 CB         -6.9900  -21.0149  -50.7121 C.3       17 UNK        -0.1800 
     97 C          -7.2347  -22.3517  -52.8488 C.2       17 UNK         0.5000 
     98 O          -7.9590  -21.8435  -53.7038 O.2       17 UNK        -0.5000 
     99 N          -7.1723  -23.6719  -52.6213 N.am      18 UNK        -0.5000 
    100 CA        -7.9042  -24.6775  -53.3972 C.3       18 UNK         0.1400 
    101 CB        -7.9215  -26.0088  -52.6320 C.3       18 UNK        -0.1800 
    102 C         -7.3070  -24.8574  -54.8050 C.2       18 UNK         0.5000 
    103 O         -8.0528  -25.0350  -55.7683 O.2       18 UNK        -0.5000 
    104 N         -5.9740  -24.7548  -54.9009 N.am      19 UNK        -0.5000 
    105 CA        -5.2128  -24.7229  -56.1517 C.3       19 UNK         0.1400 
    106 CB        -3.7315  -24.9723  -55.8277 C.3       19 UNK        -0.1800 
    107 C         -5.3713  -23.4014  -56.9350 C.2       19 UNK         0.5000 
    108 O         -4.9771  -23.3454  -58.1001 O.2       19 UNK        -0.5000 
    109 N         -5.9245  -22.3685  -56.2805 N.am      20 UNK        -0.5000 
    110 CA        -6.1519  -21.0044  -56.7696 C.3       20 UNK         0.1400 
    111 CB        -7.1373  -20.9952  -57.9568 C.3       20 UNK        -0.1800 
    112 C         -4.8496  -20.2266  -57.0564 C.2       20 UNK         0.5000 
    113 O         -4.8518  -19.2959  -57.8644 O.2       20 UNK        -0.5000 
    114 N         -3.7642  -20.6030  -56.3682 N.am      21 UNK        -0.5000 
    115 CA        -2.5036  -19.8638  -56.3315 C.3       21 UNK         0.1400 
    116 CB        -1.3705  -20.8191  -55.9257 C.3       21 UNK        -0.1800 
    117 C         -2.5986  -18.6768  -55.3557 C.2       21 UNK         0.5000 
    118 O         -2.0527  -17.6090  -55.6366 O.2       21 UNK        -0.5000 
    119 N         -3.3208  -18.8875  -54.2502 N.am      22 UNK        -0.5000 
    120 CA        -3.7071  -17.8743  -53.2620 C.3       22 UNK         0.1400 
    121 C         -5.2187  -17.5386  -53.3831 C.2       22 UNK         0.5000 
    122 N         -5.6486  -16.4040  -52.8481 N.am      22 UNK        -0.7600 
    123 O         -6.0128  -18.2952  -53.9382 O.2       22 UNK        -0.5000 
    124 C124       -3.3505  -18.3311  -51.8242 C.3       23 UNK        -0.0398 
    125 S125       -1.5429  -18.4278  -51.5846 S.3       23 UNK        -0.2404 
    126 C126       -1.2222  -16.9790  -50.5305 C.3       23 UNK        -0.0205 
    127 H127       -1.9061  -14.7138  -47.3151 H         1 UNK         0.0600 
    128 H128       -1.4730  -13.1059  -46.7056 H         1 UNK         0.0600 
    129 H129       -3.1625  -13.5349  -46.9510 H         1 UNK         0.0600 
    130 H130       -1.2580  -15.1911  -43.6185 H         1 UNK         0.3000 
    131 H131        0.1480  -14.9183  -46.1830 H         1 UNK         0.0600 
    132 H132        0.3372  -16.8700  -44.2939 H         1 UNK         0.0800 
    133 H133        1.5793  -15.8366  -43.6818 H         1 UNK         0.0800 
    134 H134        1.1598  -18.8779  -45.4789 H         1 UNK         0.0800 
    135 H135        1.9716  -18.7985  -47.0207 H         1 UNK         0.0800 
    136 H136        0.9104  -17.5522  -48.9431 H         1 UNK         0.1150 
    137 H137       -3.3605  -17.2249  -48.8481 H         1 UNK         0.1150 
    138 H138       -1.2238  -18.3479  -45.3117 H         1 UNK         0.1150 
    139 H139       -4.5265  -17.3438  -46.7338 H         1 UNK         0.0800 
    140 H140       -3.6281  -17.5017  -45.2492 H         1 UNK         0.0800 
    141 H141       -4.3850  -19.3194  -48.4687 H         1 UNK         0.0800 
    142 H142       -5.6704  -20.3347  -47.9370 H         1 UNK         0.0800 
    143 H143       -3.6697  -21.3124  -49.3598 H         1 UNK         0.0600 
    144 H144       -2.1971  -20.6038  -47.1216 H         1 UNK         0.3000 
    145 H145        0.0740  -23.2247  -46.6968 H         1 UNK         0.0600 
    146 H146        1.8149  -21.4703  -47.1305 H         1 UNK         0.0600 
    147 H147        0.6461  -20.5703  -48.1041 H         1 UNK         0.0600 
    148 H148        1.1799  -22.1612  -48.6145 H         1 UNK         0.0600 
    149 H149        0.1684  -20.7134  -45.5155 H         1 UNK         0.3000 
    150 H150       -1.9504  -19.9940  -43.8100 H         1 UNK         0.0600 
    151 H151       -1.7747  -22.4877  -42.0417 H         1 UNK         0.0600 
    152 H152       -3.2507  -21.7607  -42.6694 H         1 UNK         0.0600 
    153 H153       -2.2788  -20.8869  -41.4997 H         1 UNK         0.0600 
    154 H154        0.6093  -21.3099  -43.0988 H         1 UNK         0.3000 
    155 H155        1.8567  -20.1201  -41.2576 H         1 UNK         0.0600 
    156 H156        2.7368  -18.3157  -43.5800 H         1 UNK         0.0600 
    157 H157        2.5628  -20.0582  -43.7706 H         1 UNK         0.0600 
    158 H158        3.7358  -19.4154  -42.6478 H         1 UNK         0.0600 
    159 H159        0.8187  -17.5852  -41.0864 H         1 UNK         0.3000 
    160 H160        1.5666  -15.7765  -40.0476 H         1 UNK         0.0600 
    161 H161        3.1724  -17.0109  -37.7281 H         1 UNK         0.0600 
    162 H162        1.4637  -17.3021  -38.0327 H         1 UNK         0.0600 
    163 H163        2.0086  -15.6944  -37.5893 H         1 UNK         0.0600 
    164 H164        4.4012  -15.7472  -40.2796 H         1 UNK         0.3000 
    165 H165        4.5778  -12.1889  -40.0455 H         1 UNK         0.0600 
    166 H166        5.5560  -13.0163  -37.9015 H         1 UNK         0.0600 
    167 H167        6.2779  -14.3833  -38.7413 H         1 UNK         0.0600 
    168 H168        6.8041  -12.7394  -39.1056 H         1 UNK         0.0600 
    169 H169        6.2953  -14.1654  -41.2071 H         1 UNK         0.3000 
    170 H170        6.5588  -13.8954  -43.5623 H         1 UNK         0.0600 
    171 H171        4.2307  -15.9048  -43.7114 H         1 UNK         0.0600 
    172 H172        5.7148  -16.1227  -42.7939 H         1 UNK         0.0600 
    173 H173        5.7697  -16.0872  -44.5487 H         1 UNK         0.0600 
    174 H174        3.9490  -13.3485  -44.8414 H         1 UNK         0.3000 
    175 H175        5.6134  -12.1690  -47.7913 H         1 UNK         0.0600 
    176 H176        5.1654  -14.5528  -48.3519 H         1 UNK         0.0600 
    177 H177        3.6193  -14.4766  -47.5146 H         1 UNK         0.0600 
    178 H178        3.8894  -13.5113  -48.9645 H         1 UNK         0.0600 
    179 H179        3.0205  -12.3140  -46.2897 H         1 UNK         0.3000 
    180 H180        2.5391   -8.8643  -46.4788 H         1 UNK         0.0600 
    181 H181        1.1683  -10.7234  -48.4942 H         1 UNK         0.0600 
    182 H182        1.9809   -9.2117  -48.8814 H         1 UNK         0.0600 
    183 H183        0.5260   -9.1917  -47.8989 H         1 UNK         0.0600 
    184 H184        0.7708  -11.1556  -46.1209 H         1 UNK         0.3000 
    185 H185        1.4766  -11.6364  -42.7145 H         1 UNK         0.0600 
    186 H186        0.0796   -9.5663  -42.5433 H         1 UNK         0.0600 
    187 H187       -0.9884  -10.1850  -43.7975 H         1 UNK         0.0600 
    188 H188       -0.8596  -11.0190  -42.2480 H         1 UNK         0.0600 
    189 H189       -0.6695  -12.7534  -43.8932 H         1 UNK         0.3000 
    190 H190       -3.7647  -22.7820  -46.1211 H         1 UNK         0.3000 
    191 H191       -5.7171  -24.8431  -47.0685 H         1 UNK         0.0600 
    192 H192       -6.4356  -23.5818  -45.0602 H         1 UNK         0.0600 
    193 H193       -6.0709  -25.2476  -44.6362 H         1 UNK         0.0600 
    194 H194       -4.9261  -23.9701  -44.2384 H         1 UNK         0.0600 
    195 H195       -2.5906  -24.3530  -45.3400 H         1 UNK         0.3000 
    196 H196       -2.1354  -27.0872  -44.8047 H         1 UNK         0.0600 
    197 H197        0.1034  -26.3012  -44.0756 H         1 UNK         0.0600 
    198 H198       -1.1522  -25.2160  -43.4986 H         1 UNK         0.0600 
    199 H199       -0.1504  -24.7550  -44.8725 H         1 UNK         0.0600 
    200 H200       -1.1357  -25.1054  -47.5866 H         1 UNK         0.3000 
    201 H201        0.1672  -27.4845  -48.8555 H         1 UNK         0.0600 
    202 H202        1.3461  -25.8690  -50.2635 H         1 UNK         0.0600 
    203 H203        1.6291  -25.4408  -48.5845 H         1 UNK         0.0600 
    204 H204        0.4826  -24.5163  -49.5528 H         1 UNK         0.0600 
    205 H205       -2.7477  -26.1176  -48.5669 H         1 UNK         0.3000 
    206 H206       -4.6451  -25.8981  -49.6568 H         1 UNK         0.0600 
    207 H207       -4.2514  -28.3410  -50.0985 H         1 UNK         0.0600 
    208 H208       -5.2284  -27.5876  -51.3445 H         1 UNK         0.0600 
    209 H209       -3.5348  -27.9350  -51.6580 H         1 UNK         0.0600 
    210 H210       -2.5324  -23.9844  -50.3470 H         1 UNK         0.3000 
    211 H211       -2.4219  -23.4989  -53.1181 H         1 UNK         0.0600 
    212 H212       -1.3843  -21.3584  -52.4838 H         1 UNK         0.0600 
    213 H213       -0.7602  -22.6531  -51.4756 H         1 UNK         0.0600 
    214 H214       -1.9473  -21.5250  -50.8303 H         1 UNK         0.0600 
    215 H215       -4.9450  -22.5738  -50.8276 H         1 UNK         0.3000 
    216 H216       -6.1169  -20.5510  -52.6005 H         1 UNK         0.0600 
    217 H217       -6.3792  -20.2869  -50.1807 H         1 UNK         0.0600 
    218 H218       -7.1780  -21.8584  -50.0476 H         1 UNK         0.0600 
    219 H219       -7.9499  -20.5391  -50.9168 H         1 UNK         0.0600 
    220 H220       -6.5161  -24.0179  -51.9364 H         1 UNK         0.3000 
    221 H221       -8.9367  -24.3402  -53.5113 H         1 UNK         0.0600 
    222 H222       -6.9189  -26.4169  -52.5103 H         1 UNK         0.0600 
    223 H223       -8.3599  -25.8903  -51.6410 H         1 UNK         0.0600 
    224 H224       -8.5144  -26.7540  -53.1636 H         1 UNK         0.0600 
    225 H225       -5.4340  -24.7058  -54.0408 H         1 UNK         0.3000 
    226 H226       -5.5681  -25.5328  -56.7919 H         1 UNK         0.0600 
    227 H227       -3.5963  -25.9064  -55.2820 H         1 UNK         0.0600 
    228 H228       -3.1368  -25.0386  -56.7395 H         1 UNK         0.0600 
    229 H229       -3.3144  -24.1669  -55.2232 H         1 UNK         0.0600 
    230 H230       -6.2018  -22.5286  -55.3224 H         1 UNK         0.3000 
    231 H231       -6.6324  -20.4743  -55.9457 H         1 UNK         0.0600 
    232 H232       -6.6991  -21.4358  -58.8526 H         1 UNK         0.0600 
    233 H233       -7.4367  -19.9771  -58.2079 H         1 UNK         0.0600 
    234 H234       -8.0454  -21.5491  -57.7186 H         1 UNK         0.0600 
    235 H235       -3.8772  -21.3301  -55.6699 H         1 UNK         0.3000 
    236 H236       -2.2838  -19.4732  -57.3274 H         1 UNK         0.0600 
    237 H237       -1.5420  -21.2548  -54.9412 H         1 UNK         0.0600 
    238 H238       -1.2715  -21.6368  -56.6398 H         1 UNK         0.0600 
    239 H239       -0.4136  -20.2969  -55.8922 H         1 UNK         0.0600 
    240 H240       -3.7495  -19.7989  -54.1285 H         1 UNK         0.3000 
    241 H241       -3.1689  -16.9465  -53.4659 H         1 UNK         0.0600 
    242 H242       -5.0235  -15.7534  -52.3983 H         1 UNK         0.3800 
    243 H243       -6.6285  -16.1768  -52.9167 H         1 UNK         0.3800 
    244 H244       -3.7753  -17.6523  -51.0847 H         1 UNK         0.0800 
    245 H245       -3.7817  -19.3101  -51.6122 H         1 UNK         0.0800 
    246 H246       -0.2509  -16.5631  -50.8024 H         1 UNK         0.0800 
    247 H247       -1.9493  -16.1896  -50.7255 H         1 UNK         0.0800 
@<TRIPOS>BOND
     1    1    2 1    
     2    1  127 1    
     3    1  128 1    
     4    1  129 1    
     5    2    3 2    
     6    2    4 am   BACKBONE|DICT|INTERRES
     7    4    5 1    
     8    4  130 1    
     9    5    6 1    
    10    5   65 1    
    11    5  131 1    
    12    6    7 1    
    13    6  132 1    
    14    6  133 1    
    15    7    8 1    
    16    8    9 1    
    17    8  134 1    
    18    8  135 1    
    19    9   10 ar   
    20    9   14 ar   
    21   10   11 ar   
    22   10  136 1    
    23   11   12 ar   
    24   11  126 1    
    25   12   13 ar   
    26   12  137 1    
    27   13   14 ar   
    28   13   15 1    
    29   14  138 1    
    30   15   16 1    
    31   15  139 1    
    32   15  140 1    
    33   16   17 1    
    34   17   18 1    
    35   17  141 1    
    36   17  142 1    
    37   18   19 1    
    38   18   67 1    
    39   18  143 1    
    40   19   20 am   BACKBONE|DICT|INTERRES
    41   19  144 1    
    42   20   21 2    
    43   20   22 1    
    44   22   23 1    
    45   22   24 1    
    46   22  145 1    
    47   23  146 1    
    48   23  147 1    
    49   23  148 1    
    50   24   25 am   BACKBONE|DICT|INTERRES
    51   24  149 1    
    52   25   26 2    
    53   25   27 1    
    54   27   28 1    
    55   27   29 1    
    56   27  150 1    
    57   28  151 1    
    58   28  152 1    
    59   28  153 1    
    60   29   30 am   BACKBONE|DICT|INTERRES
    61   29  154 1    
    62   30   31 2    
    63   30   32 1    
    64   32   33 1    
    65   32   34 1    
    66   32  155 1    
    67   33  156 1    
    68   33  157 1    
    69   33  158 1    
    70   34   35 am   BACKBONE|DICT|INTERRES
    71   34  159 1    
    72   35   36 2    
    73   35   37 1    
    74   37   38 1    
    75   37   39 1    
    76   37  160 1    
    77   38  161 1    
    78   38  162 1    
    79   38  163 1    
    80   39   40 am   BACKBONE|DICT|INTERRES
    81   39  164 1    
    82   40   41 2    
    83   40   42 1    
    84   42   43 1    
    85   42   44 1    
    86   42  165 1    
    87   43  166 1    
    88   43  167 1    
    89   43  168 1    
    90   44   45 am   BACKBONE|DICT|INTERRES
    91   44  169 1    
    92   45   46 2    
    93   45   47 1    
    94   47   48 1    
    95   47   49 1    
    96   47  170 1    
    97   48  171 1    
    98   48  172 1    
    99   48  173 1    
   100   49   50 am   BACKBONE|DICT|INTERRES
   101   49  174 1    
   102   50   51 2    
   103   50   52 1    
   104   52   53 1    
   105   52   54 1    
   106   52  175 1    
   107   53  176 1    
   108   53  177 1    
   109   53  178 1    
   110   54   55 am   BACKBONE|DICT|INTERRES
   111   54  179 1    
   112   55   56 2    
   113   55   57 1    
   114   57   58 1    
   115   57   59 1    
   116   57  180 1    
   117   58  181 1    
   118   58  182 1    
   119   58  183 1    
   120   59   60 am   BACKBONE|DICT|INTERRES
   121   59  184 1    
   122   60   61 2    
   123   60   62 1    
   124   62   63 1    
   125   62   64 1    
   126   62  185 1    
   127   63  186 1    
   128   63  187 1    
   129   63  188 1    
   130   64   65 am   BACKBONE|DICT|INTERRES
   131   64  189 1    
   132   65   66 2    
   133   67   68 2    
   134   67   69 am   BACKBONE|DICT|INTERRES
   135   69   70 1    
   136   69  190 1    
   137   70   71 1    
   138   70   72 1    
   139   70  191 1    
   140   71  192 1    
   141   71  193 1    
   142   71  194 1    
   143   72   73 2    
   144   72   74 am   BACKBONE|DICT|INTERRES
   145   74   75 1    
   146   74  195 1    
   147   75   76 1    
   148   75   77 1    
   149   75  196 1    
   150   76  197 1    
   151   76  198 1    
   152   76  199 1    
   153   77   78 2    
   154   77   79 am   BACKBONE|DICT|INTERRES
   155   79   80 1    
   156   79  200 1    
   157   80   81 1    
   158   80   82 1    
   159   80  201 1    
   160   81  202 1    
   161   81  203 1    
   162   81  204 1    
   163   82   83 2    
   164   82   84 am   BACKBONE|DICT|INTERRES
   165   84   85 1    
   166   84  205 1    
   167   85   86 1    
   168   85   87 1    
   169   85  206 1    
   170   86  207 1    
   171   86  208 1    
   172   86  209 1    
   173   87   88 2    
   174   87   89 am   BACKBONE|DICT|INTERRES
   175   89   90 1    
   176   89  210 1    
   177   90   91 1    
   178   90   92 1    
   179   90  211 1    
   180   91  212 1    
   181   91  213 1    
   182   91  214 1    
   183   92   93 2    
   184   92   94 am   BACKBONE|DICT|INTERRES
   185   94   95 1    
   186   94  215 1    
   187   95   96 1    
   188   95   97 1    
   189   95  216 1    
   190   96  217 1    
   191   96  218 1    
   192   96  219 1    
   193   97   98 2    
   194   97   99 am   BACKBONE|DICT|INTERRES
   195   99  100 1    
   196   99  220 1    
   197  100  101 1    
   198  100  102 1    
   199  100  221 1    
   200  101  222 1    
   201  101  223 1    
   202  101  224 1    
   203  102  103 2    
   204  102  104 am   BACKBONE|DICT|INTERRES
   205  104  105 1    
   206  104  225 1    
   207  105  106 1    
   208  105  107 1    
   209  105  226 1    
   210  106  227 1    
   211  106  228 1    
   212  106  229 1    
   213  107  108 2    
   214  107  109 am   BACKBONE|DICT|INTERRES
   215  109  110 1    
   216  109  230 1    
   217  110  111 1    
   218  110  112 1    
   219  110  231 1    
   220  111  232 1    
   221  111  233 1    
   222  111  234 1    
   223  112  113 2    
   224  112  114 am   BACKBONE|DICT|INTERRES
   225  114  115 1    
   226  114  235 1    
   227  115  116 1    
   228  115  117 1    
   229  115  236 1    
   230  116  237 1    
   231  116  238 1    
   232  116  239 1    
   233  117  118 2    
   234  117  119 am   BACKBONE|DICT|INTERRES
   235  119  120 1    
   236  119  240 1    
   237  120  121 1    
   238  120  124 1    
   239  120  241 1    
   240  121  122 am   BACKBONE|DICT|INTERRES
   241  121  123 2    
   242  122  242 1    
   243  122  243 1    
   244  124  125 1    
   245  124  244 1    
   246  124  245 1    
   247  125  126 1    
   248  126  246 1    
   249  126  247 1    
@<TRIPOS>SUBSTRUCTURE
     1 UNK         1 GROUP             0       ****    0 ROOT    
