@<TRIPOS>MOLECULE
3R540
247   249    1
SMALL
USER_CHARGES


@<TRIPOS>ATOM
      1 CA         -3.5160  -18.0470  -42.7760 C.3       0 UNK        -0.1800 
      2 C          -2.9544  -16.7012  -43.2103 C.2       0 UNK         0.5000 
      3 O          -3.0125  -15.7344  -42.4505 O.2       0 UNK        -0.5000 
      4 N          -2.3801  -16.6363  -44.4191 N.am      1 UNK        -0.5000 
      5 CA         -1.7999  -15.4283  -45.0273 C.3       1 UNK         0.1400 
      6 C6         -1.6337  -15.5538  -46.5629 C.3       23 UNK        -0.0398 
      7 S7         -0.8464  -17.1013  -47.1330 S.3       23 UNK        -0.2404 
      8 C8          0.2826  -16.4770  -48.4202 C.3       23 UNK        -0.0205 
      9 C9          0.5918  -17.5325  -49.4725 C.ar      23 UNK        -0.0193 
     10 C10         0.2774  -17.3062  -50.8147 C.ar      23 UNK        -0.1150 
     11 C11         0.5614  -18.2732  -51.7827 C.ar      23 UNK        -0.0193 
     12 C12         1.1597  -19.4774  -51.3984 C.ar      23 UNK        -0.1150 
     13 C13         1.4906  -19.7189  -50.0613 C.ar      23 UNK        -0.0193 
     14 C14         1.2080  -18.7317  -49.1088 C.ar      23 UNK        -0.1150 
     15 C15         2.1580  -21.0481  -49.6935 C.3       23 UNK        -0.0205 
     16 S16         2.0043  -21.5531  -47.9415 S.3       23 UNK        -0.2404 
     17 C17         0.1936  -21.5152  -47.7343 C.3       23 UNK        -0.0398 
     18 CA         -0.3663  -22.7562  -47.0131 C.3       11 UNK         0.1400 
     19 N           0.1378  -22.8735  -45.6442 N.am      11 UNK        -0.5000 
     20 C          -0.0794  -23.9204  -44.8360 C.2       10 UNK         0.5000 
     21 O          -0.6905  -24.9294  -45.1838 O.2       10 UNK        -0.5000 
     22 CA          0.4061  -23.8000  -43.3784 C.3       10 UNK         0.1400 
     23 CB          1.7827  -24.4610  -43.2180 C.3       10 UNK        -0.1800 
     24 N           0.4793  -22.4207  -42.8905 N.am      10 UNK        -0.5000 
     25 C          -0.5332  -21.5410  -42.8637 C.2       9 UNK         0.5000 
     26 O          -1.6805  -21.8114  -43.2194 O.2       9 UNK        -0.5000 
     27 CA         -0.1975  -20.1059  -42.4158 C.3       9 UNK         0.1400 
     28 CB         -0.6375  -19.8841  -40.9614 C.3       9 UNK        -0.1800 
     29 N           1.2227  -19.7628  -42.5521 N.am      9 UNK        -0.5000 
     30 C           1.8718  -19.6455  -43.7191 C.2       8 UNK         0.5000 
     31 O           1.3460  -19.8369  -44.8184 O.2       8 UNK        -0.5000 
     32 CA          3.3677  -19.3145  -43.6328 C.3       8 UNK         0.1400 
     33 CB          4.1982  -20.6002  -43.4853 C.3       8 UNK        -0.1800 
     34 N           3.7692  -18.6180  -44.8478 N.am      8 UNK        -0.5000 
     35 C           4.6459  -17.6093  -44.9205 C.2       7 UNK         0.5000 
     36 O           5.2578  -17.1647  -43.9472 O.2       7 UNK        -0.5000 
     37 CA          4.9070  -16.9903  -46.3137 C.3       7 UNK         0.1400 
     38 CB          4.2448  -17.7595  -47.4755 C.3       7 UNK        -0.1800 
     39 N           4.5408  -15.5710  -46.3952 N.am      7 UNK        -0.5000 
     40 C           3.3563  -15.0254  -46.0840 C.2       6 UNK         0.5000 
     41 O           2.4129  -15.6486  -45.5978 O.2       6 UNK        -0.5000 
     42 CA          3.1823  -13.5341  -46.4062 C.3       6 UNK         0.1400 
     43 CB          2.0639  -13.3200  -47.4389 C.3       6 UNK        -0.1800 
     44 N           2.8448  -12.8065  -45.1881 N.am      6 UNK        -0.5000 
     45 C           3.7270  -12.1174  -44.4525 C.2       5 UNK         0.5000 
     46 O           4.9214  -12.0275  -44.7435 O.2       5 UNK        -0.5000 
     47 CA          3.2067  -11.4284  -43.1724 C.3       5 UNK         0.1400 
     48 CB          3.9747  -10.1327  -42.8357 C.3       5 UNK        -0.1800 
     49 N           1.7577  -11.1996  -43.1591 N.am      5 UNK        -0.5000 
     50 C           1.0357  -10.3894  -43.9508 C.2       4 UNK         0.5000 
     51 O           1.5277   -9.6773  -44.8269 O.2       4 UNK        -0.5000 
     52 CA         -0.4951  -10.3797  -43.7407 C.3       4 UNK         0.1400 
     53 CB         -1.2432  -10.5152  -45.0788 C.3       4 UNK        -0.1800 
     54 N          -0.9261  -11.4628  -42.8546 N.am      4 UNK        -0.5000 
     55 C          -1.2082  -11.3414  -41.5494 C.2       3 UNK         0.5000 
     56 O          -1.2369  -10.2642  -40.9541 O.2       3 UNK        -0.5000 
     57 CA         -1.4667  -12.6468  -40.7644 C.3       3 UNK         0.1400 
     58 CB         -2.9752  -12.9022  -40.6321 C.3       3 UNK        -0.1800 
     59 N          -0.8323  -13.8235  -41.3678 N.am      3 UNK        -0.5000 
     60 C           0.4936  -13.9958  -41.4947 C.2       2 UNK         0.5000 
     61 O           1.3215  -13.2258  -41.0099 O.2       2 UNK        -0.5000 
     62 CA          0.9865  -15.1703  -42.3655 C.3       2 UNK         0.1400 
     63 CB          1.4291  -16.3395  -41.4790 C.3       2 UNK        -0.1800 
     64 N          -0.0118  -15.6373  -43.3304 N.am      2 UNK        -0.5000 
     65 C          -0.5367  -14.8903  -44.3135 C.2       1 UNK         0.5000 
     66 O          -0.1224  -13.7615  -44.5869 O.2       1 UNK        -0.5000 
     67 C          -1.9066  -22.7261  -47.0832 C.2       11 UNK         0.5000 
     68 O          -2.4598  -23.1759  -48.0860 O.2       11 UNK        -0.5000 
     69 N          -2.5798  -22.2039  -46.0476 N.am      12 UNK        -0.5000 
     70 CA         -4.0409  -22.1938  -45.9655 C.3       12 UNK         0.1400 
     71 CB         -4.5050  -21.1066  -44.9858 C.3       12 UNK        -0.1800 
     72 C          -4.5889  -23.5744  -45.5689 C.2       12 UNK         0.5000 
     73 O          -5.6087  -23.9976  -46.1120 O.2       12 UNK        -0.5000 
     74 N          -3.8761  -24.2716  -44.6718 N.am      13 UNK        -0.5000 
     75 CA         -4.1822  -25.6399  -44.2465 C.3       13 UNK         0.1400 
     76 CB         -3.3378  -25.9938  -43.0126 C.3       13 UNK        -0.1800 
     77 C          -3.9667  -26.6665  -45.3752 C.2       13 UNK         0.5000 
     78 O          -4.7818  -27.5744  -45.5398 O.2       13 UNK        -0.5000 
     79 N          -2.8936  -26.4772  -46.1552 N.am      14 UNK        -0.5000 
     80 CA         -2.5633  -27.2635  -47.3461 C.3       14 UNK         0.1400 
     81 CB         -1.0829  -27.0308  -47.6890 C.3       14 UNK        -0.1800 
     82 C          -3.4456  -26.9345  -48.5684 C.2       14 UNK         0.5000 
     83 O          -3.4082  -27.6774  -49.5495 O.2       14 UNK        -0.5000 
     84 N          -4.1909  -25.8205  -48.5001 N.am      15 UNK        -0.5000 
     85 CA         -5.0398  -25.2357  -49.5449 C.3       15 UNK         0.1400 
     86 CB         -6.1840  -26.1913  -49.9414 C.3       15 UNK        -0.1800 
     87 C          -4.2500  -24.7071  -50.7629 C.2       15 UNK         0.5000 
     88 O          -4.8295  -24.4999  -51.8290 O.2       15 UNK        -0.5000 
     89 N          -2.9511  -24.4446  -50.5719 N.am      16 UNK        -0.5000 
     90 CA         -2.0596  -23.8248  -51.5488 C.3       16 UNK         0.1400 
     91 CB         -0.6011  -24.0410  -51.1167 C.3       16 UNK        -0.1800 
     92 C          -2.3592  -22.3267  -51.7129 C.2       16 UNK         0.5000 
     93 O          -2.3625  -21.8306  -52.8384 O.2       16 UNK        -0.5000 
     94 N          -2.6485  -21.6454  -50.5951 N.am      17 UNK        -0.5000 
     95 CA         -3.0573  -20.2376  -50.5765 C.3       17 UNK         0.1400 
     96 CB         -2.8442  -19.6613  -49.1680 C.3       17 UNK        -0.1800 
     97 C          -4.5187  -20.0388  -51.0266 C.2       17 UNK         0.5000 
     98 O          -4.8873  -18.9365  -51.4310 O.2       17 UNK        -0.5000 
     99 N          -5.3261  -21.1048  -50.9353 N.am      18 UNK        -0.5000 
    100 CA        -6.7364  -21.1256  -51.3239 C.3       18 UNK         0.1400 
    101 CB        -7.4566  -22.2093  -50.5058 C.3       18 UNK        -0.1800 
    102 C         -6.9447  -21.3620  -52.8329 C.2       18 UNK         0.5000 
    103 O         -8.0432  -21.1088  -53.3303 O.2       18 UNK        -0.5000 
    104 N         -5.9127  -21.8554  -53.5326 N.am      19 UNK        -0.5000 
    105 CA        -5.9227  -22.1057  -54.9734 C.3       19 UNK         0.1400 
    106 CB        -4.6589  -22.8947  -55.3505 C.3       19 UNK        -0.1800 
    107 C         -6.0020  -20.7975  -55.7819 C.2       19 UNK         0.5000 
    108 O         -5.4221  -19.7904  -55.3719 O.2       19 UNK        -0.5000 
    109 N         -6.6842  -20.8454  -56.9341 N.am      20 UNK        -0.5000 
    110 CA        -6.8914  -19.6981  -57.8250 C.3       20 UNK         0.1400 
    111 CB        -7.9229  -20.0698  -58.9014 C.3       20 UNK        -0.1800 
    112 C         -5.5916  -19.1841  -58.4731 C.2       20 UNK         0.5000 
    113 O         -5.4206  -17.9732  -58.6184 O.2       20 UNK        -0.5000 
    114 N         -4.6921  -20.1127  -58.8268 N.am      21 UNK        -0.5000 
    115 CA        -3.3514  -19.8116  -59.3374 C.3       21 UNK         0.1400 
    116 CB        -2.8284  -21.0333  -60.1090 C.3       21 UNK        -0.1800 
    117 C         -2.3651  -19.4216  -58.2174 C.2       21 UNK         0.5000 
    118 O         -1.3878  -18.7244  -58.4900 O.2       21 UNK        -0.5000 
    119 N         -2.6590  -19.8727  -56.9908 N.am      22 UNK        -0.5000 
    120 CA        -1.8758  -19.7451  -55.7558 C.3       22 UNK         0.1400 
    121 C         -0.5807  -20.6059  -55.7716 C.2       22 UNK         0.5000 
    122 N         -0.4307  -21.5208  -54.8256 N.am      22 UNK        -0.7600 
    123 O          0.3046  -20.4355  -56.6055 O.2       22 UNK        -0.5000 
    124 C124       -1.6043  -18.2699  -55.3565 C.3       23 UNK        -0.0398 
    125 S125       -1.5550  -18.0696  -53.5454 S.3       23 UNK        -0.2404 
    126 C126        0.2364  -18.0101  -53.2447 C.3       23 UNK        -0.0205 
    127 H127       -3.2068  -18.2720  -41.7555 H         1 UNK         0.0600 
    128 H128       -3.1703  -18.8555  -43.4195 H         1 UNK         0.0600 
    129 H129       -4.6052  -18.0260  -42.8058 H         1 UNK         0.0600 
    130 H130       -2.3367  -17.4622  -44.9999 H         1 UNK         0.3000 
    131 H131       -2.5390  -14.6381  -44.8770 H         1 UNK         0.0600 
    132 H132       -1.1030  -14.6883  -46.9619 H         1 UNK         0.0800 
    133 H133       -2.6206  -15.5186  -47.0260 H         1 UNK         0.0800 
    134 H134       -0.1527  -15.5960  -48.8938 H         1 UNK         0.0800 
    135 H135        1.2122  -16.1537  -47.9539 H         1 UNK         0.0800 
    136 H136       -0.1912  -16.3785  -51.1118 H         1 UNK         0.1150 
    137 H137        1.3750  -20.2284  -52.1459 H         1 UNK         0.1150 
    138 H138        1.4448  -18.8936  -48.0687 H         1 UNK         0.1150 
    139 H139        1.7467  -21.8464  -50.3133 H         1 UNK         0.0800 
    140 H140        3.2181  -20.9805  -49.9402 H         1 UNK         0.0800 
    141 H141       -0.2585  -21.4279  -48.7235 H         1 UNK         0.0800 
    142 H142       -0.0717  -20.6046  -47.1931 H         1 UNK         0.0800 
    143 H143       -0.0402  -23.6437  -47.5593 H         1 UNK         0.0600 
    144 H144        0.6465  -22.0743  -45.2882 H         1 UNK         0.3000 
    145 H145       -0.3096  -24.3343  -42.7507 H         1 UNK         0.0600 
    146 H146        2.1002  -24.4653  -42.1751 H         1 UNK         0.0600 
    147 H147        1.7591  -25.4990  -43.5531 H         1 UNK         0.0600 
    148 H148        2.5469  -23.9448  -43.8007 H         1 UNK         0.0600 
    149 H149        1.3845  -22.1039  -42.5780 H         1 UNK         0.3000 
    150 H150       -0.7675  -19.4284  -43.0542 H         1 UNK         0.0600 
    151 H151       -0.0606  -20.4974  -40.2682 H         1 UNK         0.0600 
    152 H152       -1.6893  -20.1409  -40.8271 H         1 UNK         0.0600 
    153 H153       -0.5221  -18.8422  -40.6656 H         1 UNK         0.0600 
    154 H154        1.7305  -19.6179  -41.6911 H         1 UNK         0.3000 
    155 H155        3.5339  -18.6758  -42.7633 H         1 UNK         0.0600 
    156 H156        4.0485  -21.2741  -44.3303 H         1 UNK         0.0600 
    157 H157        3.9276  -21.1426  -42.5786 H         1 UNK         0.0600 
    158 H158        5.2631  -20.3755  -43.4222 H         1 UNK         0.0600 
    159 H159        3.2383  -18.8759  -45.6699 H         1 UNK         0.3000 
    160 H160        5.9864  -17.0401  -46.4639 H         1 UNK         0.0600 
    161 H161        3.1609  -17.6960  -47.4144 H         1 UNK         0.0600 
    162 H162        4.5248  -18.8139  -47.4758 H         1 UNK         0.0600 
    163 H163        4.5436  -17.3482  -48.4397 H         1 UNK         0.0600 
    164 H164        5.2671  -14.9616  -46.7443 H         1 UNK         0.3000 
    165 H165        4.1073  -13.1484  -46.8401 H         1 UNK         0.0600 
    166 H166        1.9536  -12.2636  -47.6844 H         1 UNK         0.0600 
    167 H167        2.2819  -13.8499  -48.3668 H         1 UNK         0.0600 
    168 H168        1.1018  -13.6774  -47.0721 H         1 UNK         0.0600 
    169 H169        1.8872  -12.8984  -44.8694 H         1 UNK         0.3000 
    170 H170        3.4023  -12.1343  -42.3646 H         1 UNK         0.0600 
    171 H171        5.0335  -10.3362  -42.6716 H         1 UNK         0.0600 
    172 H172        3.9059   -9.3988  -43.6388 H         1 UNK         0.0600 
    173 H173        3.5911   -9.6723  -41.9252 H         1 UNK         0.0600 
    174 H174        1.2606  -11.7360  -42.4583 H         1 UNK         0.3000 
    175 H175       -0.7540   -9.4125  -43.3058 H         1 UNK         0.0600 
    176 H176       -1.0187   -9.6780  -45.7407 H         1 UNK         0.0600 
    177 H177       -0.9692  -11.4302  -45.6049 H         1 UNK         0.0600 
    178 H178       -2.3227  -10.5257  -44.9275 H         1 UNK         0.0600 
    179 H179       -0.8898  -12.3897  -43.2639 H         1 UNK         0.3000 
    180 H180       -1.0512  -12.5173  -39.7629 H         1 UNK         0.0600 
    181 H181       -3.4449  -13.0437  -41.6064 H         1 UNK         0.0600 
    182 H182       -3.4734  -12.0629  -40.1452 H         1 UNK         0.0600 
    183 H183       -3.1741  -13.7909  -40.0329 H         1 UNK         0.0600 
    184 H184       -1.4592  -14.5072  -41.7798 H         1 UNK         0.3000 
    185 H185        1.8543  -14.8190  -42.9277 H         1 UNK         0.0600 
    186 H186        2.1724  -16.0185  -40.7479 H         1 UNK         0.0600 
    187 H187        0.5911  -16.7689  -40.9303 H         1 UNK         0.0600 
    188 H188        1.8872  -17.1224  -42.0778 H         1 UNK         0.0600 
    189 H189       -0.4148  -16.5466  -43.1661 H         1 UNK         0.3000 
    190 H190       -2.0764  -21.8888  -45.2255 H         1 UNK         0.3000 
    191 H191       -4.4480  -21.9464  -46.9484 H         1 UNK         0.0600 
    192 H192       -4.1427  -20.1252  -45.2914 H         1 UNK         0.0600 
    193 H193       -5.5938  -21.0541  -44.9521 H         1 UNK         0.0600 
    194 H194       -4.1567  -21.2958  -43.9704 H         1 UNK         0.0600 
    195 H195       -3.0450  -23.8481  -44.2842 H         1 UNK         0.3000 
    196 H196       -5.2351  -25.6764  -43.9590 H         1 UNK         0.0600 
    197 H197       -3.5849  -26.9909  -42.6461 H         1 UNK         0.0600 
    198 H198       -3.5184  -25.2938  -42.1966 H         1 UNK         0.0600 
    199 H199       -2.2705  -25.9828  -43.2341 H         1 UNK         0.0600 
    200 H200       -2.2232  -25.7593  -45.8907 H         1 UNK         0.3000 
    201 H201       -2.7016  -28.3214  -47.1140 H         1 UNK         0.0600 
    202 H202       -0.7771  -27.6342  -48.5446 H         1 UNK         0.0600 
    203 H203       -0.4370  -27.3021  -46.8537 H         1 UNK         0.0600 
    204 H204       -0.8883  -25.9868  -47.9369 H         1 UNK         0.0600 
    205 H205       -4.1395  -25.2868  -47.6435 H         1 UNK         0.3000 
    206 H206       -5.4964  -24.3570  -49.0875 H         1 UNK         0.0600 
    207 H207       -6.7270  -26.5404  -49.0630 H         1 UNK         0.0600 
    208 H208       -6.9053  -25.6929  -50.5896 H         1 UNK         0.0600 
    209 H209       -5.8167  -27.0652  -50.4796 H         1 UNK         0.0600 
    210 H210       -2.5915  -24.5410  -49.6304 H         1 UNK         0.3000 
    211 H211       -2.2100  -24.3095  -52.5159 H         1 UNK         0.0600 
    212 H212       -0.3944  -23.5908  -50.1455 H         1 UNK         0.0600 
    213 H213        0.0888  -23.5990  -51.8368 H         1 UNK         0.0600 
    214 H214       -0.3647  -25.1031  -51.0492 H         1 UNK         0.0600 
    215 H215       -2.6358  -22.1394  -49.7081 H         1 UNK         0.3000 
    216 H216       -2.4203  -19.6806  -51.2651 H         1 UNK         0.0600 
    217 H217       -3.1772  -18.6238  -49.1156 H         1 UNK         0.0600 
    218 H218       -1.7897  -19.6644  -48.8971 H         1 UNK         0.0600 
    219 H219       -3.3938  -20.2210  -48.4114 H         1 UNK         0.0600 
    220 H220       -4.9326  -21.9725  -50.6068 H         1 UNK         0.3000 
    221 H221       -7.1858  -20.1615  -51.0765 H         1 UNK         0.0600 
    222 H222       -7.0960  -23.2068  -50.7552 H         1 UNK         0.0600 
    223 H223       -7.3195  -22.0571  -49.4350 H         1 UNK         0.0600 
    224 H224       -8.5297  -22.1941  -50.7005 H         1 UNK         0.0600 
    225 H225       -5.0400  -22.0211  -53.0530 H         1 UNK         0.3000 
    226 H226       -6.7975  -22.7173  -55.2037 H         1 UNK         0.0600 
    227 H227       -4.6535  -23.1451  -56.4119 H         1 UNK         0.0600 
    228 H228       -3.7513  -22.3281  -55.1418 H         1 UNK         0.0600 
    229 H229       -4.5999  -23.8315  -54.7955 H         1 UNK         0.0600 
    230 H230       -7.1272  -21.7111  -57.2074 H         1 UNK         0.3000 
    231 H231       -7.3046  -18.8823  -57.2278 H         1 UNK         0.0600 
    232 H232       -7.5829  -20.9041  -59.5161 H         1 UNK         0.0600 
    233 H233       -8.1125  -19.2272  -59.5677 H         1 UNK         0.0600 
    234 H234       -8.8771  -20.3487  -58.4538 H         1 UNK         0.0600 
    235 H235       -4.9253  -21.0862  -58.6967 H         1 UNK         0.3000 
    236 H236       -3.4161  -18.9718  -60.0328 H         1 UNK         0.0600 
    237 H237       -3.4868  -21.2866  -60.9401 H         1 UNK         0.0600 
    238 H238       -1.8401  -20.8367  -60.5268 H         1 UNK         0.0600 
    239 H239       -2.7440  -21.9106  -59.4663 H         1 UNK         0.0600 
    240 H240       -3.5178  -20.3910  -56.8898 H         1 UNK         0.3000 
    241 H241       -2.5405  -20.1684  -55.0012 H         1 UNK         0.0600 
    242 H242        0.4026  -22.0858  -54.8126 H         1 UNK         0.3800 
    243 H243       -1.1427  -21.6468  -54.1065 H         1 UNK         0.3800 
    244 H244       -0.6958  -17.8808  -55.8198 H         1 UNK         0.0800 
    245 H245       -2.4151  -17.6334  -55.7135 H         1 UNK         0.0800 
    246 H246        0.7409  -18.7411  -53.8779 H         1 UNK         0.0800 
    247 H247        0.6200  -17.0316  -53.5370 H         1 UNK         0.0800 
@<TRIPOS>BOND
     1    1    2 1    
     2    1  127 1    
     3    1  128 1    
     4    1  129 1    
     5    2    3 2    
     6    2    4 am   BACKBONE|DICT|INTERRES
     7    4    5 1    
     8    4  130 1    
     9    5    6 1    
    10    5   65 1    
    11    5  131 1    
    12    6    7 1    
    13    6  132 1    
    14    6  133 1    
    15    7    8 1    
    16    8    9 1    
    17    8  134 1    
    18    8  135 1    
    19    9   10 ar   
    20    9   14 ar   
    21   10   11 ar   
    22   10  136 1    
    23   11   12 ar   
    24   11  126 1    
    25   12   13 ar   
    26   12  137 1    
    27   13   14 ar   
    28   13   15 1    
    29   14  138 1    
    30   15   16 1    
    31   15  139 1    
    32   15  140 1    
    33   16   17 1    
    34   17   18 1    
    35   17  141 1    
    36   17  142 1    
    37   18   19 1    
    38   18   67 1    
    39   18  143 1    
    40   19   20 am   BACKBONE|DICT|INTERRES
    41   19  144 1    
    42   20   21 2    
    43   20   22 1    
    44   22   23 1    
    45   22   24 1    
    46   22  145 1    
    47   23  146 1    
    48   23  147 1    
    49   23  148 1    
    50   24   25 am   BACKBONE|DICT|INTERRES
    51   24  149 1    
    52   25   26 2    
    53   25   27 1    
    54   27   28 1    
    55   27   29 1    
    56   27  150 1    
    57   28  151 1    
    58   28  152 1    
    59   28  153 1    
    60   29   30 am   BACKBONE|DICT|INTERRES
    61   29  154 1    
    62   30   31 2    
    63   30   32 1    
    64   32   33 1    
    65   32   34 1    
    66   32  155 1    
    67   33  156 1    
    68   33  157 1    
    69   33  158 1    
    70   34   35 am   BACKBONE|DICT|INTERRES
    71   34  159 1    
    72   35   36 2    
    73   35   37 1    
    74   37   38 1    
    75   37   39 1    
    76   37  160 1    
    77   38  161 1    
    78   38  162 1    
    79   38  163 1    
    80   39   40 am   BACKBONE|DICT|INTERRES
    81   39  164 1    
    82   40   41 2    
    83   40   42 1    
    84   42   43 1    
    85   42   44 1    
    86   42  165 1    
    87   43  166 1    
    88   43  167 1    
    89   43  168 1    
    90   44   45 am   BACKBONE|DICT|INTERRES
    91   44  169 1    
    92   45   46 2    
    93   45   47 1    
    94   47   48 1    
    95   47   49 1    
    96   47  170 1    
    97   48  171 1    
    98   48  172 1    
    99   48  173 1    
   100   49   50 am   BACKBONE|DICT|INTERRES
   101   49  174 1    
   102   50   51 2    
   103   50   52 1    
   104   52   53 1    
   105   52   54 1    
   106   52  175 1    
   107   53  176 1    
   108   53  177 1    
   109   53  178 1    
   110   54   55 am   BACKBONE|DICT|INTERRES
   111   54  179 1    
   112   55   56 2    
   113   55   57 1    
   114   57   58 1    
   115   57   59 1    
   116   57  180 1    
   117   58  181 1    
   118   58  182 1    
   119   58  183 1    
   120   59   60 am   BACKBONE|DICT|INTERRES
   121   59  184 1    
   122   60   61 2    
   123   60   62 1    
   124   62   63 1    
   125   62   64 1    
   126   62  185 1    
   127   63  186 1    
   128   63  187 1    
   129   63  188 1    
   130   64   65 am   BACKBONE|DICT|INTERRES
   131   64  189 1    
   132   65   66 2    
   133   67   68 2    
   134   67   69 am   BACKBONE|DICT|INTERRES
   135   69   70 1    
   136   69  190 1    
   137   70   71 1    
   138   70   72 1    
   139   70  191 1    
   140   71  192 1    
   141   71  193 1    
   142   71  194 1    
   143   72   73 2    
   144   72   74 am   BACKBONE|DICT|INTERRES
   145   74   75 1    
   146   74  195 1    
   147   75   76 1    
   148   75   77 1    
   149   75  196 1    
   150   76  197 1    
   151   76  198 1    
   152   76  199 1    
   153   77   78 2    
   154   77   79 am   BACKBONE|DICT|INTERRES
   155   79   80 1    
   156   79  200 1    
   157   80   81 1    
   158   80   82 1    
   159   80  201 1    
   160   81  202 1    
   161   81  203 1    
   162   81  204 1    
   163   82   83 2    
   164   82   84 am   BACKBONE|DICT|INTERRES
   165   84   85 1    
   166   84  205 1    
   167   85   86 1    
   168   85   87 1    
   169   85  206 1    
   170   86  207 1    
   171   86  208 1    
   172   86  209 1    
   173   87   88 2    
   174   87   89 am   BACKBONE|DICT|INTERRES
   175   89   90 1    
   176   89  210 1    
   177   90   91 1    
   178   90   92 1    
   179   90  211 1    
   180   91  212 1    
   181   91  213 1    
   182   91  214 1    
   183   92   93 2    
   184   92   94 am   BACKBONE|DICT|INTERRES
   185   94   95 1    
   186   94  215 1    
   187   95   96 1    
   188   95   97 1    
   189   95  216 1    
   190   96  217 1    
   191   96  218 1    
   192   96  219 1    
   193   97   98 2    
   194   97   99 am   BACKBONE|DICT|INTERRES
   195   99  100 1    
   196   99  220 1    
   197  100  101 1    
   198  100  102 1    
   199  100  221 1    
   200  101  222 1    
   201  101  223 1    
   202  101  224 1    
   203  102  103 2    
   204  102  104 am   BACKBONE|DICT|INTERRES
   205  104  105 1    
   206  104  225 1    
   207  105  106 1    
   208  105  107 1    
   209  105  226 1    
   210  106  227 1    
   211  106  228 1    
   212  106  229 1    
   213  107  108 2    
   214  107  109 am   BACKBONE|DICT|INTERRES
   215  109  110 1    
   216  109  230 1    
   217  110  111 1    
   218  110  112 1    
   219  110  231 1    
   220  111  232 1    
   221  111  233 1    
   222  111  234 1    
   223  112  113 2    
   224  112  114 am   BACKBONE|DICT|INTERRES
   225  114  115 1    
   226  114  235 1    
   227  115  116 1    
   228  115  117 1    
   229  115  236 1    
   230  116  237 1    
   231  116  238 1    
   232  116  239 1    
   233  117  118 2    
   234  117  119 am   BACKBONE|DICT|INTERRES
   235  119  120 1    
   236  119  240 1    
   237  120  121 1    
   238  120  124 1    
   239  120  241 1    
   240  121  122 am   BACKBONE|DICT|INTERRES
   241  121  123 2    
   242  122  242 1    
   243  122  243 1    
   244  124  125 1    
   245  124  244 1    
   246  124  245 1    
   247  125  126 1    
   248  126  246 1    
   249  126  247 1    
@<TRIPOS>SUBSTRUCTURE
     1 UNK         1 GROUP             0       ****    0 ROOT    
