@<TRIPOS>MOLECULE
3R540
247   249    1
SMALL
USER_CHARGES


@<TRIPOS>ATOM
      1 CA          1.7473  -17.2044  -54.8131 C.3       0 UNK        -0.1800 
      2 C           1.6874  -17.4948  -53.3204 C.2       0 UNK         0.5000 
      3 O           1.0559  -18.4683  -52.9127 O.2       0 UNK        -0.5000 
      4 N           2.3434  -16.6544  -52.5095 N.am      1 UNK        -0.5000 
      5 CA          2.3525  -16.7398  -51.0421 C.3       1 UNK         0.1400 
      6 C6          2.7910  -15.4113  -50.3691 C.3       23 UNK        -0.0398 
      7 S7          1.9350  -13.9308  -51.0149 S.3       23 UNK        -0.2404 
      8 C8          0.5620  -13.7243  -49.8318 C.3       23 UNK        -0.0205 
      9 C9         -0.4184  -14.8905  -49.8506 C.ar      23 UNK        -0.0193 
     10 C10        -0.9838  -15.3237  -51.0540 C.ar      23 UNK        -0.1150 
     11 C11        -1.8506  -16.4177  -51.0795 C.ar      23 UNK        -0.0193 
     12 C12        -2.1825  -17.0545  -49.8798 C.ar      23 UNK        -0.1150 
     13 C13        -1.6438  -16.6228  -48.6607 C.ar      23 UNK        -0.0193 
     14 C14        -0.7580  -15.5407  -48.6603 C.ar      23 UNK        -0.1150 
     15 C15        -2.0065  -17.2815  -47.3288 C.3       23 UNK        -0.0205 
     16 S16        -2.4573  -19.0445  -47.4568 S.3       23 UNK        -0.2404 
     17 C17        -2.3957  -19.5829  -45.7206 C.3       23 UNK        -0.0398 
     18 CA         -1.1901  -20.5140  -45.4451 C.3       11 UNK         0.1400 
     19 N          -0.8033  -20.4762  -44.0347 N.am      11 UNK        -0.5000 
     20 C           0.2854  -21.0584  -43.5157 C.2       10 UNK         0.5000 
     21 O           1.1325  -21.6510  -44.1816 O.2       10 UNK        -0.5000 
     22 CA          0.4207  -21.0061  -41.9856 C.3       10 UNK         0.1400 
     23 CB          1.0096  -19.6614  -41.5352 C.3       10 UNK        -0.1800 
     24 N          -0.8624  -21.2347  -41.3194 N.am      10 UNK        -0.5000 
     25 C          -1.5111  -22.4086  -41.3189 C.2       9 UNK         0.5000 
     26 O          -1.0779  -23.4296  -41.8509 O.2       9 UNK        -0.5000 
     27 CA         -2.8986  -22.4328  -40.6537 C.3       9 UNK         0.1400 
     28 CB         -2.7685  -22.5735  -39.1298 C.3       9 UNK        -0.1800 
     29 N          -3.6923  -21.2444  -40.9673 N.am      9 UNK        -0.5000 
     30 C          -4.1322  -20.9262  -42.1931 C.2       8 UNK         0.5000 
     31 O          -3.9356  -21.6151  -43.1930 O.2       8 UNK        -0.5000 
     32 CA         -4.8685  -19.5822  -42.3334 C.3       8 UNK         0.1400 
     33 CB         -6.3628  -19.7483  -42.0204 C.3       8 UNK        -0.1800 
     34 N          -4.3057  -18.5248  -41.4882 N.am      8 UNK        -0.5000 
     35 C          -3.0582  -18.0520  -41.6007 C.2       7 UNK         0.5000 
     36 O          -2.2301  -18.4886  -42.4045 O.2       7 UNK        -0.5000 
     37 CA         -2.6546  -16.9345  -40.6339 C.3       7 UNK         0.1400 
     38 CB         -1.8852  -17.5041  -39.4297 C.3       7 UNK        -0.1800 
     39 N          -1.8182  -15.9911  -41.3618 N.am      7 UNK        -0.5000 
     40 C          -1.6593  -14.6948  -41.0831 C.2       6 UNK         0.5000 
     41 O          -2.1743  -14.1454  -40.1070 O.2       6 UNK        -0.5000 
     42 CA         -0.7734  -13.8846  -42.0589 C.3       6 UNK         0.1400 
     43 CB         -0.6345  -12.4071  -41.6481 C.3       6 UNK        -0.1800 
     44 N           0.5688  -14.4528  -42.2172 N.am      6 UNK        -0.5000 
     45 C           0.8709  -15.5487  -42.9227 C.2       5 UNK         0.5000 
     46 O           0.0284  -16.2179  -43.5295 O.2       5 UNK        -0.5000 
     47 CA          2.3487  -15.9758  -42.9348 C.3       5 UNK         0.1400 
     48 CB          2.8381  -16.3421  -41.5226 C.3       5 UNK        -0.1800 
     49 N           2.4725  -17.1461  -43.7958 N.am      5 UNK        -0.5000 
     50 C           3.2547  -17.2514  -44.8715 C.2       4 UNK         0.5000 
     51 O           4.0985  -16.4143  -45.2030 O.2       4 UNK        -0.5000 
     52 CA          2.9785  -18.4864  -45.7487 C.3       4 UNK         0.1400 
     53 CB          1.6931  -18.2643  -46.5603 C.3       4 UNK        -0.1800 
     54 N           4.0749  -18.8072  -46.6631 N.am      4 UNK        -0.5000 
     55 C           5.2768  -19.2642  -46.2794 C.2       3 UNK         0.5000 
     56 O           5.5730  -19.4707  -45.1010 O.2       3 UNK        -0.5000 
     57 CA          6.3093  -19.5753  -47.3834 C.3       3 UNK         0.1400 
     58 CB          7.1628  -20.8115  -47.0453 C.3       3 UNK        -0.1800 
     59 N           5.6608  -19.7968  -48.6752 N.am      3 UNK        -0.5000 
     60 C           5.9551  -19.1691  -49.8187 C.2       2 UNK         0.5000 
     61 O           6.8537  -18.3345  -49.9360 O.2       2 UNK        -0.5000 
     62 CA          5.0791  -19.5068  -51.0445 C.3       2 UNK         0.1400 
     63 CB          4.3363  -20.8585  -50.9344 C.3       2 UNK        -0.1800 
     64 N           4.1334  -18.4268  -51.3423 N.am      2 UNK        -0.5000 
     65 C           3.2157  -17.9049  -50.5124 C.2       1 UNK         0.5000 
     66 O           3.0461  -18.2949  -49.3584 O.2       1 UNK        -0.5000 
     67 C          -1.4339  -21.9558  -45.9427 C.2       11 UNK         0.5000 
     68 O          -0.9369  -22.3295  -47.0075 O.2       11 UNK        -0.5000 
     69 N          -2.1578  -22.7505  -45.1418 N.am      12 UNK        -0.5000 
     70 CA         -2.4194  -24.1668  -45.3893 C.3       12 UNK         0.1400 
     71 CB         -3.4773  -24.6776  -44.4004 C.3       12 UNK        -0.1800 
     72 C          -1.1445  -25.0257  -45.3246 C.2       12 UNK         0.5000 
     73 O          -0.9374  -25.8558  -46.2092 O.2       12 UNK        -0.5000 
     74 N          -0.2958  -24.7900  -44.3125 N.am      13 UNK        -0.5000 
     75 CA          0.9886  -25.4732  -44.1247 C.3       13 UNK         0.1400 
     76 CB          1.5914  -25.0779  -42.7685 C.3       13 UNK        -0.1800 
     77 C           1.9920  -25.2025  -45.2615 C.2       13 UNK         0.5000 
     78 O           2.7114  -26.1149  -45.6692 O.2       13 UNK        -0.5000 
     79 N           1.9939  -23.9661  -45.7761 N.am      14 UNK        -0.5000 
     80 CA          2.7757  -23.5432  -46.9388 C.3       14 UNK         0.1400 
     81 CB          2.8556  -22.0104  -46.9374 C.3       14 UNK        -0.1800 
     82 C           2.2052  -24.0415  -48.2825 C.2       14 UNK         0.5000 
     83 O           2.8883  -23.9190  -49.2995 O.2       14 UNK        -0.5000 
     84 N           0.9672  -24.5609  -48.2689 N.am      15 UNK        -0.5000 
     85 CA          0.1582  -24.9837  -49.4174 C.3       15 UNK         0.1400 
     86 CB          0.7961  -26.1936  -50.1308 C.3       15 UNK        -0.1800 
     87 C          -0.1757  -23.8189  -50.3748 C.2       15 UNK         0.5000 
     88 O          -0.3331  -24.0296  -51.5786 O.2       15 UNK        -0.5000 
     89 N          -0.2844  -22.6081  -49.8148 N.am      16 UNK        -0.5000 
     90 CA         -0.5729  -21.3695  -50.5344 C.3       16 UNK         0.1400 
     91 CB          0.1945  -20.2264  -49.8529 C.3       16 UNK        -0.1800 
     92 C          -2.0790  -21.0569  -50.5787 C.2       16 UNK         0.5000 
     93 O          -2.4859  -20.1929  -51.3521 O.2       16 UNK        -0.5000 
     94 N          -2.8802  -21.7524  -49.7577 N.am      17 UNK        -0.5000 
     95 CA         -4.3012  -21.5082  -49.4793 C.3       17 UNK         0.1400 
     96 CB         -4.6820  -22.2730  -48.1979 C.3       17 UNK        -0.1800 
     97 C          -5.2878  -21.7758  -50.6427 C.2       17 UNK         0.5000 
     98 O          -6.4141  -22.2169  -50.4059 O.2       17 UNK        -0.5000 
     99 N          -4.8912  -21.4545  -51.8775 N.am      18 UNK        -0.5000 
    100 CA        -5.7351  -21.4193  -53.0710 C.3       18 UNK         0.1400 
    101 CB        -4.8553  -21.6935  -54.3038 C.3       18 UNK        -0.1800 
    102 C         -6.4535  -20.0574  -53.1465 C.2       18 UNK         0.5000 
    103 O         -6.2353  -19.2916  -54.0856 O.2       18 UNK        -0.5000 
    104 N         -7.2656  -19.7650  -52.1203 N.am      19 UNK        -0.5000 
    105 CA        -7.8226  -18.4494  -51.7817 C.3       19 UNK         0.1400 
    106 CB        -8.7283  -18.6009  -50.5502 C.3       19 UNK        -0.1800 
    107 C         -8.5700  -17.7125  -52.9102 C.2       19 UNK         0.5000 
    108 O         -8.5820  -16.4817  -52.9177 O.2       19 UNK        -0.5000 
    109 N         -9.1588  -18.4654  -53.8480 N.am      20 UNK        -0.5000 
    110 CA        -9.8259  -17.9376  -55.0390 C.3       20 UNK         0.1400 
    111 CB       -10.6500  -19.0619  -55.6852 C.3       20 UNK        -0.1800 
    112 C         -8.8558  -17.3219  -56.0694 C.2       20 UNK         0.5000 
    113 O         -9.2703  -16.4489  -56.8332 O.2       20 UNK        -0.5000 
    114 N         -7.5985  -17.7857  -56.0862 N.am      21 UNK        -0.5000 
    115 CA        -6.5497  -17.3145  -56.9909 C.3       21 UNK         0.1400 
    116 CB        -5.6666  -18.5072  -57.3924 C.3       21 UNK        -0.1800 
    117 C         -5.6908  -16.2003  -56.3654 C.2       21 UNK         0.5000 
    118 O         -5.0850  -15.4262  -57.1083 O.2       21 UNK        -0.5000 
    119 N         -5.6323  -16.1440  -55.0282 N.am      22 UNK        -0.5000 
    120 CA        -4.8619  -15.1545  -54.2570 C.3       22 UNK         0.1400 
    121 C         -5.3780  -13.6988  -54.4368 C.2       22 UNK         0.5000 
    122 N         -4.4896  -12.7140  -54.4204 N.am      22 UNK        -0.7600 
    123 O         -6.5760  -13.4479  -54.5481 O.2       22 UNK        -0.5000 
    124 C124       -4.7878  -15.5130  -52.7498 C.3       23 UNK        -0.0398 
    125 S125       -4.1690  -17.2002  -52.4458 S.3       23 UNK        -0.2404 
    126 C126       -2.3651  -16.9508  -52.4106 C.3       23 UNK        -0.0205 
    127 H127        0.7416  -17.0506  -55.2044 H         1 UNK         0.0600 
    128 H128        2.1951  -18.0460  -55.3415 H         1 UNK         0.0600 
    129 H129        2.3365  -16.3131  -55.0301 H         1 UNK         0.0600 
    130 H130        2.8271  -15.8591  -52.9020 H         1 UNK         0.3000 
    131 H131        1.3316  -16.9535  -50.7207 H         1 UNK         0.0600 
    132 H132        2.6390  -15.4656  -49.2893 H         1 UNK         0.0800 
    133 H133        3.8610  -15.2503  -50.5132 H         1 UNK         0.0800 
    134 H134        0.9754  -13.5759  -48.8330 H         1 UNK         0.0800 
    135 H135        0.0203  -12.8107  -50.0795 H         1 UNK         0.0800 
    136 H136       -0.7144  -14.8302  -51.9772 H         1 UNK         0.1150 
    137 H137       -2.8574  -17.8974  -49.9095 H         1 UNK         0.1150 
    138 H138       -0.3314  -15.2026  -47.7262 H         1 UNK         0.1150 
    139 H139       -1.1696  -17.1849  -46.6367 H         1 UNK         0.0800 
    140 H140       -2.8404  -16.7364  -46.8852 H         1 UNK         0.0800 
    141 H141       -3.3403  -20.0638  -45.4615 H         1 UNK         0.0800 
    142 H142       -2.3371  -18.6931  -45.0922 H         1 UNK         0.0800 
    143 H143       -0.3327  -20.1384  -46.0028 H         1 UNK         0.0600 
    144 H144       -1.4181  -19.9625  -43.4101 H         1 UNK         0.3000 
    145 H145        1.1089  -21.7974  -41.6813 H         1 UNK         0.0600 
    146 H146        1.1300  -19.6263  -40.4524 H         1 UNK         0.0600 
    147 H147        1.9956  -19.5056  -41.9747 H         1 UNK         0.0600 
    148 H148        0.3803  -18.8210  -41.8298 H         1 UNK         0.0600 
    149 H149       -1.3109  -20.4317  -40.9053 H         1 UNK         0.3000 
    150 H150       -3.4337  -23.3059  -41.0331 H         1 UNK         0.0600 
    151 H151       -2.2669  -21.7131  -38.6851 H         1 UNK         0.0600 
    152 H152       -2.1915  -23.4616  -38.8683 H         1 UNK         0.0600 
    153 H153       -3.7464  -22.6728  -38.6585 H         1 UNK         0.0600 
    154 H154       -3.8984  -20.6166  -40.2045 H         1 UNK         0.3000 
    155 H155       -4.7724  -19.2631  -43.3734 H         1 UNK         0.0600 
    156 H156       -6.5285  -20.0363  -40.9815 H         1 UNK         0.0600 
    157 H157       -6.8099  -20.5188  -42.6501 H         1 UNK         0.0600 
    158 H158       -6.9096  -18.8233  -42.2043 H         1 UNK         0.0600 
    159 H159       -4.9244  -18.1232  -40.7982 H         1 UNK         0.3000 
    160 H160       -3.5560  -16.4260  -40.2853 H         1 UNK         0.0600 
    161 H161       -0.9629  -17.9973  -39.7388 H         1 UNK         0.0600 
    162 H162       -2.4869  -18.2359  -38.8896 H         1 UNK         0.0600 
    163 H163       -1.6206  -16.7174  -38.7230 H         1 UNK         0.0600 
    164 H164       -1.3658  -16.3694  -42.1923 H         1 UNK         0.3000 
    165 H165       -1.2733  -13.9076  -43.0297 H         1 UNK         0.0600 
    166 H166       -0.0600  -11.8452  -42.3848 H         1 UNK         0.0600 
    167 H167       -1.6113  -11.9281  -41.5691 H         1 UNK         0.0600 
    168 H168       -0.1369  -12.3023  -40.6832 H         1 UNK         0.0600 
    169 H169        1.3082  -13.9774  -41.7204 H         1 UNK         0.3000 
    170 H170        2.9400  -15.1431  -43.3211 H         1 UNK         0.0600 
    171 H171        2.1949  -17.0840  -41.0491 H         1 UNK         0.0600 
    172 H172        3.8502  -16.7463  -41.5501 H         1 UNK         0.0600 
    173 H173        2.8598  -15.4669  -40.8727 H         1 UNK         0.0600 
    174 H174        1.7288  -17.8194  -43.6779 H         1 UNK         0.3000 
    175 H175        2.8280  -19.3467  -45.0926 H         1 UNK         0.0600 
    176 H176        1.7645  -17.3806  -47.1956 H         1 UNK         0.0600 
    177 H177        1.4741  -19.1179  -47.2004 H         1 UNK         0.0600 
    178 H178        0.8382  -18.1191  -45.9003 H         1 UNK         0.0600 
    179 H179        3.8956  -18.6299  -47.6477 H         1 UNK         0.3000 
    180 H180        6.9691  -18.7072  -47.4343 H         1 UNK         0.0600 
    181 H181        6.5457  -21.7027  -46.9245 H         1 UNK         0.0600 
    182 H182        7.7198  -20.6668  -46.1189 H         1 UNK         0.0600 
    183 H183        7.8920  -21.0127  -47.8303 H         1 UNK         0.0600 
    184 H184        4.8760  -20.4317  -48.6732 H         1 UNK         0.3000 
    185 H185        5.7565  -19.5738  -51.8970 H         1 UNK         0.0600 
    186 H186        5.0322  -21.6763  -50.7427 H         1 UNK         0.0600 
    187 H187        3.5920  -20.8645  -50.1387 H         1 UNK         0.0600 
    188 H188        3.8170  -21.0915  -51.8640 H         1 UNK         0.0600 
    189 H189        4.2104  -18.0185  -52.2626 H         1 UNK         0.3000 
    190 H190       -2.5835  -22.3531  -44.3086 H         1 UNK         0.3000 
    191 H191       -2.8289  -24.2582  -46.3975 H         1 UNK         0.0600 
    192 H192       -4.4122  -24.1269  -44.5068 H         1 UNK         0.0600 
    193 H193       -3.6986  -25.7314  -44.5735 H         1 UNK         0.0600 
    194 H194       -3.1461  -24.5756  -43.3666 H         1 UNK         0.0600 
    195 H195       -0.5602  -24.1221  -43.5938 H         1 UNK         0.3000 
    196 H196        0.7925  -26.5472  -44.1080 H         1 UNK         0.0600 
    197 H197        2.5435  -25.5828  -42.6009 H         1 UNK         0.0600 
    198 H198        0.9294  -25.3533  -41.9476 H         1 UNK         0.0600 
    199 H199        1.7730  -24.0046  -42.7076 H         1 UNK         0.0600 
    200 H200        1.4241  -23.2516  -45.3325 H         1 UNK         0.3000 
    201 H201        3.7883  -23.9401  -46.8430 H         1 UNK         0.0600 
    202 H202        3.4539  -21.6455  -47.7716 H         1 UNK         0.0600 
    203 H203        3.3171  -21.6457  -46.0200 H         1 UNK         0.0600 
    204 H204        1.8668  -21.5574  -47.0188 H         1 UNK         0.0600 
    205 H205        0.4982  -24.6224  -47.3740 H         1 UNK         0.3000 
    206 H206       -0.7962  -25.3138  -49.0051 H         1 UNK         0.0600 
    207 H207        1.0193  -26.9935  -49.4247 H         1 UNK         0.0600 
    208 H208        0.1210  -26.6045  -50.8821 H         1 UNK         0.0600 
    209 H209        1.7228  -25.9245  -50.6381 H         1 UNK         0.0600 
    210 H210       -0.2081  -22.5323  -48.8040 H         1 UNK         0.3000 
    211 H211       -0.2207  -21.4454  -51.5652 H         1 UNK         0.0600 
    212 H212       -0.0784  -20.1279  -48.8028 H         1 UNK         0.0600 
    213 H213       -0.0067  -19.2696  -50.3372 H         1 UNK         0.0600 
    214 H214        1.2694  -20.3940  -49.9013 H         1 UNK         0.0600 
    215 H215       -2.4338  -22.4442  -49.1742 H         1 UNK         0.3000 
    216 H216       -4.4024  -20.4438  -49.2604 H         1 UNK         0.0600 
    217 H217       -5.7100  -22.0647  -47.8991 H         1 UNK         0.0600 
    218 H218       -4.0480  -21.9803  -47.3620 H         1 UNK         0.0600 
    219 H219       -4.5880  -23.3512  -48.3316 H         1 UNK         0.0600 
    220 H220       -3.9816  -21.0033  -51.9560 H         1 UNK         0.3000 
    221 H221       -6.4958  -22.2005  -53.0150 H         1 UNK         0.0600 
    222 H222       -4.0691  -20.9447  -54.4112 H         1 UNK         0.0600 
    223 H223       -4.3785  -22.6715  -54.2371 H         1 UNK         0.0600 
    224 H224       -5.4489  -21.6819  -55.2188 H         1 UNK         0.0600 
    225 H225       -7.3749  -20.4815  -51.4133 H         1 UNK         0.3000 
    226 H226       -6.9799  -17.8164  -51.4993 H         1 UNK         0.0600 
    227 H227       -9.1388  -17.6378  -50.2435 H         1 UNK         0.0600 
    228 H228       -8.1756  -19.0014  -49.7001 H         1 UNK         0.0600 
    229 H229       -9.5679  -19.2677  -50.7502 H         1 UNK         0.0600 
    230 H230       -9.0908  -19.4693  -53.7679 H         1 UNK         0.3000 
    231 H231      -10.5133  -17.1499  -54.7235 H         1 UNK         0.0600 
    232 H232      -10.0173  -19.8901  -56.0072 H         1 UNK         0.0600 
    233 H233      -11.1865  -18.6984  -56.5627 H         1 UNK         0.0600 
    234 H234      -11.3932  -19.4556  -54.9917 H         1 UNK         0.0600 
    235 H235       -7.3095  -18.4698  -55.3913 H         1 UNK         0.3000 
    236 H236       -7.0001  -16.9128  -57.9011 H         1 UNK         0.0600 
    237 H237       -6.2565  -19.2946  -57.8619 H         1 UNK         0.0600 
    238 H238       -4.9021  -18.2027  -58.1083 H         1 UNK         0.0600 
    239 H239       -5.1547  -18.9395  -56.5319 H         1 UNK         0.0600 
    240 H240       -6.1385  -16.8341  -54.4922 H         1 UNK         0.3000 
    241 H241       -3.8444  -15.1867  -54.6512 H         1 UNK         0.0600 
    242 H242       -3.5013  -12.8904  -54.3256 H         1 UNK         0.3800 
    243 H243       -4.8123  -11.7639  -54.5214 H         1 UNK         0.3800 
    244 H244       -4.1526  -14.8060  -52.2130 H         1 UNK         0.0800 
    245 H245       -5.7778  -15.4369  -52.2964 H         1 UNK         0.0800 
    246 H246       -1.8794  -17.9089  -52.5994 H         1 UNK         0.0800 
    247 H247       -2.0745  -16.2991  -53.2355 H         1 UNK         0.0800 
@<TRIPOS>BOND
     1    1    2 1    
     2    1  127 1    
     3    1  128 1    
     4    1  129 1    
     5    2    3 2    
     6    2    4 am   BACKBONE|DICT|INTERRES
     7    4    5 1    
     8    4  130 1    
     9    5    6 1    
    10    5   65 1    
    11    5  131 1    
    12    6    7 1    
    13    6  132 1    
    14    6  133 1    
    15    7    8 1    
    16    8    9 1    
    17    8  134 1    
    18    8  135 1    
    19    9   10 ar   
    20    9   14 ar   
    21   10   11 ar   
    22   10  136 1    
    23   11   12 ar   
    24   11  126 1    
    25   12   13 ar   
    26   12  137 1    
    27   13   14 ar   
    28   13   15 1    
    29   14  138 1    
    30   15   16 1    
    31   15  139 1    
    32   15  140 1    
    33   16   17 1    
    34   17   18 1    
    35   17  141 1    
    36   17  142 1    
    37   18   19 1    
    38   18   67 1    
    39   18  143 1    
    40   19   20 am   BACKBONE|DICT|INTERRES
    41   19  144 1    
    42   20   21 2    
    43   20   22 1    
    44   22   23 1    
    45   22   24 1    
    46   22  145 1    
    47   23  146 1    
    48   23  147 1    
    49   23  148 1    
    50   24   25 am   BACKBONE|DICT|INTERRES
    51   24  149 1    
    52   25   26 2    
    53   25   27 1    
    54   27   28 1    
    55   27   29 1    
    56   27  150 1    
    57   28  151 1    
    58   28  152 1    
    59   28  153 1    
    60   29   30 am   BACKBONE|DICT|INTERRES
    61   29  154 1    
    62   30   31 2    
    63   30   32 1    
    64   32   33 1    
    65   32   34 1    
    66   32  155 1    
    67   33  156 1    
    68   33  157 1    
    69   33  158 1    
    70   34   35 am   BACKBONE|DICT|INTERRES
    71   34  159 1    
    72   35   36 2    
    73   35   37 1    
    74   37   38 1    
    75   37   39 1    
    76   37  160 1    
    77   38  161 1    
    78   38  162 1    
    79   38  163 1    
    80   39   40 am   BACKBONE|DICT|INTERRES
    81   39  164 1    
    82   40   41 2    
    83   40   42 1    
    84   42   43 1    
    85   42   44 1    
    86   42  165 1    
    87   43  166 1    
    88   43  167 1    
    89   43  168 1    
    90   44   45 am   BACKBONE|DICT|INTERRES
    91   44  169 1    
    92   45   46 2    
    93   45   47 1    
    94   47   48 1    
    95   47   49 1    
    96   47  170 1    
    97   48  171 1    
    98   48  172 1    
    99   48  173 1    
   100   49   50 am   BACKBONE|DICT|INTERRES
   101   49  174 1    
   102   50   51 2    
   103   50   52 1    
   104   52   53 1    
   105   52   54 1    
   106   52  175 1    
   107   53  176 1    
   108   53  177 1    
   109   53  178 1    
   110   54   55 am   BACKBONE|DICT|INTERRES
   111   54  179 1    
   112   55   56 2    
   113   55   57 1    
   114   57   58 1    
   115   57   59 1    
   116   57  180 1    
   117   58  181 1    
   118   58  182 1    
   119   58  183 1    
   120   59   60 am   BACKBONE|DICT|INTERRES
   121   59  184 1    
   122   60   61 2    
   123   60   62 1    
   124   62   63 1    
   125   62   64 1    
   126   62  185 1    
   127   63  186 1    
   128   63  187 1    
   129   63  188 1    
   130   64   65 am   BACKBONE|DICT|INTERRES
   131   64  189 1    
   132   65   66 2    
   133   67   68 2    
   134   67   69 am   BACKBONE|DICT|INTERRES
   135   69   70 1    
   136   69  190 1    
   137   70   71 1    
   138   70   72 1    
   139   70  191 1    
   140   71  192 1    
   141   71  193 1    
   142   71  194 1    
   143   72   73 2    
   144   72   74 am   BACKBONE|DICT|INTERRES
   145   74   75 1    
   146   74  195 1    
   147   75   76 1    
   148   75   77 1    
   149   75  196 1    
   150   76  197 1    
   151   76  198 1    
   152   76  199 1    
   153   77   78 2    
   154   77   79 am   BACKBONE|DICT|INTERRES
   155   79   80 1    
   156   79  200 1    
   157   80   81 1    
   158   80   82 1    
   159   80  201 1    
   160   81  202 1    
   161   81  203 1    
   162   81  204 1    
   163   82   83 2    
   164   82   84 am   BACKBONE|DICT|INTERRES
   165   84   85 1    
   166   84  205 1    
   167   85   86 1    
   168   85   87 1    
   169   85  206 1    
   170   86  207 1    
   171   86  208 1    
   172   86  209 1    
   173   87   88 2    
   174   87   89 am   BACKBONE|DICT|INTERRES
   175   89   90 1    
   176   89  210 1    
   177   90   91 1    
   178   90   92 1    
   179   90  211 1    
   180   91  212 1    
   181   91  213 1    
   182   91  214 1    
   183   92   93 2    
   184   92   94 am   BACKBONE|DICT|INTERRES
   185   94   95 1    
   186   94  215 1    
   187   95   96 1    
   188   95   97 1    
   189   95  216 1    
   190   96  217 1    
   191   96  218 1    
   192   96  219 1    
   193   97   98 2    
   194   97   99 am   BACKBONE|DICT|INTERRES
   195   99  100 1    
   196   99  220 1    
   197  100  101 1    
   198  100  102 1    
   199  100  221 1    
   200  101  222 1    
   201  101  223 1    
   202  101  224 1    
   203  102  103 2    
   204  102  104 am   BACKBONE|DICT|INTERRES
   205  104  105 1    
   206  104  225 1    
   207  105  106 1    
   208  105  107 1    
   209  105  226 1    
   210  106  227 1    
   211  106  228 1    
   212  106  229 1    
   213  107  108 2    
   214  107  109 am   BACKBONE|DICT|INTERRES
   215  109  110 1    
   216  109  230 1    
   217  110  111 1    
   218  110  112 1    
   219  110  231 1    
   220  111  232 1    
   221  111  233 1    
   222  111  234 1    
   223  112  113 2    
   224  112  114 am   BACKBONE|DICT|INTERRES
   225  114  115 1    
   226  114  235 1    
   227  115  116 1    
   228  115  117 1    
   229  115  236 1    
   230  116  237 1    
   231  116  238 1    
   232  116  239 1    
   233  117  118 2    
   234  117  119 am   BACKBONE|DICT|INTERRES
   235  119  120 1    
   236  119  240 1    
   237  120  121 1    
   238  120  124 1    
   239  120  241 1    
   240  121  122 am   BACKBONE|DICT|INTERRES
   241  121  123 2    
   242  122  242 1    
   243  122  243 1    
   244  124  125 1    
   245  124  244 1    
   246  124  245 1    
   247  125  126 1    
   248  126  246 1    
   249  126  247 1    
@<TRIPOS>SUBSTRUCTURE
     1 UNK         1 GROUP             0       ****    0 ROOT    
