@<TRIPOS>MOLECULE
3R540
247   249    1
SMALL
USER_CHARGES


@<TRIPOS>ATOM
      1 CA         -0.0642  -19.1404  -46.4092 C.3       0 UNK        -0.1800 
      2 C           0.0369  -18.1671  -47.5743 C.2       0 UNK         0.5000 
      3 O          -0.9528  -17.9430  -48.2695 O.2       0 UNK        -0.5000 
      4 N           1.2190  -17.5780  -47.7916 N.am      1 UNK        -0.5000 
      5 CA          1.4480  -16.5509  -48.8143 C.3       1 UNK         0.1400 
      6 C6          2.9484  -16.2078  -49.0061 C.3       23 UNK        -0.0398 
      7 S7          4.0499  -17.6579  -49.1610 S.3       23 UNK        -0.2404 
      8 C8          3.9916  -18.0169  -50.9455 C.3       23 UNK        -0.0205 
      9 C9          2.7150  -18.7512  -51.3239 C.ar      23 UNK        -0.0193 
     10 C10         1.7165  -18.1082  -52.0555 C.ar      23 UNK        -0.1150 
     11 C11         0.5264  -18.7705  -52.3675 C.ar      23 UNK        -0.0193 
     12 C12         0.3488  -20.0977  -51.9603 C.ar      23 UNK        -0.1150 
     13 C13         1.3531  -20.7677  -51.2512 C.ar      23 UNK        -0.0193 
     14 C14         2.5353  -20.0823  -50.9423 C.ar      23 UNK        -0.1150 
     15 C15         1.1615  -22.2424  -50.8923 C.3       23 UNK        -0.0205 
     16 S16         2.1016  -22.8125  -49.4336 S.3       23 UNK        -0.2404 
     17 C17         1.1048  -22.1644  -48.0518 C.3       23 UNK        -0.0398 
     18 CA          0.5041  -23.3148  -47.2049 C.3       11 UNK         0.1400 
     19 N           0.4357  -22.9956  -45.7742 N.am      11 UNK        -0.5000 
     20 C           0.1533  -23.8939  -44.8191 C.2       10 UNK         0.5000 
     21 O          -0.0929  -25.0785  -45.0529 O.2       10 UNK        -0.5000 
     22 CA          0.0940  -23.3894  -43.3674 C.3       10 UNK         0.1400 
     23 CB          1.4703  -23.5321  -42.7015 C.3       10 UNK        -0.1800 
     24 N          -0.3818  -22.0145  -43.1845 N.am      10 UNK        -0.5000 
     25 C          -1.5222  -21.4834  -43.6416 C.2       9 UNK         0.5000 
     26 O          -2.2398  -22.0309  -44.4784 O.2       9 UNK        -0.5000 
     27 CA         -1.9584  -20.1221  -43.0586 C.3       9 UNK         0.1400 
     28 CB         -2.7321  -20.3312  -41.7451 C.3       9 UNK        -0.1800 
     29 N          -0.9095  -19.1060  -42.8853 N.am      9 UNK        -0.5000 
     30 C           0.2055  -19.1269  -42.1387 C.2       8 UNK         0.5000 
     31 O           0.5710  -20.0865  -41.4597 O.2       8 UNK        -0.5000 
     32 CA          1.0445  -17.8403  -42.1413 C.3       8 UNK         0.1400 
     33 CB          1.6481  -17.5639  -43.5284 C.3       8 UNK        -0.1800 
     34 N           0.2215  -16.7075  -41.7237 N.am      8 UNK        -0.5000 
     35 C           0.1616  -16.2338  -40.4706 C.2       7 UNK         0.5000 
     36 O           0.8847  -16.6276  -39.5547 O.2       7 UNK        -0.5000 
     37 CA         -0.8908  -15.1450  -40.1770 C.3       7 UNK         0.1400 
     38 CB         -0.2503  -13.7488  -40.1881 C.3       7 UNK        -0.1800 
     39 N          -2.0172  -15.1829  -41.1139 N.am      7 UNK        -0.5000 
     40 C          -2.9734  -16.1249  -41.0821 C.2       6 UNK         0.5000 
     41 O          -3.0486  -16.9782  -40.1979 O.2       6 UNK        -0.5000 
     42 CA         -4.0121  -16.1454  -42.2229 C.3       6 UNK         0.1400 
     43 CB         -5.3555  -15.5795  -41.7384 C.3       6 UNK        -0.1800 
     44 N          -3.6063  -15.4241  -43.4302 N.am      6 UNK        -0.5000 
     45 C          -2.5679  -15.7361  -44.2151 C.2       5 UNK         0.5000 
     46 O          -1.8071  -16.6813  -43.9990 O.2       5 UNK        -0.5000 
     47 CA         -2.2924  -14.8157  -45.4181 C.3       5 UNK         0.1400 
     48 CB         -3.4036  -13.7806  -45.7032 C.3       5 UNK        -0.1800 
     49 N          -0.9994  -14.1476  -45.2841 N.am      5 UNK        -0.5000 
     50 C          -0.5724  -13.3750  -44.2742 C.2       4 UNK         0.5000 
     51 O          -1.2514  -13.1046  -43.2829 O.2       4 UNK        -0.5000 
     52 CA          0.8532  -12.8101  -44.3977 C.3       4 UNK         0.1400 
     53 CB          1.8804  -13.8538  -43.9335 C.3       4 UNK        -0.1800 
     54 N           1.1488  -12.4456  -45.7829 N.am      4 UNK        -0.5000 
     55 C           1.2452  -11.1970  -46.2579 C.2       3 UNK         0.5000 
     56 O           1.1923  -10.1873  -45.5547 O.2       3 UNK        -0.5000 
     57 CA          1.4135  -11.0483  -47.7866 C.3       3 UNK         0.1400 
     58 CB          2.9025  -11.0106  -48.1623 C.3       3 UNK        -0.1800 
     59 N           0.7576  -12.1189  -48.5430 N.am      3 UNK        -0.5000 
     60 C          -0.5656  -12.3288  -48.5703 C.2       2 UNK         0.5000 
     61 O          -1.3835  -11.5499  -48.0807 O.2       2 UNK        -0.5000 
     62 CA         -1.0748  -13.6361  -49.2157 C.3       2 UNK         0.1400 
     63 CB         -1.7807  -13.3405  -50.5465 C.3       2 UNK        -0.1800 
     64 N          -0.0860  -14.7082  -49.4170 N.am      2 UNK        -0.5000 
     65 C           0.6516  -15.2812  -48.4548 C.2       1 UNK         0.5000 
     66 O           0.7222  -14.8487  -47.3033 O.2       1 UNK        -0.5000 
     67 C          -0.8386  -23.8210  -47.7769 C.2       11 UNK         0.5000 
     68 O          -0.8270  -24.6489  -48.6884 O.2       11 UNK        -0.5000 
     69 N          -1.9651  -23.3860  -47.1887 N.am      12 UNK        -0.5000 
     70 CA         -3.3110  -23.8399  -47.5456 C.3       12 UNK         0.1400 
     71 CB         -4.3545  -22.9827  -46.8130 C.3       12 UNK        -0.1800 
     72 C          -3.5452  -25.3344  -47.2569 C.2       12 UNK         0.5000 
     73 O          -4.3146  -25.9727  -47.9750 O.2       12 UNK        -0.5000 
     74 N          -2.8671  -25.8647  -46.2313 N.am      13 UNK        -0.5000 
     75 CA         -2.8778  -27.2829  -45.8865 C.3       13 UNK         0.1400 
     76 CB         -2.7262  -27.4346  -44.3646 C.3       13 UNK        -0.1800 
     77 C          -1.7621  -28.0436  -46.6217 C.2       13 UNK         0.5000 
     78 O          -2.0018  -29.1512  -47.1037 O.2       13 UNK        -0.5000 
     79 N          -0.5611  -27.4498  -46.6751 N.am      14 UNK        -0.5000 
     80 CA          0.6476  -28.0890  -47.1939 C.3       14 UNK         0.1400 
     81 CB          1.8818  -27.3061  -46.7208 C.3       14 UNK        -0.1800 
     82 C           0.6706  -28.2551  -48.7240 C.2       14 UNK         0.5000 
     83 O           1.1567  -29.2826  -49.1999 O.2       14 UNK        -0.5000 
     84 N           0.1793  -27.2518  -49.4638 N.am      15 UNK        -0.5000 
     85 CA          0.2674  -27.1997  -50.9271 C.3       15 UNK         0.1400 
     86 CB          1.4206  -26.2622  -51.3202 C.3       15 UNK        -0.1800 
     87 C          -1.0347  -26.7547  -51.6128 C.2       15 UNK         0.5000 
     88 O          -1.1831  -27.0101  -52.8084 O.2       15 UNK        -0.5000 
     89 N          -1.9365  -26.0930  -50.8725 N.am      16 UNK        -0.5000 
     90 CA         -3.1356  -25.3986  -51.3476 C.3       16 UNK         0.1400 
     91 CB         -4.1300  -26.3420  -52.0609 C.3       16 UNK        -0.1800 
     92 C          -2.7253  -24.1627  -52.1659 C.2       16 UNK         0.5000 
     93 O          -2.4462  -23.1248  -51.5677 O.2       16 UNK        -0.5000 
     94 N          -2.6729  -24.2960  -53.4995 N.am      17 UNK        -0.5000 
     95 CA         -2.1053  -23.3419  -54.4648 C.3       17 UNK         0.1400 
     96 CB         -0.5677  -23.3395  -54.3427 C.3       17 UNK        -0.1800 
     97 C          -2.6974  -21.9150  -54.3988 C.2       17 UNK         0.5000 
     98 O          -2.0025  -20.9491  -54.7157 O.2       17 UNK        -0.5000 
     99 N          -3.9689  -21.8150  -53.9837 N.am      18 UNK        -0.5000 
    100 CA        -4.7286  -20.5824  -53.7476 C.3       18 UNK         0.1400 
    101 CB        -4.9555  -19.8068  -55.0635 C.3       18 UNK        -0.1800 
    102 C         -4.1429  -19.6988  -52.6235 C.2       18 UNK         0.5000 
    103 O         -4.2467  -18.4748  -52.6979 O.2       18 UNK        -0.5000 
    104 N         -3.5561  -20.3256  -51.5915 N.am      19 UNK        -0.5000 
    105 CA        -3.0466  -19.6732  -50.3804 C.3       19 UNK         0.1400 
    106 CB        -2.5589  -20.7479  -49.4028 C.3       19 UNK        -0.1800 
    107 C         -4.0859  -18.7669  -49.6898 C.2       19 UNK         0.5000 
    108 O         -5.2773  -19.0853  -49.6804 O.2       19 UNK        -0.5000 
    109 N         -3.5981  -17.6480  -49.1411 N.am      20 UNK        -0.5000 
    110 CA        -4.3311  -16.5532  -48.4957 C.3       20 UNK         0.1400 
    111 CB        -5.0514  -17.0478  -47.2241 C.3       20 UNK        -0.1800 
    112 C         -5.2646  -15.7461  -49.4279 C.2       20 UNK         0.5000 
    113 O         -5.9408  -14.8344  -48.9505 O.2       20 UNK        -0.5000 
    114 N         -5.2673  -16.0508  -50.7312 N.am      21 UNK        -0.5000 
    115 CA        -6.0628  -15.3872  -51.7645 C.3       21 UNK         0.1400 
    116 CB        -7.4678  -16.0178  -51.8222 C.3       21 UNK        -0.1800 
    117 C         -5.3205  -15.4420  -53.1132 C.2       21 UNK         0.5000 
    118 O         -5.9493  -15.6015  -54.1612 O.2       21 UNK        -0.5000 
    119 N         -3.9861  -15.3520  -53.0444 N.am      22 UNK        -0.5000 
    120 CA        -3.0419  -15.5289  -54.1555 C.3       22 UNK         0.1400 
    121 C         -3.2552  -14.5217  -55.3204 C.2       22 UNK         0.5000 
    122 N         -3.1361  -14.9660  -56.5643 N.am      22 UNK        -0.7600 
    123 O         -3.4772  -13.3320  -55.1048 O.2       22 UNK        -0.5000 
    124 C124       -1.5741  -15.4625  -53.6610 C.3       23 UNK        -0.0398 
    125 S125       -1.2003  -16.6060  -52.2821 S.3       23 UNK        -0.2404 
    126 C126       -0.5403  -18.0494  -53.1765 C.3       23 UNK        -0.0205 
    127 H127        0.9151  -19.3925  -46.0030 H         1 UNK         0.0600 
    128 H128       -0.6636  -18.6929  -45.6186 H         1 UNK         0.0600 
    129 H129       -0.5569  -20.0602  -46.7200 H         1 UNK         0.0600 
    130 H130        2.0077  -17.7849  -47.1972 H         1 UNK         0.3000 
    131 H131        1.0565  -16.9386  -49.7542 H         1 UNK         0.0600 
    132 H132        3.0818  -15.5665  -49.8789 H         1 UNK         0.0800 
    133 H133        3.3155  -15.6319  -48.1541 H         1 UNK         0.0800 
    134 H134        4.8484  -18.6400  -51.2057 H         1 UNK         0.0800 
    135 H135        4.1023  -17.0936  -51.5160 H         1 UNK         0.0800 
    136 H136        1.8551  -17.0834  -52.3706 H         1 UNK         0.1150 
    137 H137       -0.5641  -20.6179  -52.2171 H         1 UNK         0.1150 
    138 H138        3.3297  -20.5765  -50.4025 H         1 UNK         0.1150 
    139 H139        0.1052  -22.4731  -50.7481 H         1 UNK         0.0800 
    140 H140        1.4881  -22.8343  -51.7475 H         1 UNK         0.0800 
    141 H141        0.3401  -21.4787  -48.4192 H         1 UNK         0.0800 
    142 H142        1.7806  -21.5595  -47.4461 H         1 UNK         0.0800 
    143 H143        1.1917  -24.1592  -47.2655 H         1 UNK         0.0600 
    144 H144        0.6073  -22.0408  -45.4979 H         1 UNK         0.3000 
    145 H145       -0.6064  -24.0376  -42.8374 H         1 UNK         0.0600 
    146 H146        1.4196  -23.2989  -41.6377 H         1 UNK         0.0600 
    147 H147        1.8475  -24.5518  -42.7921 H         1 UNK         0.0600 
    148 H148        2.2058  -22.8666  -43.1552 H         1 UNK         0.0600 
    149 H149        0.1213  -21.4562  -42.4969 H         1 UNK         0.3000 
    150 H150       -2.6553  -19.6930  -43.7806 H         1 UNK         0.0600 
    151 H151       -3.5494  -21.0409  -41.8803 H         1 UNK         0.0600 
    152 H152       -3.1708  -19.3982  -41.3944 H         1 UNK         0.0600 
    153 H153       -2.0909  -20.7182  -40.9526 H         1 UNK         0.0600 
    154 H154       -1.1075  -18.2396  -43.3822 H         1 UNK         0.3000 
    155 H155        1.8740  -17.9857  -41.4459 H         1 UNK         0.0600 
    156 H156        2.3997  -16.7775  -43.4699 H         1 UNK         0.0600 
    157 H157        0.8949  -17.2512  -44.2519 H         1 UNK         0.0600 
    158 H158        2.1443  -18.4504  -43.9254 H         1 UNK         0.0600 
    159 H159       -0.4509  -16.3682  -42.4004 H         1 UNK         0.3000 
    160 H160       -1.2758  -15.3233  -39.1706 H         1 UNK         0.0600 
    161 H161       -0.9890  -12.9723  -39.9891 H         1 UNK         0.0600 
    162 H162        0.2224  -13.5258  -41.1434 H         1 UNK         0.0600 
    163 H163        0.5197  -13.6701  -39.4198 H         1 UNK         0.0600 
    164 H164       -2.0108  -14.5006  -41.8646 H         1 UNK         0.3000 
    165 H165       -4.1619  -17.1910  -42.4997 H         1 UNK         0.0600 
    166 H166       -6.1238  -15.6730  -42.5063 H         1 UNK         0.0600 
    167 H167       -5.7123  -16.1159  -40.8581 H         1 UNK         0.0600 
    168 H168       -5.2736  -14.5255  -41.4698 H         1 UNK         0.0600 
    169 H169       -4.1479  -14.6043  -43.6622 H         1 UNK         0.3000 
    170 H170       -2.2088  -15.4719  -46.2848 H         1 UNK         0.0600 
    171 H171       -4.3692  -14.2627  -45.8562 H         1 UNK         0.0600 
    172 H172       -3.5142  -13.0595  -44.8927 H         1 UNK         0.0600 
    173 H173       -3.1851  -13.2162  -46.6093 H         1 UNK         0.0600 
    174 H174       -0.3298  -14.3754  -46.0169 H         1 UNK         0.3000 
    175 H175        0.9255  -11.9395  -43.7427 H         1 UNK         0.0600 
    176 H176        1.8882  -14.7235  -44.5912 H         1 UNK         0.0600 
    177 H177        2.8867  -13.4352  -43.9248 H         1 UNK         0.0600 
    178 H178        1.6650  -14.2050  -42.9241 H         1 UNK         0.0600 
    179 H179        1.1736  -13.2141  -46.4460 H         1 UNK         0.3000 
    180 H180        0.9607  -10.0988  -48.0798 H         1 UNK         0.0600 
    181 H181        3.4053  -11.9453  -47.9103 H         1 UNK         0.0600 
    182 H182        3.4181  -10.2077  -47.6337 H         1 UNK         0.0600 
    183 H183        3.0361  -10.8335  -49.2297 H         1 UNK         0.0600 
    184 H184        1.3579  -12.8026  -48.9785 H         1 UNK         0.3000 
    185 H185       -1.8250  -14.0333  -48.5301 H         1 UNK         0.0600 
    186 H186       -2.5101  -12.5363  -50.4392 H         1 UNK         0.0600 
    187 H187       -1.0714  -13.0396  -51.3179 H         1 UNK         0.0600 
    188 H188       -2.3249  -14.2139  -50.9008 H         1 UNK         0.0600 
    189 H189       -0.0813  -15.1267  -50.3371 H         1 UNK         0.3000 
    190 H190       -1.9007  -22.7681  -46.3862 H         1 UNK         0.3000 
    191 H191       -3.4366  -23.6877  -48.6177 H         1 UNK         0.0600 
    192 H192       -4.3281  -23.1514  -45.7360 H         1 UNK         0.0600 
    193 H193       -5.3620  -23.2214  -47.1556 H         1 UNK         0.0600 
    194 H194       -4.1948  -21.9187  -46.9870 H         1 UNK         0.0600 
    195 H195       -2.2238  -25.2774  -45.7171 H         1 UNK         0.3000 
    196 H196       -3.8343  -27.7262  -46.1720 H         1 UNK         0.0600 
    197 H197       -2.7432  -28.4859  -44.0743 H         1 UNK         0.0600 
    198 H198       -3.5415  -26.9388  -43.8374 H         1 UNK         0.0600 
    199 H199       -1.7884  -27.0100  -44.0044 H         1 UNK         0.0600 
    200 H200       -0.4361  -26.5562  -46.2082 H         1 UNK         0.3000 
    201 H201        0.7056  -29.0882  -46.7564 H         1 UNK         0.0600 
    202 H202        1.8968  -27.2065  -45.6352 H         1 UNK         0.0600 
    203 H203        1.9133  -26.3062  -47.1509 H         1 UNK         0.0600 
    204 H204        2.8008  -27.8152  -47.0138 H         1 UNK         0.0600 
    205 H205       -0.1847  -26.4251  -48.9999 H         1 UNK         0.3000 
    206 H206        0.4872  -28.1916  -51.3270 H         1 UNK         0.0600 
    207 H207        2.3703  -26.6096  -50.9133 H         1 UNK         0.0600 
    208 H208        1.5314  -26.2042  -52.4038 H         1 UNK         0.0600 
    209 H209        1.2478  -25.2511  -50.9529 H         1 UNK         0.0600 
    210 H210       -1.6557  -25.8291  -49.9342 H         1 UNK         0.3000 
    211 H211       -3.6438  -25.0233  -50.4610 H         1 UNK         0.0600 
    212 H212       -3.7247  -26.7907  -52.9671 H         1 UNK         0.0600 
    213 H213       -5.0360  -25.8041  -52.3423 H         1 UNK         0.0600 
    214 H214       -4.4315  -27.1539  -51.3991 H         1 UNK         0.0600 
    215 H215       -2.9150  -25.2006  -53.8796 H         1 UNK         0.3000 
    216 H216       -2.3567  -23.7247  -55.4547 H         1 UNK         0.0600 
    217 H217       -0.1071  -22.7622  -55.1451 H         1 UNK         0.0600 
    218 H218       -0.1642  -24.3508  -54.3981 H         1 UNK         0.0600 
    219 H219       -0.2462  -22.9023  -53.3984 H         1 UNK         0.0600 
    220 H220       -4.4437  -22.6738  -53.7448 H         1 UNK         0.3000 
    221 H221       -5.7083  -20.9003  -53.3885 H         1 UNK         0.0600 
    222 H222       -4.0286  -19.3819  -55.4495 H         1 UNK         0.0600 
    223 H223       -5.3780  -20.4506  -55.8347 H         1 UNK         0.0600 
    224 H224       -5.6517  -18.9803  -54.9145 H         1 UNK         0.0600 
    225 H225       -3.4462  -21.3327  -51.6300 H         1 UNK         0.3000 
    226 H226       -2.1936  -19.0587  -50.6736 H         1 UNK         0.0600 
    227 H227       -1.6975  -21.2812  -49.8000 H         1 UNK         0.0600 
    228 H228       -2.2632  -20.3182  -48.4461 H         1 UNK         0.0600 
    229 H229       -3.3461  -21.4732  -49.2075 H         1 UNK         0.0600 
    230 H230       -2.5840  -17.5603  -49.1052 H         1 UNK         0.3000 
    231 H231       -3.5656  -15.8449  -48.1804 H         1 UNK         0.0600 
    232 H232       -5.8524  -17.7490  -47.4581 H         1 UNK         0.0600 
    233 H233       -4.3566  -17.5453  -46.5471 H         1 UNK         0.0600 
    234 H234       -5.5006  -16.2198  -46.6756 H         1 UNK         0.0600 
    235 H235       -4.7089  -16.8323  -51.0555 H         1 UNK         0.3000 
    236 H236       -6.1671  -14.3293  -51.5156 H         1 UNK         0.0600 
    237 H237       -8.0948  -15.5180  -52.5613 H         1 UNK         0.0600 
    238 H238       -7.4172  -17.0742  -52.0891 H         1 UNK         0.0600 
    239 H239       -7.9773  -15.9392  -50.8618 H         1 UNK         0.0600 
    240 H240       -3.5658  -15.2293  -52.1372 H         1 UNK         0.3000 
    241 H241       -3.2161  -16.5338  -54.5457 H         1 UNK         0.0600 
    242 H242       -3.2560  -14.3186  -57.3281 H         1 UNK         0.3800 
    243 H243       -2.9482  -15.9360  -56.7657 H         1 UNK         0.3800 
    244 H244       -0.8860  -15.6534  -54.4857 H         1 UNK         0.0800 
    245 H245       -1.3424  -14.4525  -53.3203 H         1 UNK         0.0800 
    246 H246       -0.0985  -17.7473  -54.1262 H         1 UNK         0.0800 
    247 H247       -1.3671  -18.7168  -53.4199 H         1 UNK         0.0800 
@<TRIPOS>BOND
     1    1    2 1    
     2    1  127 1    
     3    1  128 1    
     4    1  129 1    
     5    2    3 2    
     6    2    4 am   BACKBONE|DICT|INTERRES
     7    4    5 1    
     8    4  130 1    
     9    5    6 1    
    10    5   65 1    
    11    5  131 1    
    12    6    7 1    
    13    6  132 1    
    14    6  133 1    
    15    7    8 1    
    16    8    9 1    
    17    8  134 1    
    18    8  135 1    
    19    9   10 ar   
    20    9   14 ar   
    21   10   11 ar   
    22   10  136 1    
    23   11   12 ar   
    24   11  126 1    
    25   12   13 ar   
    26   12  137 1    
    27   13   14 ar   
    28   13   15 1    
    29   14  138 1    
    30   15   16 1    
    31   15  139 1    
    32   15  140 1    
    33   16   17 1    
    34   17   18 1    
    35   17  141 1    
    36   17  142 1    
    37   18   19 1    
    38   18   67 1    
    39   18  143 1    
    40   19   20 am   BACKBONE|DICT|INTERRES
    41   19  144 1    
    42   20   21 2    
    43   20   22 1    
    44   22   23 1    
    45   22   24 1    
    46   22  145 1    
    47   23  146 1    
    48   23  147 1    
    49   23  148 1    
    50   24   25 am   BACKBONE|DICT|INTERRES
    51   24  149 1    
    52   25   26 2    
    53   25   27 1    
    54   27   28 1    
    55   27   29 1    
    56   27  150 1    
    57   28  151 1    
    58   28  152 1    
    59   28  153 1    
    60   29   30 am   BACKBONE|DICT|INTERRES
    61   29  154 1    
    62   30   31 2    
    63   30   32 1    
    64   32   33 1    
    65   32   34 1    
    66   32  155 1    
    67   33  156 1    
    68   33  157 1    
    69   33  158 1    
    70   34   35 am   BACKBONE|DICT|INTERRES
    71   34  159 1    
    72   35   36 2    
    73   35   37 1    
    74   37   38 1    
    75   37   39 1    
    76   37  160 1    
    77   38  161 1    
    78   38  162 1    
    79   38  163 1    
    80   39   40 am   BACKBONE|DICT|INTERRES
    81   39  164 1    
    82   40   41 2    
    83   40   42 1    
    84   42   43 1    
    85   42   44 1    
    86   42  165 1    
    87   43  166 1    
    88   43  167 1    
    89   43  168 1    
    90   44   45 am   BACKBONE|DICT|INTERRES
    91   44  169 1    
    92   45   46 2    
    93   45   47 1    
    94   47   48 1    
    95   47   49 1    
    96   47  170 1    
    97   48  171 1    
    98   48  172 1    
    99   48  173 1    
   100   49   50 am   BACKBONE|DICT|INTERRES
   101   49  174 1    
   102   50   51 2    
   103   50   52 1    
   104   52   53 1    
   105   52   54 1    
   106   52  175 1    
   107   53  176 1    
   108   53  177 1    
   109   53  178 1    
   110   54   55 am   BACKBONE|DICT|INTERRES
   111   54  179 1    
   112   55   56 2    
   113   55   57 1    
   114   57   58 1    
   115   57   59 1    
   116   57  180 1    
   117   58  181 1    
   118   58  182 1    
   119   58  183 1    
   120   59   60 am   BACKBONE|DICT|INTERRES
   121   59  184 1    
   122   60   61 2    
   123   60   62 1    
   124   62   63 1    
   125   62   64 1    
   126   62  185 1    
   127   63  186 1    
   128   63  187 1    
   129   63  188 1    
   130   64   65 am   BACKBONE|DICT|INTERRES
   131   64  189 1    
   132   65   66 2    
   133   67   68 2    
   134   67   69 am   BACKBONE|DICT|INTERRES
   135   69   70 1    
   136   69  190 1    
   137   70   71 1    
   138   70   72 1    
   139   70  191 1    
   140   71  192 1    
   141   71  193 1    
   142   71  194 1    
   143   72   73 2    
   144   72   74 am   BACKBONE|DICT|INTERRES
   145   74   75 1    
   146   74  195 1    
   147   75   76 1    
   148   75   77 1    
   149   75  196 1    
   150   76  197 1    
   151   76  198 1    
   152   76  199 1    
   153   77   78 2    
   154   77   79 am   BACKBONE|DICT|INTERRES
   155   79   80 1    
   156   79  200 1    
   157   80   81 1    
   158   80   82 1    
   159   80  201 1    
   160   81  202 1    
   161   81  203 1    
   162   81  204 1    
   163   82   83 2    
   164   82   84 am   BACKBONE|DICT|INTERRES
   165   84   85 1    
   166   84  205 1    
   167   85   86 1    
   168   85   87 1    
   169   85  206 1    
   170   86  207 1    
   171   86  208 1    
   172   86  209 1    
   173   87   88 2    
   174   87   89 am   BACKBONE|DICT|INTERRES
   175   89   90 1    
   176   89  210 1    
   177   90   91 1    
   178   90   92 1    
   179   90  211 1    
   180   91  212 1    
   181   91  213 1    
   182   91  214 1    
   183   92   93 2    
   184   92   94 am   BACKBONE|DICT|INTERRES
   185   94   95 1    
   186   94  215 1    
   187   95   96 1    
   188   95   97 1    
   189   95  216 1    
   190   96  217 1    
   191   96  218 1    
   192   96  219 1    
   193   97   98 2    
   194   97   99 am   BACKBONE|DICT|INTERRES
   195   99  100 1    
   196   99  220 1    
   197  100  101 1    
   198  100  102 1    
   199  100  221 1    
   200  101  222 1    
   201  101  223 1    
   202  101  224 1    
   203  102  103 2    
   204  102  104 am   BACKBONE|DICT|INTERRES
   205  104  105 1    
   206  104  225 1    
   207  105  106 1    
   208  105  107 1    
   209  105  226 1    
   210  106  227 1    
   211  106  228 1    
   212  106  229 1    
   213  107  108 2    
   214  107  109 am   BACKBONE|DICT|INTERRES
   215  109  110 1    
   216  109  230 1    
   217  110  111 1    
   218  110  112 1    
   219  110  231 1    
   220  111  232 1    
   221  111  233 1    
   222  111  234 1    
   223  112  113 2    
   224  112  114 am   BACKBONE|DICT|INTERRES
   225  114  115 1    
   226  114  235 1    
   227  115  116 1    
   228  115  117 1    
   229  115  236 1    
   230  116  237 1    
   231  116  238 1    
   232  116  239 1    
   233  117  118 2    
   234  117  119 am   BACKBONE|DICT|INTERRES
   235  119  120 1    
   236  119  240 1    
   237  120  121 1    
   238  120  124 1    
   239  120  241 1    
   240  121  122 am   BACKBONE|DICT|INTERRES
   241  121  123 2    
   242  122  242 1    
   243  122  243 1    
   244  124  125 1    
   245  124  244 1    
   246  124  245 1    
   247  125  126 1    
   248  126  246 1    
   249  126  247 1    
@<TRIPOS>SUBSTRUCTURE
     1 UNK         1 GROUP             0       ****    0 ROOT    
