@<TRIPOS>MOLECULE
3R540
247   249    1
SMALL
USER_CHARGES


@<TRIPOS>ATOM
      1 CA         -5.9385  -11.2495  -44.9592 C.3       0 UNK        -0.1800 
      2 C          -4.4993  -11.7257  -44.8205 C.2       0 UNK         0.5000 
      3 O          -3.9437  -11.6754  -43.7234 O.2       0 UNK        -0.5000 
      4 N          -3.9011  -12.1861  -45.9282 N.am      1 UNK        -0.5000 
      5 CA         -2.5195  -12.6753  -46.0269 C.3       1 UNK         0.1400 
      6 C6         -2.2768  -13.9731  -45.2070 C.3       23 UNK        -0.0398 
      7 S7         -0.9010  -14.9675  -45.8726 S.3       23 UNK        -0.2404 
      8 C8         -1.7677  -16.0417  -47.0585 C.3       23 UNK        -0.0205 
      9 C9         -0.7855  -16.7943  -47.9441 C.ar      23 UNK        -0.0193 
     10 C10        -0.8055  -16.6337  -49.3321 C.ar      23 UNK        -0.1150 
     11 C11         0.1038  -17.3250  -50.1394 C.ar      23 UNK        -0.0193 
     12 C12         1.0381  -18.1818  -49.5483 C.ar      23 UNK        -0.1150 
     13 C13         1.0529  -18.3676  -48.1643 C.ar      23 UNK        -0.0193 
     14 C14         0.1444  -17.6634  -47.3717 C.ar      23 UNK        -0.1150 
     15 C15         2.0460  -19.3261  -47.5217 C.3       23 UNK        -0.0205 
     16 S16         1.6982  -21.0715  -47.9212 S.3       23 UNK        -0.2404 
     17 C17        -0.0568  -21.2237  -47.4501 C.3       23 UNK        -0.0398 
     18 CA         -0.4373  -22.6459  -46.9845 C.3       11 UNK         0.1400 
     19 N           0.2504  -23.0484  -45.7521 N.am      11 UNK        -0.5000 
     20 C           0.2405  -24.2957  -45.2602 C.2       10 UNK         0.5000 
     21 O          -0.3384  -25.2380  -45.7995 O.2       10 UNK        -0.5000 
     22 CA          0.9478  -24.5192  -43.9148 C.3       10 UNK         0.1400 
     23 CB          2.4693  -24.6250  -44.0989 C.3       10 UNK        -0.1800 
     24 N           0.6311  -23.4616  -42.9565 N.am      10 UNK        -0.5000 
     25 C          -0.5603  -23.3191  -42.3584 C.2       9 UNK         0.5000 
     26 O          -1.5126  -24.0761  -42.5432 O.2       9 UNK        -0.5000 
     27 CA         -0.7304  -22.0989  -41.4336 C.3       9 UNK         0.1400 
     28 CB         -0.1527  -22.3877  -40.0401 C.3       9 UNK        -0.1800 
     29 N          -0.1099  -20.8903  -41.9777 N.am      9 UNK        -0.5000 
     30 C          -0.5013  -20.2934  -43.1114 C.2       8 UNK         0.5000 
     31 O          -1.4567  -20.6696  -43.7868 O.2       8 UNK        -0.5000 
     32 CA          0.3491  -19.1202  -43.6194 C.3       8 UNK         0.1400 
     33 CB         -0.1954  -17.7775  -43.1135 C.3       8 UNK        -0.1800 
     34 N           1.7777  -19.2273  -43.3168 N.am      8 UNK        -0.5000 
     35 C           2.5742  -20.2161  -43.7497 C.2       7 UNK         0.5000 
     36 O           2.1512  -21.1976  -44.3632 O.2       7 UNK        -0.5000 
     37 CA          4.0814  -20.0955  -43.4359 C.3       7 UNK         0.1400 
     38 CB          4.9552  -20.8396  -44.4675 C.3       7 UNK        -0.1800 
     39 N           4.5467  -18.7119  -43.2581 N.am      7 UNK        -0.5000 
     40 C           4.5298  -17.7278  -44.1696 C.2       6 UNK         0.5000 
     41 O           4.1097  -17.8525  -45.3216 O.2       6 UNK        -0.5000 
     42 CA          5.1115  -16.3783  -43.7138 C.3       6 UNK         0.1400 
     43 CB          6.5865  -16.2608  -44.1266 C.3       6 UNK        -0.1800 
     44 N           4.3717  -15.2570  -44.2853 N.am      6 UNK        -0.5000 
     45 C           3.1338  -14.8873  -43.9430 C.2       5 UNK         0.5000 
     46 O           2.4958  -15.4259  -43.0374 O.2       5 UNK        -0.5000 
     47 CA          2.5024  -13.7153  -44.7238 C.3       5 UNK         0.1400 
     48 CB          3.0202  -12.3604  -44.2063 C.3       5 UNK        -0.1800 
     49 N           2.6163  -13.7967  -46.1869 N.am      5 UNK        -0.5000 
     50 C           3.7064  -13.7730  -46.9662 C.2       4 UNK         0.5000 
     51 O           4.8601  -13.6988  -46.5408 O.2       4 UNK        -0.5000 
     52 CA          3.4737  -13.8111  -48.4882 C.3       4 UNK         0.1400 
     53 CB          2.7819  -15.1143  -48.9369 C.3       4 UNK        -0.1800 
     54 N           2.7879  -12.6119  -48.9875 N.am      4 UNK        -0.5000 
     55 C           1.5251  -12.2276  -48.7604 C.2       3 UNK         0.5000 
     56 O           0.6940  -12.9013  -48.1480 O.2       3 UNK        -0.5000 
     57 CA          1.1145  -10.8601  -49.3320 C.3       3 UNK         0.1400 
     58 CB          0.5154  -11.0220  -50.7375 C.3       3 UNK        -0.1800 
     59 N           0.1166  -10.2492  -48.4589 N.am      3 UNK        -0.5000 
     60 C           0.3946   -9.5486  -47.3512 C.2       2 UNK         0.5000 
     61 O           1.5246   -9.1687  -47.0420 O.2       2 UNK        -0.5000 
     62 CA         -0.7958   -9.2575  -46.4163 C.3       2 UNK         0.1400 
     63 CB         -1.5369   -7.9845  -46.8528 C.3       2 UNK        -0.1800 
     64 N          -1.7371  -10.3798  -46.3779 N.am      2 UNK        -0.5000 
     65 C          -1.4872  -11.5502  -45.7706 C.2       1 UNK         0.5000 
     66 O          -0.5080  -11.7399  -45.0471 O.2       1 UNK        -0.5000 
     67 C          -1.9712  -22.7857  -46.8763 C.2       11 UNK         0.5000 
     68 O          -2.6117  -23.1283  -47.8714 O.2       11 UNK        -0.5000 
     69 N          -2.5345  -22.5398  -45.6848 N.am      12 UNK        -0.5000 
     70 CA         -3.9456  -22.7643  -45.3765 C.3       12 UNK         0.1400 
     71 CB         -4.3226  -22.0393  -44.0765 C.3       12 UNK        -0.1800 
     72 C          -4.2876  -24.2607  -45.2848 C.2       12 UNK         0.5000 
     73 O          -5.2929  -24.6787  -45.8577 O.2       12 UNK        -0.5000 
     74 N          -3.4395  -25.0476  -44.6042 N.am      13 UNK        -0.5000 
     75 CA         -3.5900  -26.4999  -44.4552 C.3       13 UNK         0.1400 
     76 CB         -2.5514  -27.0309  -43.4561 C.3       13 UNK        -0.1800 
     77 C          -3.4931  -27.2589  -45.7919 C.2       13 UNK         0.5000 
     78 O          -4.2501  -28.2046  -46.0130 O.2       13 UNK        -0.5000 
     79 N          -2.5938  -26.8030  -46.6736 N.am      14 UNK        -0.5000 
     80 CA         -2.4447  -27.2858  -48.0479 C.3       14 UNK         0.1400 
     81 CB         -1.0782  -26.8250  -48.5808 C.3       14 UNK        -0.1800 
     82 C          -3.5672  -26.8060  -48.9920 C.2       14 UNK         0.5000 
     83 O          -3.6686  -27.3164  -50.1076 O.2       14 UNK        -0.5000 
     84 N          -4.3536  -25.8125  -48.5484 N.am      15 UNK        -0.5000 
     85 CA         -5.4043  -25.0871  -49.2723 C.3       15 UNK         0.1400 
     86 CB         -6.5446  -26.0295  -49.7064 C.3       15 UNK        -0.1800 
     87 C          -4.8766  -24.2262  -50.4387 C.2       15 UNK         0.5000 
     88 O          -5.6717  -23.7311  -51.2373 O.2       15 UNK        -0.5000 
     89 N          -3.5555  -24.0163  -50.4981 N.am      16 UNK        -0.5000 
     90 CA         -2.8720  -23.2192  -51.5118 C.3       16 UNK         0.1400 
     91 CB         -1.3578  -23.4524  -51.4083 C.3       16 UNK        -0.1800 
     92 C          -3.2084  -21.7257  -51.3944 C.2       16 UNK         0.5000 
     93 O          -3.4109  -21.0737  -52.4182 O.2       16 UNK        -0.5000 
     94 N          -3.3071  -21.2273  -50.1533 N.am      17 UNK        -0.5000 
     95 CA         -3.7416  -19.8600  -49.8572 C.3       17 UNK         0.1400 
     96 CB         -3.3900  -19.5029  -48.4041 C.3       17 UNK        -0.1800 
     97 C          -5.2463  -19.6544  -50.1112 C.2       17 UNK         0.5000 
     98 O          -5.6482  -18.5695  -50.5304 O.2       17 UNK        -0.5000 
     99 N          -6.0465  -20.7004  -49.8596 N.am      18 UNK        -0.5000 
    100 CA        -7.4990  -20.6986  -50.0375 C.3       18 UNK         0.1400 
    101 CB        -8.1091  -21.8909  -49.2832 C.3       18 UNK        -0.1800 
    102 C         -7.9032  -20.7187  -51.5218 C.2       18 UNK         0.5000 
    103 O         -8.7762  -19.9506  -51.9271 O.2       18 UNK        -0.5000 
    104 N         -7.2456  -21.5818  -52.3073 N.am      19 UNK        -0.5000 
    105 CA        -7.4518  -21.7156  -53.7504 C.3       19 UNK         0.1400 
    106 CB        -6.9346  -23.0945  -54.1919 C.3       19 UNK        -0.1800 
    107 C         -6.7626  -20.6084  -54.5714 C.2       19 UNK         0.5000 
    108 O         -7.0794  -20.4555  -55.7514 O.2       19 UNK        -0.5000 
    109 N         -5.8097  -19.8952  -53.9503 N.am      20 UNK        -0.5000 
    110 CA        -4.8737  -18.9372  -54.5536 C.3       20 UNK         0.1400 
    111 CB        -5.6111  -17.7161  -55.1402 C.3       20 UNK        -0.1800 
    112 C         -3.9086  -19.6082  -55.5573 C.2       20 UNK         0.5000 
    113 O         -3.4241  -18.9641  -56.4891 O.2       20 UNK        -0.5000 
    114 N         -3.6304  -20.8978  -55.3259 N.am      21 UNK        -0.5000 
    115 CA        -2.6892  -21.7243  -56.0807 C.3       21 UNK         0.1400 
    116 CB        -3.0857  -23.1987  -55.9061 C.3       21 UNK        -0.1800 
    117 C         -1.2283  -21.4954  -55.6453 C.2       21 UNK         0.5000 
    118 O         -0.3135  -21.9546  -56.3296 O.2       21 UNK        -0.5000 
    119 N         -1.0373  -20.7927  -54.5217 N.am      22 UNK        -0.5000 
    120 CA         0.2559  -20.3784  -53.9612 C.3       22 UNK         0.1400 
    121 C          1.0989  -19.4025  -54.8392 C.2       22 UNK         0.5000 
    122 N          0.5357  -18.7611  -55.8565 N.am      22 UNK        -0.7600 
    123 O          2.2896  -19.2316  -54.5932 O.2       22 UNK        -0.5000 
    124 C124        0.0773  -19.8339  -52.5216 C.3       23 UNK        -0.0398 
    125 S125       -1.0224  -18.3725  -52.4295 S.3       23 UNK        -0.2404 
    126 C126        0.0682  -17.1442  -51.6482 C.3       23 UNK        -0.0205 
    127 H127       -6.3036  -11.3510  -45.9816 H         1 UNK         0.0600 
    128 H128       -6.0154  -10.2002  -44.6737 H         1 UNK         0.0600 
    129 H129       -6.5903  -11.8302  -44.3064 H         1 UNK         0.0600 
    130 H130       -4.4258  -12.2005  -46.7920 H         1 UNK         0.3000 
    131 H131       -2.3986  -12.9333  -47.0805 H         1 UNK         0.0600 
    132 H132       -2.0780  -13.7446  -44.1587 H         1 UNK         0.0800 
    133 H133       -3.1733  -14.5944  -45.2084 H         1 UNK         0.0800 
    134 H134       -2.4428  -15.4374  -47.6660 H         1 UNK         0.0800 
    135 H135       -2.3864  -16.7577  -46.5158 H         1 UNK         0.0800 
    136 H136       -1.5268  -15.9696  -49.7867 H         1 UNK         0.1150 
    137 H137        1.7510  -18.7152  -50.1591 H         1 UNK         0.1150 
    138 H138        0.1631  -17.7696  -46.3006 H         1 UNK         0.1150 
    139 H139        2.0460  -19.2056  -46.4391 H         1 UNK         0.0800 
    140 H140        3.0550  -19.0769  -47.8527 H         1 UNK         0.0800 
    141 H141       -0.6329  -20.9472  -48.3341 H         1 UNK         0.0800 
    142 H142       -0.2980  -20.4955  -46.6746 H         1 UNK         0.0800 
    143 H143       -0.1227  -23.3413  -47.7659 H         1 UNK         0.0600 
    144 H144        0.7919  -22.3361  -45.2708 H         1 UNK         0.3000 
    145 H145        0.5945  -25.4676  -43.5044 H         1 UNK         0.0600 
    146 H146        2.7215  -25.4515  -44.7644 H         1 UNK         0.0600 
    147 H147        2.9702  -24.8089  -43.1484 H         1 UNK         0.0600 
    148 H148        2.8928  -23.7190  -44.5319 H         1 UNK         0.0600 
    149 H149        1.3324  -22.7465  -42.8259 H         1 UNK         0.3000 
    150 H150       -1.8008  -21.9100  -41.3271 H         1 UNK         0.0600 
    151 H151        0.9241  -22.5575  -40.0759 H         1 UNK         0.0600 
    152 H152       -0.6112  -23.2768  -39.6051 H         1 UNK         0.0600 
    153 H153       -0.3399  -21.5595  -39.3564 H         1 UNK         0.0600 
    154 H154        0.6911  -20.5205  -41.4876 H         1 UNK         0.3000 
    155 H155        0.2554  -19.1413  -44.7024 H         1 UNK         0.0600 
    156 H156        0.3059  -16.9424  -43.6027 H         1 UNK         0.0600 
    157 H157       -0.0623  -17.6678  -42.0368 H         1 UNK         0.0600 
    158 H158       -1.2608  -17.6802  -43.3275 H         1 UNK         0.0600 
    159 H159        2.1975  -18.4495  -42.8282 H         1 UNK         0.3000 
    160 H160        4.2235  -20.5880  -42.4731 H         1 UNK         0.0600 
    161 H161        4.7960  -20.4637  -45.4788 H         1 UNK         0.0600 
    162 H162        4.7266  -21.9058  -44.4786 H         1 UNK         0.0600 
    163 H163        6.0151  -20.7395  -44.2341 H         1 UNK         0.0600 
    164 H164        4.9166  -18.5012  -42.3412 H         1 UNK         0.3000 
    165 H165        5.0477  -16.3106  -42.6257 H         1 UNK         0.0600 
    166 H166        7.1782  -17.0730  -43.7023 H         1 UNK         0.0600 
    167 H167        6.7036  -16.2997  -45.2106 H         1 UNK         0.0600 
    168 H168        7.0209  -15.3243  -43.7762 H         1 UNK         0.0600 
    169 H169        4.7976  -14.7744  -45.0726 H         1 UNK         0.3000 
    170 H170        1.4330  -13.7477  -44.5139 H         1 UNK         0.0600 
    171 H171        2.5026  -11.5330  -44.6926 H         1 UNK         0.0600 
    172 H172        4.0895  -12.2370  -44.3795 H         1 UNK         0.0600 
    173 H173        2.8497  -12.2640  -43.1334 H         1 UNK         0.0600 
    174 H174        1.7254  -13.8166  -46.6761 H         1 UNK         0.3000 
    175 H175        4.4599  -13.8000  -48.9552 H         1 UNK         0.0600 
    176 H176        3.3648  -15.9858  -48.6366 H         1 UNK         0.0600 
    177 H177        1.7900  -15.2300  -48.5005 H         1 UNK         0.0600 
    178 H178        2.6739  -15.1524  -50.0207 H         1 UNK         0.0600 
    179 H179        3.3833  -11.9752  -49.4989 H         1 UNK         0.3000 
    180 H180        1.9924  -10.2135  -49.3951 H         1 UNK         0.0600 
    181 H181       -0.3593  -11.6738  -50.7307 H         1 UNK         0.0600 
    182 H182        1.2428  -11.4569  -51.4242 H         1 UNK         0.0600 
    183 H183        0.2137  -10.0594  -51.1507 H         1 UNK         0.0600 
    184 H184       -0.8329  -10.5610  -48.5935 H         1 UNK         0.3000 
    185 H185       -0.4028   -9.0960  -45.4101 H         1 UNK         0.0600 
    186 H186       -0.8613   -7.1283  -46.8714 H         1 UNK         0.0600 
    187 H187       -1.9646   -8.0869  -47.8509 H         1 UNK         0.0600 
    188 H188       -2.3462   -7.7440  -46.1632 H         1 UNK         0.0600 
    189 H189       -2.5874  -10.2822  -46.9131 H         1 UNK         0.3000 
    190 H190       -1.9636  -22.1652  -44.9330 H         1 UNK         0.3000 
    191 H191       -4.5435  -22.3353  -46.1836 H         1 UNK         0.0600 
    192 H192       -4.1763  -20.9633  -44.1711 H         1 UNK         0.0600 
    193 H193       -5.3715  -22.2032  -43.8264 H         1 UNK         0.0600 
    194 H194       -3.7245  -22.3854  -43.2328 H         1 UNK         0.0600 
    195 H195       -2.6526  -24.6257  -44.1215 H         1 UNK         0.3000 
    196 H196       -4.5829  -26.6888  -44.0421 H         1 UNK         0.0600 
    197 H197       -2.6465  -28.1099  -43.3284 H         1 UNK         0.0600 
    198 H198       -2.6813  -26.5761  -42.4741 H         1 UNK         0.0600 
    199 H199       -1.5331  -26.8275  -43.7882 H         1 UNK         0.0600 
    200 H200       -1.9497  -26.0732  -46.3779 H         1 UNK         0.3000 
    201 H201       -2.4627  -28.3775  -48.0393 H         1 UNK         0.0600 
    202 H202       -0.9057  -27.1910  -49.5937 H         1 UNK         0.0600 
    203 H203       -0.2657  -27.1999  -47.9581 H         1 UNK         0.0600 
    204 H204       -1.0039  -25.7369  -48.6069 H         1 UNK         0.0600 
    205 H205       -4.1927  -25.4817  -47.6055 H         1 UNK         0.3000 
    206 H206       -5.8228  -24.3810  -48.5542 H         1 UNK         0.0600 
    207 H207       -6.9073  -26.6213  -48.8660 H         1 UNK         0.0600 
    208 H208       -7.3930  -25.4640  -50.0936 H         1 UNK         0.0600 
    209 H209       -6.2287  -26.7166  -50.4916 H         1 UNK         0.0600 
    210 H210       -2.9909  -24.3693  -49.7378 H         1 UNK         0.3000 
    211 H211       -3.2082  -23.5641  -52.4909 H         1 UNK         0.0600 
    212 H212       -1.1167  -24.5126  -51.4877 H         1 UNK         0.0600 
    213 H213       -0.8301  -22.9419  -52.2144 H         1 UNK         0.0600 
    214 H214       -0.9546  -23.0875  -50.4625 H         1 UNK         0.0600 
    215 H215       -3.1312  -21.8452  -49.3681 H         1 UNK         0.3000 
    216 H216       -3.2022  -19.1732  -50.5124 H         1 UNK         0.0600 
    217 H217       -3.7868  -20.2323  -47.6971 H         1 UNK         0.0600 
    218 H218       -3.7948  -18.5272  -48.1320 H         1 UNK         0.0600 
    219 H219       -2.3126  -19.4425  -48.2645 H         1 UNK         0.0600 
    220 H220       -5.6261  -21.5616  -49.5475 H         1 UNK         0.3000 
    221 H221       -7.8958  -19.7822  -49.5951 H         1 UNK         0.0600 
    222 H222       -7.7599  -22.8450  -49.6780 H         1 UNK         0.0600 
    223 H223       -7.8614  -21.8558  -48.2221 H         1 UNK         0.0600 
    224 H224       -9.1969  -21.8843  -49.3627 H         1 UNK         0.0600 
    225 H225       -6.5822  -22.2286  -51.8863 H         1 UNK         0.3000 
    226 H226       -8.5223  -21.6674  -53.9604 H         1 UNK         0.0600 
    227 H227       -7.4419  -23.8963  -53.6550 H         1 UNK         0.0600 
    228 H228       -7.1060  -23.2569  -55.2567 H         1 UNK         0.0600 
    229 H229       -5.8636  -23.1982  -54.0120 H         1 UNK         0.0600 
    230 H230       -5.6204  -20.1249  -52.9843 H         1 UNK         0.3000 
    231 H231       -4.2484  -18.5780  -53.7346 H         1 UNK         0.0600 
    232 H232       -6.1906  -17.9758  -56.0263 H         1 UNK         0.0600 
    233 H233       -4.9043  -16.9383  -55.4313 H         1 UNK         0.0600 
    234 H234       -6.2909  -17.2785  -54.4092 H         1 UNK         0.0600 
    235 H235       -4.0071  -21.3033  -54.4786 H         1 UNK         0.3000 
    236 H236       -2.7639  -21.4698  -57.1399 H         1 UNK         0.0600 
    237 H237       -3.0108  -23.5157  -54.8660 H         1 UNK         0.0600 
    238 H238       -4.1095  -23.3737  -56.2375 H         1 UNK         0.0600 
    239 H239       -2.4384  -23.8500  -56.4948 H         1 UNK         0.0600 
    240 H240       -1.8532  -20.4771  -54.0132 H         1 UNK         0.3000 
    241 H241        0.8563  -21.2867  -53.8850 H         1 UNK         0.0600 
    242 H242       -0.4434  -18.8845  -56.0613 H         1 UNK         0.3800 
    243 H243        1.0916  -18.1366  -56.4190 H         1 UNK         0.3800 
    244 H244       -0.3456  -20.6058  -51.8793 H         1 UNK         0.0800 
    245 H245        1.0525  -19.6066  -52.0925 H         1 UNK         0.0800 
    246 H246        1.0730  -17.2063  -52.0692 H         1 UNK         0.0800 
    247 H247       -0.2988  -16.1459  -51.8908 H         1 UNK         0.0800 
@<TRIPOS>BOND
     1    1    2 1    
     2    1  127 1    
     3    1  128 1    
     4    1  129 1    
     5    2    3 2    
     6    2    4 am   BACKBONE|DICT|INTERRES
     7    4    5 1    
     8    4  130 1    
     9    5    6 1    
    10    5   65 1    
    11    5  131 1    
    12    6    7 1    
    13    6  132 1    
    14    6  133 1    
    15    7    8 1    
    16    8    9 1    
    17    8  134 1    
    18    8  135 1    
    19    9   10 ar   
    20    9   14 ar   
    21   10   11 ar   
    22   10  136 1    
    23   11   12 ar   
    24   11  126 1    
    25   12   13 ar   
    26   12  137 1    
    27   13   14 ar   
    28   13   15 1    
    29   14  138 1    
    30   15   16 1    
    31   15  139 1    
    32   15  140 1    
    33   16   17 1    
    34   17   18 1    
    35   17  141 1    
    36   17  142 1    
    37   18   19 1    
    38   18   67 1    
    39   18  143 1    
    40   19   20 am   BACKBONE|DICT|INTERRES
    41   19  144 1    
    42   20   21 2    
    43   20   22 1    
    44   22   23 1    
    45   22   24 1    
    46   22  145 1    
    47   23  146 1    
    48   23  147 1    
    49   23  148 1    
    50   24   25 am   BACKBONE|DICT|INTERRES
    51   24  149 1    
    52   25   26 2    
    53   25   27 1    
    54   27   28 1    
    55   27   29 1    
    56   27  150 1    
    57   28  151 1    
    58   28  152 1    
    59   28  153 1    
    60   29   30 am   BACKBONE|DICT|INTERRES
    61   29  154 1    
    62   30   31 2    
    63   30   32 1    
    64   32   33 1    
    65   32   34 1    
    66   32  155 1    
    67   33  156 1    
    68   33  157 1    
    69   33  158 1    
    70   34   35 am   BACKBONE|DICT|INTERRES
    71   34  159 1    
    72   35   36 2    
    73   35   37 1    
    74   37   38 1    
    75   37   39 1    
    76   37  160 1    
    77   38  161 1    
    78   38  162 1    
    79   38  163 1    
    80   39   40 am   BACKBONE|DICT|INTERRES
    81   39  164 1    
    82   40   41 2    
    83   40   42 1    
    84   42   43 1    
    85   42   44 1    
    86   42  165 1    
    87   43  166 1    
    88   43  167 1    
    89   43  168 1    
    90   44   45 am   BACKBONE|DICT|INTERRES
    91   44  169 1    
    92   45   46 2    
    93   45   47 1    
    94   47   48 1    
    95   47   49 1    
    96   47  170 1    
    97   48  171 1    
    98   48  172 1    
    99   48  173 1    
   100   49   50 am   BACKBONE|DICT|INTERRES
   101   49  174 1    
   102   50   51 2    
   103   50   52 1    
   104   52   53 1    
   105   52   54 1    
   106   52  175 1    
   107   53  176 1    
   108   53  177 1    
   109   53  178 1    
   110   54   55 am   BACKBONE|DICT|INTERRES
   111   54  179 1    
   112   55   56 2    
   113   55   57 1    
   114   57   58 1    
   115   57   59 1    
   116   57  180 1    
   117   58  181 1    
   118   58  182 1    
   119   58  183 1    
   120   59   60 am   BACKBONE|DICT|INTERRES
   121   59  184 1    
   122   60   61 2    
   123   60   62 1    
   124   62   63 1    
   125   62   64 1    
   126   62  185 1    
   127   63  186 1    
   128   63  187 1    
   129   63  188 1    
   130   64   65 am   BACKBONE|DICT|INTERRES
   131   64  189 1    
   132   65   66 2    
   133   67   68 2    
   134   67   69 am   BACKBONE|DICT|INTERRES
   135   69   70 1    
   136   69  190 1    
   137   70   71 1    
   138   70   72 1    
   139   70  191 1    
   140   71  192 1    
   141   71  193 1    
   142   71  194 1    
   143   72   73 2    
   144   72   74 am   BACKBONE|DICT|INTERRES
   145   74   75 1    
   146   74  195 1    
   147   75   76 1    
   148   75   77 1    
   149   75  196 1    
   150   76  197 1    
   151   76  198 1    
   152   76  199 1    
   153   77   78 2    
   154   77   79 am   BACKBONE|DICT|INTERRES
   155   79   80 1    
   156   79  200 1    
   157   80   81 1    
   158   80   82 1    
   159   80  201 1    
   160   81  202 1    
   161   81  203 1    
   162   81  204 1    
   163   82   83 2    
   164   82   84 am   BACKBONE|DICT|INTERRES
   165   84   85 1    
   166   84  205 1    
   167   85   86 1    
   168   85   87 1    
   169   85  206 1    
   170   86  207 1    
   171   86  208 1    
   172   86  209 1    
   173   87   88 2    
   174   87   89 am   BACKBONE|DICT|INTERRES
   175   89   90 1    
   176   89  210 1    
   177   90   91 1    
   178   90   92 1    
   179   90  211 1    
   180   91  212 1    
   181   91  213 1    
   182   91  214 1    
   183   92   93 2    
   184   92   94 am   BACKBONE|DICT|INTERRES
   185   94   95 1    
   186   94  215 1    
   187   95   96 1    
   188   95   97 1    
   189   95  216 1    
   190   96  217 1    
   191   96  218 1    
   192   96  219 1    
   193   97   98 2    
   194   97   99 am   BACKBONE|DICT|INTERRES
   195   99  100 1    
   196   99  220 1    
   197  100  101 1    
   198  100  102 1    
   199  100  221 1    
   200  101  222 1    
   201  101  223 1    
   202  101  224 1    
   203  102  103 2    
   204  102  104 am   BACKBONE|DICT|INTERRES
   205  104  105 1    
   206  104  225 1    
   207  105  106 1    
   208  105  107 1    
   209  105  226 1    
   210  106  227 1    
   211  106  228 1    
   212  106  229 1    
   213  107  108 2    
   214  107  109 am   BACKBONE|DICT|INTERRES
   215  109  110 1    
   216  109  230 1    
   217  110  111 1    
   218  110  112 1    
   219  110  231 1    
   220  111  232 1    
   221  111  233 1    
   222  111  234 1    
   223  112  113 2    
   224  112  114 am   BACKBONE|DICT|INTERRES
   225  114  115 1    
   226  114  235 1    
   227  115  116 1    
   228  115  117 1    
   229  115  236 1    
   230  116  237 1    
   231  116  238 1    
   232  116  239 1    
   233  117  118 2    
   234  117  119 am   BACKBONE|DICT|INTERRES
   235  119  120 1    
   236  119  240 1    
   237  120  121 1    
   238  120  124 1    
   239  120  241 1    
   240  121  122 am   BACKBONE|DICT|INTERRES
   241  121  123 2    
   242  122  242 1    
   243  122  243 1    
   244  124  125 1    
   245  124  244 1    
   246  124  245 1    
   247  125  126 1    
   248  126  246 1    
   249  126  247 1    
@<TRIPOS>SUBSTRUCTURE
     1 UNK         1 GROUP             0       ****    0 ROOT    
