@<TRIPOS>MOLECULE
3R540
247   249    1
SMALL
USER_CHARGES


@<TRIPOS>ATOM
      1 CA          1.3877  -10.6756  -49.4295 C.3       0 UNK        -0.1800 
      2 C           1.1775  -12.1347  -49.8099 C.2       0 UNK         0.5000 
      3 O           1.9210  -12.6657  -50.6351 O.2       0 UNK        -0.5000 
      4 N           0.1629  -12.7787  -49.2210 N.am      1 UNK        -0.5000 
      5 CA         -0.1351  -14.2017  -49.3955 C.3       1 UNK         0.1400 
      6 C6         -1.5954  -14.5149  -48.9831 C.3       23 UNK        -0.0398 
      7 S7         -2.1952  -16.1017  -49.6511 S.3       23 UNK        -0.2404 
      8 C8         -3.8075  -16.2323  -48.8210 C.3       23 UNK        -0.0205 
      9 C9         -4.5739  -17.4714  -49.2617 C.ar      23 UNK        -0.0193 
     10 C10        -5.6494  -17.3609  -50.1473 C.ar      23 UNK        -0.1150 
     11 C11        -6.3880  -18.4872  -50.5274 C.ar      23 UNK        -0.0193 
     12 C12        -6.0431  -19.7364  -49.9950 C.ar      23 UNK        -0.1150 
     13 C13        -4.9600  -19.8632  -49.1209 C.ar      23 UNK        -0.0193 
     14 C14        -4.2276  -18.7287  -48.7614 C.ar      23 UNK        -0.1150 
     15 C15        -4.5590  -21.2279  -48.5878 C.3       23 UNK        -0.0205 
     16 S16        -5.2290  -21.5555  -46.9284 S.3       23 UNK        -0.2404 
     17 C17        -4.1223  -22.9082  -46.3967 C.3       23 UNK        -0.0398 
     18 CA         -2.9013  -22.3721  -45.5999 C.3       11 UNK         0.1400 
     19 N          -3.2624  -21.7284  -44.3306 N.am      11 UNK        -0.5000 
     20 C          -3.7220  -22.3143  -43.2146 C.2       10 UNK         0.5000 
     21 O          -4.0203  -23.5067  -43.1405 O.2       10 UNK        -0.5000 
     22 CA         -3.8217  -21.4352  -41.9498 C.3       10 UNK         0.1400 
     23 CB         -2.6699  -21.7656  -40.9866 C.3       10 UNK        -0.1800 
     24 N          -3.7789  -20.0028  -42.2429 N.am      10 UNK        -0.5000 
     25 C          -4.8112  -19.2886  -42.7094 C.2       9 UNK         0.5000 
     26 O          -5.9513  -19.7351  -42.8392 O.2       9 UNK        -0.5000 
     27 CA         -4.5050  -17.8396  -43.1344 C.3       9 UNK         0.1400 
     28 CB         -4.6804  -16.8791  -41.9486 C.3       9 UNK        -0.1800 
     29 N          -3.1616  -17.6748  -43.6977 N.am      9 UNK        -0.5000 
     30 C          -2.7237  -18.2693  -44.8173 C.2       8 UNK         0.5000 
     31 O          -3.4089  -19.0196  -45.5037 O.2       8 UNK        -0.5000 
     32 CA         -1.2607  -18.0291  -45.2121 C.3       8 UNK         0.1400 
     33 CB         -1.1111  -16.6421  -45.8478 C.3       8 UNK        -0.1800 
     34 N          -0.3633  -18.1523  -44.0671 N.am      8 UNK        -0.5000 
     35 C          -0.1052  -19.2880  -43.4051 C.2       7 UNK         0.5000 
     36 O          -0.5186  -20.3944  -43.7536 O.2       7 UNK        -0.5000 
     37 CA          0.7390  -19.1689  -42.1248 C.3       7 UNK         0.1400 
     38 CB          2.2282  -19.3743  -42.4272 C.3       7 UNK        -0.1800 
     39 N           0.5524  -17.8791  -41.4628 N.am      7 UNK        -0.5000 
     40 C          -0.5346  -17.5492  -40.7525 C.2       6 UNK         0.5000 
     41 O          -1.4797  -18.3131  -40.5528 O.2       6 UNK        -0.5000 
     42 CA         -0.5837  -16.1082  -40.2118 C.3       6 UNK         0.1400 
     43 CB          0.2273  -15.9867  -38.9130 C.3       6 UNK        -0.1800 
     44 N          -0.0950  -15.1275  -41.1846 N.am      6 UNK        -0.5000 
     45 C          -0.7245  -14.8323  -42.3302 C.2       5 UNK         0.5000 
     46 O          -1.7905  -15.3437  -42.6701 O.2       5 UNK        -0.5000 
     47 CA         -0.0368  -13.8267  -43.2728 C.3       5 UNK         0.1400 
     48 CB         -0.4480  -12.3906  -42.9164 C.3       5 UNK        -0.1800 
     49 N           1.4268  -13.9181  -43.3038 N.am      5 UNK        -0.5000 
     50 C           2.1197  -15.0073  -43.6587 C.2       4 UNK         0.5000 
     51 O           1.6109  -16.1107  -43.8685 O.2       4 UNK        -0.5000 
     52 CA          3.6391  -14.8560  -43.7722 C.3       4 UNK         0.1400 
     53 CB          4.3197  -15.1999  -42.4352 C.3       4 UNK        -0.1800 
     54 N           4.0918  -15.7630  -44.8194 N.am      4 UNK        -0.5000 
     55 C           5.2550  -15.6976  -45.4754 C.2       3 UNK         0.5000 
     56 O           6.1166  -14.8445  -45.2587 O.2       3 UNK        -0.5000 
     57 CA          5.5024  -16.7694  -46.5539 C.3       3 UNK         0.1400 
     58 CB          6.1967  -17.9927  -45.9350 C.3       3 UNK        -0.1800 
     59 N           4.2690  -17.2019  -47.2170 N.am      3 UNK        -0.5000 
     60 C           3.6441  -16.5117  -48.1816 C.2       2 UNK         0.5000 
     61 O           4.0867  -15.4631  -48.6560 O.2       2 UNK        -0.5000 
     62 CA          2.3345  -17.1188  -48.7431 C.3       2 UNK         0.1400 
     63 CB          1.6219  -18.0692  -47.7562 C.3       2 UNK        -0.1800 
     64 N           1.3879  -16.1200  -49.2555 N.am      2 UNK        -0.5000 
     65 C           0.8867  -15.0553  -48.6110 C.2       1 UNK         0.5000 
     66 O           1.1759  -14.7381  -47.4547 O.2       1 UNK        -0.5000 
     67 C          -1.7720  -23.4131  -45.4097 C.2       11 UNK         0.5000 
     68 O          -1.7567  -24.4471  -46.0776 O.2       11 UNK        -0.5000 
     69 N          -0.8464  -23.1112  -44.4888 N.am      12 UNK        -0.5000 
     70 CA          0.2576  -23.9767  -44.0837 C.3       12 UNK         0.1400 
     71 CB          0.5601  -23.7331  -42.5963 C.3       12 UNK        -0.1800 
     72 C           1.5088  -23.7301  -44.9391 C.2       12 UNK         0.5000 
     73 O           2.1470  -24.6889  -45.3738 O.2       12 UNK        -0.5000 
     74 N           1.8286  -22.4496  -45.1749 N.am      13 UNK        -0.5000 
     75 CA          2.9569  -22.0255  -46.0122 C.3       13 UNK         0.1400 
     76 CB          3.4909  -20.6799  -45.4971 C.3       13 UNK        -0.1800 
     77 C           2.5830  -21.9182  -47.5021 C.2       13 UNK         0.5000 
     78 O           3.4726  -21.7994  -48.3450 O.2       13 UNK        -0.5000 
     79 N           1.2776  -21.9266  -47.7952 N.am      14 UNK        -0.5000 
     80 CA          0.7085  -21.8608  -49.1359 C.3       14 UNK         0.1400 
     81 CB         -0.7994  -21.6257  -48.9899 C.3       14 UNK        -0.1800 
     82 C           1.0109  -23.1443  -49.9342 C.2       14 UNK         0.5000 
     83 O           0.8386  -24.2437  -49.4019 O.2       14 UNK        -0.5000 
     84 N           1.4574  -22.9792  -51.1858 N.am      15 UNK        -0.5000 
     85 CA          1.8953  -24.0406  -52.0954 C.3       15 UNK         0.1400 
     86 CB          2.4455  -23.3986  -53.3796 C.3       15 UNK        -0.1800 
     87 C           0.7718  -25.0459  -52.4091 C.2       15 UNK         0.5000 
     88 O          -0.1471  -24.7224  -53.1615 O.2       15 UNK        -0.5000 
     89 N           0.8487  -26.2309  -51.7868 N.am      16 UNK        -0.5000 
     90 CA         -0.1656  -27.2935  -51.8035 C.3       16 UNK         0.1400 
     91 CB         -0.2857  -27.9216  -53.2083 C.3       16 UNK        -0.1800 
     92 C          -1.5234  -26.8303  -51.2269 C.2       16 UNK         0.5000 
     93 O          -2.5752  -27.2772  -51.6874 O.2       16 UNK        -0.5000 
     94 N          -1.4610  -25.9371  -50.2268 N.am      17 UNK        -0.5000 
     95 CA         -2.5809  -25.2988  -49.5327 C.3       17 UNK         0.1400 
     96 CB         -3.4136  -26.3333  -48.7460 C.3       17 UNK        -0.1800 
     97 C          -3.4331  -24.3938  -50.4489 C.2       17 UNK         0.5000 
     98 O          -4.6552  -24.3503  -50.3031 O.2       17 UNK        -0.5000 
     99 N          -2.7759  -23.6651  -51.3595 N.am      18 UNK        -0.5000 
    100 CA        -3.3779  -22.6578  -52.2283 C.3       18 UNK         0.1400 
    101 CB        -3.8599  -23.3184  -53.5286 C.3       18 UNK        -0.1800 
    102 C         -2.3361  -21.5669  -52.5119 C.2       18 UNK         0.5000 
    103 O         -1.1563  -21.8814  -52.6733 O.2       18 UNK        -0.5000 
    104 N         -2.7700  -20.3051  -52.5492 N.am      19 UNK        -0.5000 
    105 CA        -1.9309  -19.1353  -52.7902 C.3       19 UNK         0.1400 
    106 CB        -1.0466  -18.8524  -51.5590 C.3       19 UNK        -0.1800 
    107 C         -2.8299  -17.9372  -53.1280 C.2       19 UNK         0.5000 
    108 O         -4.0380  -17.9939  -52.8853 O.2       19 UNK        -0.5000 
    109 N         -2.2258  -16.8808  -53.6916 N.am      20 UNK        -0.5000 
    110 CA        -2.8569  -15.6169  -54.0911 C.3       20 UNK         0.1400 
    111 CB        -3.1618  -14.7580  -52.8432 C.3       20 UNK        -0.1800 
    112 C         -4.0750  -15.8443  -55.0129 C.2       20 UNK         0.5000 
    113 O         -3.9135  -16.4265  -56.0875 O.2       20 UNK        -0.5000 
    114 N         -5.2691  -15.4289  -54.5681 N.am      21 UNK        -0.5000 
    115 CA        -6.5481  -15.5973  -55.2634 C.3       21 UNK         0.1400 
    116 CB        -7.6388  -14.8543  -54.4763 C.3       21 UNK        -0.1800 
    117 C         -6.9589  -17.0668  -55.4935 C.2       21 UNK         0.5000 
    118 O         -7.7319  -17.3354  -56.4144 O.2       21 UNK        -0.5000 
    119 N         -6.4312  -17.9845  -54.6744 N.am      22 UNK        -0.5000 
    120 CA        -6.5941  -19.4367  -54.8263 C.3       22 UNK         0.1400 
    121 C         -5.5511  -20.0736  -55.7931 C.2       22 UNK         0.5000 
    122 N         -4.5745  -19.3422  -56.3198 N.am      22 UNK        -0.7600 
    123 O         -5.6428  -21.2602  -56.0925 O.2       22 UNK        -0.5000 
    124 C124       -6.6033  -20.1531  -53.4502 C.3       23 UNK        -0.0398 
    125 S125       -8.0792  -19.7663  -52.4463 S.3       23 UNK        -0.2404 
    126 C126       -7.5650  -18.2964  -51.4852 C.3       23 UNK        -0.0205 
    127 H127        0.6513  -10.3358  -48.7009 H         1 UNK         0.0600 
    128 H128        1.3091  -10.0420  -50.3130 H         1 UNK         0.0600 
    129 H129        2.3797  -10.5400  -48.9985 H         1 UNK         0.0600 
    130 H130       -0.3874  -12.2973  -48.5246 H         1 UNK         0.3000 
    131 H131       -0.0333  -14.4251  -50.4602 H         1 UNK         0.0600 
    132 H132       -2.2603  -13.7414  -49.3702 H         1 UNK         0.0800 
    133 H133       -1.7123  -14.4967  -47.8982 H         1 UNK         0.0800 
    134 H134       -4.3898  -15.3335  -49.0290 H         1 UNK         0.0800 
    135 H135       -3.6643  -16.2629  -47.7403 H         1 UNK         0.0800 
    136 H136       -5.9154  -16.3904  -50.5415 H         1 UNK         0.1150 
    137 H137       -6.6102  -20.6168  -50.2597 H         1 UNK         0.1150 
    138 H138       -3.3902  -18.8225  -48.0852 H         1 UNK         0.1150 
    139 H139       -4.9029  -22.0078  -49.2652 H         1 UNK         0.0800 
    140 H140       -3.4732  -21.2916  -48.5634 H         1 UNK         0.0800 
    141 H141       -3.8065  -23.4558  -47.2852 H         1 UNK         0.0800 
    142 H142       -4.6939  -23.6165  -45.7958 H         1 UNK         0.0800 
    143 H143       -2.4451  -21.5846  -46.2015 H         1 UNK         0.0600 
    144 H144       -3.1092  -20.7282  -44.3115 H         1 UNK         0.3000 
    145 H145       -4.7653  -21.6697  -41.4530 H         1 UNK         0.0600 
    146 H146       -2.7434  -21.1825  -40.0684 H         1 UNK         0.0600 
    147 H147       -2.6837  -22.8193  -40.7052 H         1 UNK         0.0600 
    148 H148       -1.6980  -21.5592  -41.4362 H         1 UNK         0.0600 
    149 H149       -2.8887  -19.5382  -42.1214 H         1 UNK         0.3000 
    150 H150       -5.2251  -17.5645  -43.9078 H         1 UNK         0.0600 
    151 H151       -5.6757  -16.9722  -41.5124 H         1 UNK         0.0600 
    152 H152       -4.5582  -15.8419  -42.2609 H         1 UNK         0.0600 
    153 H153       -3.9542  -17.0782  -41.1596 H         1 UNK         0.0600 
    154 H154       -2.5491  -17.0178  -43.2216 H         1 UNK         0.3000 
    155 H155       -0.9666  -18.7811  -45.9475 H         1 UNK         0.0600 
    156 H156       -1.6804  -15.8761  -45.3217 H         1 UNK         0.0600 
    157 H157       -1.4632  -16.6662  -46.8762 H         1 UNK         0.0600 
    158 H158       -0.0746  -16.3174  -45.8670 H         1 UNK         0.0600 
    159 H159        0.1121  -17.3054  -43.7709 H         1 UNK         0.3000 
    160 H160        0.4207  -19.9592  -41.4416 H         1 UNK         0.0600 
    161 H161        2.5962  -18.6625  -43.1674 H         1 UNK         0.0600 
    162 H162        2.4025  -20.3799  -42.8088 H         1 UNK         0.0600 
    163 H163        2.8331  -19.2643  -41.5271 H         1 UNK         0.0600 
    164 H164        1.2555  -17.1749  -41.6332 H         1 UNK         0.3000 
    165 H165       -1.6263  -15.8741  -39.9857 H         1 UNK         0.0600 
    166 H166        0.1331  -14.9900  -38.4817 H         1 UNK         0.0600 
    167 H167       -0.1257  -16.6980  -38.1651 H         1 UNK         0.0600 
    168 H168        1.2876  -16.1826  -39.0780 H         1 UNK         0.0600 
    169 H169        0.7786  -14.6660  -40.9786 H         1 UNK         0.3000 
    170 H170       -0.3926  -14.0368  -44.2833 H         1 UNK         0.0600 
    171 H171       -1.5339  -12.2857  -42.9073 H         1 UNK         0.0600 
    172 H172       -0.0816  -12.0993  -41.9313 H         1 UNK         0.0600 
    173 H173       -0.0612  -11.6770  -43.6441 H         1 UNK         0.0600 
    174 H174        1.9287  -13.0605  -43.1242 H         1 UNK         0.3000 
    175 H175        3.8748  -13.8289  -44.0583 H         1 UNK         0.0600 
    176 H176        4.1155  -16.2286  -42.1348 H         1 UNK         0.0600 
    177 H177        5.4011  -15.0788  -42.4968 H         1 UNK         0.0600 
    178 H178        3.9668  -14.5467  -41.6363 H         1 UNK         0.0600 
    179 H179        3.4061  -16.4604  -45.0777 H         1 UNK         0.3000 
    180 H180        6.1738  -16.3431  -47.3025 H         1 UNK         0.0600 
    181 H181        5.5918  -18.4462  -45.1490 H         1 UNK         0.0600 
    182 H182        7.1519  -17.7122  -45.4891 H         1 UNK         0.0600 
    183 H183        6.4022  -18.7549  -46.6870 H         1 UNK         0.0600 
    184 H184        3.8622  -18.0672  -46.8976 H         1 UNK         0.3000 
    185 H185        2.6285  -17.7117  -49.6102 H         1 UNK         0.0600 
    186 H186        2.1839  -18.9937  -47.6366 H         1 UNK         0.0600 
    187 H187        1.5094  -17.6207  -46.7699 H         1 UNK         0.0600 
    188 H188        0.6303  -18.3469  -48.1148 H         1 UNK         0.0600 
    189 H189        1.1050  -16.2599  -50.2143 H         1 UNK         0.3000 
    190 H190       -0.9021  -22.2015  -44.0370 H         1 UNK         0.3000 
    191 H191       -0.0358  -25.0221  -44.2031 H         1 UNK         0.0600 
    192 H192       -0.3073  -23.9643  -41.9777 H         1 UNK         0.0600 
    193 H193        0.8403  -22.6969  -42.4023 H         1 UNK         0.0600 
    194 H194        1.3806  -24.3658  -42.2554 H         1 UNK         0.0600 
    195 H195        1.2485  -21.7231  -44.7786 H         1 UNK         0.3000 
    196 H196        3.7655  -22.7559  -45.9372 H         1 UNK         0.0600 
    197 H197        4.2678  -20.2911  -46.1559 H         1 UNK         0.0600 
    198 H198        3.9413  -20.7917  -44.5114 H         1 UNK         0.0600 
    199 H199        2.7038  -19.9285  -45.4301 H         1 UNK         0.0600 
    200 H200        0.6316  -22.0814  -47.0379 H         1 UNK         0.3000 
    201 H201        1.1462  -21.0035  -49.6521 H         1 UNK         0.0600 
    202 H202       -1.0032  -20.7036  -48.4445 H         1 UNK         0.0600 
    203 H203       -1.2836  -22.4455  -48.4599 H         1 UNK         0.0600 
    204 H204       -1.2767  -21.5329  -49.9610 H         1 UNK         0.0600 
    205 H205        1.4934  -22.0445  -51.5652 H         1 UNK         0.3000 
    206 H206        2.7162  -24.5743  -51.6121 H         1 UNK         0.0600 
    207 H207        3.3016  -22.7583  -53.1660 H         1 UNK         0.0600 
    208 H208        2.7777  -24.1606  -54.0858 H         1 UNK         0.0600 
    209 H209        1.6898  -22.7924  -53.8815 H         1 UNK         0.0600 
    210 H210        1.6262  -26.3874  -51.1600 H         1 UNK         0.3000 
    211 H211        0.1964  -28.0702  -51.1285 H         1 UNK         0.0600 
    212 H212       -0.7156  -27.2261  -53.9296 H         1 UNK         0.0600 
    213 H213       -0.9248  -28.8050  -53.1875 H         1 UNK         0.0600 
    214 H214        0.6878  -28.2362  -53.5843 H         1 UNK         0.0600 
    215 H215       -0.5427  -25.6063  -49.9443 H         1 UNK         0.3000 
    216 H216       -2.1263  -24.6335  -48.7994 H         1 UNK         0.0600 
    217 H217       -4.1538  -25.8406  -48.1148 H         1 UNK         0.0600 
    218 H218       -2.7799  -26.9303  -48.0901 H         1 UNK         0.0600 
    219 H219       -3.9509  -27.0132  -49.4074 H         1 UNK         0.0600 
    220 H220       -1.7743  -23.7676  -51.4713 H         1 UNK         0.3000 
    221 H221       -4.2292  -22.1968  -51.7226 H         1 UNK         0.0600 
    222 H222       -3.0417  -23.8191  -54.0484 H         1 UNK         0.0600 
    223 H223       -4.6354  -24.0589  -53.3322 H         1 UNK         0.0600 
    224 H224       -4.2792  -22.5788  -54.2096 H         1 UNK         0.0600 
    225 H225       -3.7461  -20.0763  -52.4132 H         1 UNK         0.3000 
    226 H226       -1.2965  -19.3285  -53.6577 H         1 UNK         0.0600 
    227 H227       -0.2870  -19.6225  -51.4297 H         1 UNK         0.0600 
    228 H228       -0.5218  -17.9012  -51.6516 H         1 UNK         0.0600 
    229 H229       -1.6402  -18.8164  -50.6452 H         1 UNK         0.0600 
    230 H230       -1.2376  -16.9464  -53.8885 H         1 UNK         0.3000 
    231 H231       -2.1227  -15.0770  -54.6906 H         1 UNK         0.0600 
    232 H232       -3.8565  -15.2527  -52.1629 H         1 UNK         0.0600 
    233 H233       -3.5870  -13.7920  -53.1178 H         1 UNK         0.0600 
    234 H234       -2.2482  -14.5523  -52.2857 H         1 UNK         0.0600 
    235 H235       -5.3084  -14.9895  -53.6604 H         1 UNK         0.3000 
    236 H236       -6.4544  -15.1295  -56.2455 H         1 UNK         0.0600 
    237 H237       -8.6049  -14.9325  -54.9769 H         1 UNK         0.0600 
    238 H238       -7.7566  -15.2608  -53.4710 H         1 UNK         0.0600 
    239 H239       -7.4072  -13.7929  -54.3854 H         1 UNK         0.0600 
    240 H240       -5.7595  -17.6943  -53.9713 H         1 UNK         0.3000 
    241 H241       -7.5634  -19.6273  -55.2907 H         1 UNK         0.0600 
    242 H242       -3.9261  -19.7787  -56.9550 H         1 UNK         0.3800 
    243 H243       -4.4906  -18.3501  -56.1280 H         1 UNK         0.3800 
    244 H244       -6.6034  -21.2361  -53.5853 H         1 UNK         0.0800 
    245 H245       -5.7022  -19.9275  -52.8841 H         1 UNK         0.0800 
    246 H246       -7.3436  -17.4874  -52.1811 H         1 UNK         0.0800 
    247 H247       -8.4217  -17.9622  -50.8991 H         1 UNK         0.0800 
@<TRIPOS>BOND
     1    1    2 1    
     2    1  127 1    
     3    1  128 1    
     4    1  129 1    
     5    2    3 2    
     6    2    4 am   BACKBONE|DICT|INTERRES
     7    4    5 1    
     8    4  130 1    
     9    5    6 1    
    10    5   65 1    
    11    5  131 1    
    12    6    7 1    
    13    6  132 1    
    14    6  133 1    
    15    7    8 1    
    16    8    9 1    
    17    8  134 1    
    18    8  135 1    
    19    9   10 ar   
    20    9   14 ar   
    21   10   11 ar   
    22   10  136 1    
    23   11   12 ar   
    24   11  126 1    
    25   12   13 ar   
    26   12  137 1    
    27   13   14 ar   
    28   13   15 1    
    29   14  138 1    
    30   15   16 1    
    31   15  139 1    
    32   15  140 1    
    33   16   17 1    
    34   17   18 1    
    35   17  141 1    
    36   17  142 1    
    37   18   19 1    
    38   18   67 1    
    39   18  143 1    
    40   19   20 am   BACKBONE|DICT|INTERRES
    41   19  144 1    
    42   20   21 2    
    43   20   22 1    
    44   22   23 1    
    45   22   24 1    
    46   22  145 1    
    47   23  146 1    
    48   23  147 1    
    49   23  148 1    
    50   24   25 am   BACKBONE|DICT|INTERRES
    51   24  149 1    
    52   25   26 2    
    53   25   27 1    
    54   27   28 1    
    55   27   29 1    
    56   27  150 1    
    57   28  151 1    
    58   28  152 1    
    59   28  153 1    
    60   29   30 am   BACKBONE|DICT|INTERRES
    61   29  154 1    
    62   30   31 2    
    63   30   32 1    
    64   32   33 1    
    65   32   34 1    
    66   32  155 1    
    67   33  156 1    
    68   33  157 1    
    69   33  158 1    
    70   34   35 am   BACKBONE|DICT|INTERRES
    71   34  159 1    
    72   35   36 2    
    73   35   37 1    
    74   37   38 1    
    75   37   39 1    
    76   37  160 1    
    77   38  161 1    
    78   38  162 1    
    79   38  163 1    
    80   39   40 am   BACKBONE|DICT|INTERRES
    81   39  164 1    
    82   40   41 2    
    83   40   42 1    
    84   42   43 1    
    85   42   44 1    
    86   42  165 1    
    87   43  166 1    
    88   43  167 1    
    89   43  168 1    
    90   44   45 am   BACKBONE|DICT|INTERRES
    91   44  169 1    
    92   45   46 2    
    93   45   47 1    
    94   47   48 1    
    95   47   49 1    
    96   47  170 1    
    97   48  171 1    
    98   48  172 1    
    99   48  173 1    
   100   49   50 am   BACKBONE|DICT|INTERRES
   101   49  174 1    
   102   50   51 2    
   103   50   52 1    
   104   52   53 1    
   105   52   54 1    
   106   52  175 1    
   107   53  176 1    
   108   53  177 1    
   109   53  178 1    
   110   54   55 am   BACKBONE|DICT|INTERRES
   111   54  179 1    
   112   55   56 2    
   113   55   57 1    
   114   57   58 1    
   115   57   59 1    
   116   57  180 1    
   117   58  181 1    
   118   58  182 1    
   119   58  183 1    
   120   59   60 am   BACKBONE|DICT|INTERRES
   121   59  184 1    
   122   60   61 2    
   123   60   62 1    
   124   62   63 1    
   125   62   64 1    
   126   62  185 1    
   127   63  186 1    
   128   63  187 1    
   129   63  188 1    
   130   64   65 am   BACKBONE|DICT|INTERRES
   131   64  189 1    
   132   65   66 2    
   133   67   68 2    
   134   67   69 am   BACKBONE|DICT|INTERRES
   135   69   70 1    
   136   69  190 1    
   137   70   71 1    
   138   70   72 1    
   139   70  191 1    
   140   71  192 1    
   141   71  193 1    
   142   71  194 1    
   143   72   73 2    
   144   72   74 am   BACKBONE|DICT|INTERRES
   145   74   75 1    
   146   74  195 1    
   147   75   76 1    
   148   75   77 1    
   149   75  196 1    
   150   76  197 1    
   151   76  198 1    
   152   76  199 1    
   153   77   78 2    
   154   77   79 am   BACKBONE|DICT|INTERRES
   155   79   80 1    
   156   79  200 1    
   157   80   81 1    
   158   80   82 1    
   159   80  201 1    
   160   81  202 1    
   161   81  203 1    
   162   81  204 1    
   163   82   83 2    
   164   82   84 am   BACKBONE|DICT|INTERRES
   165   84   85 1    
   166   84  205 1    
   167   85   86 1    
   168   85   87 1    
   169   85  206 1    
   170   86  207 1    
   171   86  208 1    
   172   86  209 1    
   173   87   88 2    
   174   87   89 am   BACKBONE|DICT|INTERRES
   175   89   90 1    
   176   89  210 1    
   177   90   91 1    
   178   90   92 1    
   179   90  211 1    
   180   91  212 1    
   181   91  213 1    
   182   91  214 1    
   183   92   93 2    
   184   92   94 am   BACKBONE|DICT|INTERRES
   185   94   95 1    
   186   94  215 1    
   187   95   96 1    
   188   95   97 1    
   189   95  216 1    
   190   96  217 1    
   191   96  218 1    
   192   96  219 1    
   193   97   98 2    
   194   97   99 am   BACKBONE|DICT|INTERRES
   195   99  100 1    
   196   99  220 1    
   197  100  101 1    
   198  100  102 1    
   199  100  221 1    
   200  101  222 1    
   201  101  223 1    
   202  101  224 1    
   203  102  103 2    
   204  102  104 am   BACKBONE|DICT|INTERRES
   205  104  105 1    
   206  104  225 1    
   207  105  106 1    
   208  105  107 1    
   209  105  226 1    
   210  106  227 1    
   211  106  228 1    
   212  106  229 1    
   213  107  108 2    
   214  107  109 am   BACKBONE|DICT|INTERRES
   215  109  110 1    
   216  109  230 1    
   217  110  111 1    
   218  110  112 1    
   219  110  231 1    
   220  111  232 1    
   221  111  233 1    
   222  111  234 1    
   223  112  113 2    
   224  112  114 am   BACKBONE|DICT|INTERRES
   225  114  115 1    
   226  114  235 1    
   227  115  116 1    
   228  115  117 1    
   229  115  236 1    
   230  116  237 1    
   231  116  238 1    
   232  116  239 1    
   233  117  118 2    
   234  117  119 am   BACKBONE|DICT|INTERRES
   235  119  120 1    
   236  119  240 1    
   237  120  121 1    
   238  120  124 1    
   239  120  241 1    
   240  121  122 am   BACKBONE|DICT|INTERRES
   241  121  123 2    
   242  122  242 1    
   243  122  243 1    
   244  124  125 1    
   245  124  244 1    
   246  124  245 1    
   247  125  126 1    
   248  126  246 1    
   249  126  247 1    
@<TRIPOS>SUBSTRUCTURE
     1 UNK         1 GROUP             0       ****    0 ROOT    
