@<TRIPOS>MOLECULE
3R540
247   249    1
SMALL
USER_CHARGES


@<TRIPOS>ATOM
      1 CA         -1.2567  -10.7361  -46.0267 C.3       0 UNK        -0.1800 
      2 C          -1.9859  -12.0786  -46.0441 C.2       0 UNK         0.5000 
      3 O          -2.6969  -12.3810  -45.0905 O.2       0 UNK        -0.5000 
      4 N          -1.8500  -12.9146  -47.0852 N.am      1 UNK        -0.5000 
      5 CA         -1.0348  -12.7162  -48.2946 C.3       1 UNK         0.1400 
      6 C6         -1.3465  -13.7562  -49.3991 C.3       23 UNK        -0.0398 
      7 S7         -3.1024  -13.7744  -49.9010 S.3       23 UNK        -0.2404 
      8 C8         -3.5156  -15.5555  -49.8169 C.3       23 UNK        -0.0205 
      9 C9         -2.6191  -16.4770  -50.6468 C.ar      23 UNK        -0.0193 
     10 C10        -2.0033  -16.0419  -51.8270 C.ar      23 UNK        -0.1150 
     11 C11        -1.1898  -16.8998  -52.5727 C.ar      23 UNK        -0.0193 
     12 C12        -1.0098  -18.2152  -52.1371 C.ar      23 UNK        -0.1150 
     13 C13        -1.6244  -18.6732  -50.9680 C.ar      23 UNK        -0.0193 
     14 C14        -2.4231  -17.7976  -50.2269 C.ar      23 UNK        -0.1150 
     15 C15        -1.4388  -20.1188  -50.5270 C.3       23 UNK        -0.0205 
     16 S16         0.2593  -20.4522  -49.9548 S.3       23 UNK        -0.2404 
     17 C17         0.1052  -20.2002  -48.1531 C.3       23 UNK        -0.0398 
     18 CA          0.0226  -21.5389  -47.3737 C.3       11 UNK         0.1400 
     19 N           0.2748  -21.3682  -45.9401 N.am      11 UNK        -0.5000 
     20 C           0.4660  -22.3760  -45.0742 C.2       10 UNK         0.5000 
     21 O           0.5192  -23.5609  -45.4019 O.2       10 UNK        -0.5000 
     22 CA          0.5583  -22.0001  -43.5845 C.3       10 UNK         0.1400 
     23 CB          1.9985  -21.6295  -43.2023 C.3       10 UNK        -0.1800 
     24 N          -0.3457  -20.9027  -43.2375 N.am      10 UNK        -0.5000 
     25 C          -1.6826  -21.0115  -43.2290 C.2       9 UNK         0.5000 
     26 O          -2.2819  -22.0588  -43.4682 O.2       9 UNK        -0.5000 
     27 CA         -2.4884  -19.7281  -42.9669 C.3       9 UNK         0.1400 
     28 CB         -2.6689  -19.5025  -41.4602 C.3       9 UNK        -0.1800 
     29 N          -1.8805  -18.5466  -43.5796 N.am      9 UNK        -0.5000 
     30 C          -1.7461  -18.3661  -44.9009 C.2       8 UNK         0.5000 
     31 O          -2.1362  -19.1889  -45.7305 O.2       8 UNK        -0.5000 
     32 CA         -1.0056  -17.1062  -45.3961 C.3       8 UNK         0.1400 
     33 CB         -1.6580  -16.5013  -46.6491 C.3       8 UNK        -0.1800 
     34 N          -0.7727  -16.0704  -44.3864 N.am      8 UNK        -0.5000 
     35 C          -1.6809  -15.3693  -43.6921 C.2       7 UNK         0.5000 
     36 O          -2.8996  -15.4979  -43.8146 O.2       7 UNK        -0.5000 
     37 CA         -1.0849  -14.3998  -42.6507 C.3       7 UNK         0.1400 
     38 CB         -2.1423  -13.7476  -41.7358 C.3       7 UNK        -0.1800 
     39 N          -0.0260  -15.0505  -41.8662 N.am      7 UNK        -0.5000 
     40 C          -0.1623  -16.1186  -41.0654 C.2       6 UNK         0.5000 
     41 O          -1.2397  -16.6585  -40.8159 O.2       6 UNK        -0.5000 
     42 CA          1.1470  -16.6965  -40.4954 C.3       6 UNK         0.1400 
     43 CB          0.9401  -17.9755  -39.6564 C.3       6 UNK        -0.1800 
     44 N           2.1492  -16.9168  -41.5425 N.am      6 UNK        -0.5000 
     45 C           2.0636  -17.7446  -42.5966 C.2       5 UNK         0.5000 
     46 O           1.0823  -18.4512  -42.8303 O.2       5 UNK        -0.5000 
     47 CA          3.2638  -17.7782  -43.5666 C.3       5 UNK         0.1400 
     48 CB          2.8155  -17.9316  -45.0301 C.3       5 UNK        -0.1800 
     49 N           4.0805  -16.5702  -43.4568 N.am      5 UNK        -0.5000 
     50 C           5.1950  -16.4440  -42.7240 C.2       4 UNK         0.5000 
     51 O           5.7122  -17.3705  -42.1003 O.2       4 UNK        -0.5000 
     52 CA          5.8201  -15.0356  -42.6469 C.3       4 UNK         0.1400 
     53 CB          7.0099  -14.9247  -43.6123 C.3       4 UNK        -0.1800 
     54 N           4.8726  -13.9549  -42.9375 N.am      4 UNK        -0.5000 
     55 C           3.8069  -13.6330  -42.1894 C.2       3 UNK         0.5000 
     56 O           3.5032  -14.2081  -41.1444 O.2       3 UNK        -0.5000 
     57 CA          2.8867  -12.5307  -42.7458 C.3       3 UNK         0.1400 
     58 CB          3.3640  -11.1447  -42.2890 C.3       3 UNK        -0.1800 
     59 N           2.7903  -12.5552  -44.2086 N.am      3 UNK        -0.5000 
     60 C           2.2533  -13.5537  -44.9207 C.2       2 UNK         0.5000 
     61 O           1.7558  -14.5654  -44.4187 O.2       2 UNK        -0.5000 
     62 CA          2.2785  -13.4024  -46.4440 C.3       2 UNK         0.1400 
     63 CB          3.0430  -14.5557  -47.1152 C.3       2 UNK        -0.1800 
     64 N           0.9025  -13.3682  -46.9199 N.am      2 UNK        -0.5000 
     65 C           0.4823  -12.7060  -48.0050 C.2       1 UNK         0.5000 
     66 O           1.2327  -12.0831  -48.7565 O.2       1 UNK        -0.5000 
     67 C          -1.3212  -22.2567  -47.6035 C.2       11 UNK         0.5000 
     68 O          -1.3629  -23.2574  -48.3190 O.2       11 UNK        -0.5000 
     69 N          -2.3810  -21.7565  -46.9523 N.am      12 UNK        -0.5000 
     70 CA         -3.7303  -22.3135  -47.0098 C.3       12 UNK         0.1400 
     71 CB         -4.7003  -21.3890  -46.2619 C.3       12 UNK        -0.1800 
     72 C          -3.8183  -23.7554  -46.4800 C.2       12 UNK         0.5000 
     73 O          -4.5460  -24.5613  -47.0558 O.2       12 UNK        -0.5000 
     74 N          -3.0567  -24.0691  -45.4236 N.am      13 UNK        -0.5000 
     75 CA         -2.9226  -25.4197  -44.8806 C.3       13 UNK         0.1400 
     76 CB         -2.2072  -25.3622  -43.5223 C.3       13 UNK        -0.1800 
     77 C          -2.1911  -26.3740  -45.8428 C.2       13 UNK         0.5000 
     78 O          -2.6491  -27.4999  -46.0393 O.2       13 UNK        -0.5000 
     79 N          -1.0770  -25.9102  -46.4270 N.am      14 UNK        -0.5000 
     80 CA         -0.2367  -26.6870  -47.3393 C.3       14 UNK         0.1400 
     81 CB          1.1040  -25.9646  -47.5439 C.3       14 UNK        -0.1800 
     82 C          -0.9106  -26.9703  -48.6933 C.2       14 UNK         0.5000 
     83 O          -0.8787  -28.1091  -49.1614 O.2       14 UNK        -0.5000 
     84 N          -1.5031  -25.9334  -49.2981 N.am      15 UNK        -0.5000 
     85 CA         -2.1415  -25.9996  -50.6150 C.3       15 UNK         0.1400 
     86 CB         -2.0205  -24.6223  -51.2835 C.3       15 UNK        -0.1800 
     87 C          -3.6106  -26.4633  -50.5633 C.2       15 UNK         0.5000 
     88 O          -4.1965  -26.7084  -51.6179 O.2       15 UNK        -0.5000 
     89 N          -4.1809  -26.5562  -49.3527 N.am      16 UNK        -0.5000 
     90 CA         -5.5705  -26.9060  -49.0210 C.3       16 UNK         0.1400 
     91 CB         -5.9469  -28.3030  -49.5568 C.3       16 UNK        -0.1800 
     92 C          -6.6086  -25.8266  -49.4060 C.2       16 UNK         0.5000 
     93 O          -7.8100  -26.0593  -49.2609 O.2       16 UNK        -0.5000 
     94 N          -6.1364  -24.6589  -49.8513 N.am      17 UNK        -0.5000 
     95 CA         -6.8954  -23.4611  -50.1796 C.3       17 UNK         0.1400 
     96 CB         -7.6343  -23.6382  -51.5185 C.3       17 UNK        -0.1800 
     97 C          -5.8945  -22.3037  -50.2663 C.2       17 UNK         0.5000 
     98 O          -4.7331  -22.5288  -50.6166 O.2       17 UNK        -0.5000 
     99 N          -6.3478  -21.0771  -49.9860 N.am      18 UNK        -0.5000 
    100 CA        -5.5462  -19.8507  -50.0662 C.3       18 UNK         0.1400 
    101 CB        -6.1707  -18.7867  -49.1459 C.3       18 UNK        -0.1800 
    102 C         -5.3817  -19.3610  -51.5238 C.2       18 UNK         0.5000 
    103 O         -5.6980  -18.2113  -51.8327 O.2       18 UNK        -0.5000 
    104 N         -4.9208  -20.2597  -52.3998 N.am      19 UNK        -0.5000 
    105 CA        -4.7925  -20.0664  -53.8381 C.3       19 UNK         0.1400 
    106 CB        -6.1833  -20.0566  -54.5070 C.3       19 UNK        -0.1800 
    107 C         -3.8703  -21.1571  -54.4028 C.2       19 UNK         0.5000 
    108 O         -4.3381  -22.0700  -55.0850 O.2       19 UNK        -0.5000 
    109 N         -2.5734  -21.0546  -54.0818 N.am      20 UNK        -0.5000 
    110 CA        -1.5095  -21.8750  -54.6672 C.3       20 UNK         0.1400 
    111 CB        -0.3376  -21.9878  -53.6720 C.3       20 UNK        -0.1800 
    112 C         -1.1105  -21.2658  -56.0256 C.2       20 UNK         0.5000 
    113 O         -1.8443  -21.4248  -57.0021 O.2       20 UNK        -0.5000 
    114 N         -0.0059  -20.5054  -56.0583 N.am      21 UNK        -0.5000 
    115 CA         0.4292  -19.7071  -57.2132 C.3       21 UNK         0.1400 
    116 CB         1.8077  -19.1009  -56.9091 C.3       21 UNK        -0.1800 
    117 C         -0.5741  -18.5981  -57.6001 C.2       21 UNK         0.5000 
    118 O         -0.6162  -18.1847  -58.7591 O.2       21 UNK        -0.5000 
    119 N         -1.3774  -18.1682  -56.6202 N.am      22 UNK        -0.5000 
    120 CA        -2.5176  -17.2553  -56.7716 C.3       22 UNK         0.1400 
    121 C         -3.8035  -17.9360  -57.3330 C.2       22 UNK         0.5000 
    122 N         -3.8402  -19.2455  -57.5558 N.am      22 UNK        -0.7600 
    123 O         -4.7944  -17.2558  -57.5828 O.2       22 UNK        -0.5000 
    124 C124       -2.8135  -16.5164  -55.4402 C.3       23 UNK        -0.0398 
    125 S125       -1.4704  -15.3840  -54.9437 S.3       23 UNK        -0.2404 
    126 C126       -0.4580  -16.4077  -53.8186 C.3       23 UNK        -0.0205 
    127 H127       -1.7156  -10.0684  -45.2973 H         1 UNK         0.0600 
    128 H128       -1.2983  -10.2359  -46.9933 H         1 UNK         0.0600 
    129 H129       -0.2133  -10.8702  -45.7421 H         1 UNK         0.0600 
    130 H130       -2.3883  -13.7682  -47.0740 H         1 UNK         0.3000 
    131 H131       -1.2870  -11.7361  -48.7031 H         1 UNK         0.0600 
    132 H132       -1.0436  -14.7557  -49.0871 H         1 UNK         0.0800 
    133 H133       -0.7622  -13.5391  -50.2955 H         1 UNK         0.0800 
    134 H134       -3.5026  -15.8611  -48.7709 H         1 UNK         0.0800 
    135 H135       -4.5429  -15.6857  -50.1598 H         1 UNK         0.0800 
    136 H136       -2.1455  -15.0269  -52.1677 H         1 UNK         0.1150 
    137 H137       -0.3695  -18.8805  -52.6964 H         1 UNK         0.1150 
    138 H138       -2.9021  -18.1474  -49.3235 H         1 UNK         0.1150 
    139 H139       -2.1552  -20.3862  -49.7498 H         1 UNK         0.0800 
    140 H140       -1.6613  -20.7789  -51.3639 H         1 UNK         0.0800 
    141 H141        0.9901  -19.6471  -47.8356 H         1 UNK         0.0800 
    142 H142       -0.7434  -19.5501  -47.9375 H         1 UNK         0.0800 
    143 H143        0.8099  -22.1947  -47.7529 H         1 UNK         0.0600 
    144 H144        0.1887  -20.4347  -45.5692 H         1 UNK         0.3000 
    145 H145        0.2681  -22.8754  -42.9995 H         1 UNK         0.0600 
    146 H146        2.0713  -21.3625  -42.1478 H         1 UNK         0.0600 
    147 H147        2.6737  -22.4686  -43.3743 H         1 UNK         0.0600 
    148 H148        2.3682  -20.7883  -43.7873 H         1 UNK         0.0600 
    149 H149        0.0793  -19.9983  -43.0401 H         1 UNK         0.3000 
    150 H150       -3.4776  -19.8600  -43.4097 H         1 UNK         0.0600 
    151 H151       -3.1695  -20.3527  -40.9953 H         1 UNK         0.0600 
    152 H152       -3.2763  -18.6188  -41.2634 H         1 UNK         0.0600 
    153 H153       -1.7112  -19.3701  -40.9567 H         1 UNK         0.0600 
    154 H154       -1.5006  -17.8512  -42.9510 H         1 UNK         0.3000 
    155 H155       -0.0193  -17.4594  -45.6925 H         1 UNK         0.0600 
    156 H156       -1.0733  -15.6592  -47.0102 H         1 UNK         0.0600 
    157 H157       -2.6733  -16.1567  -46.4521 H         1 UNK         0.0600 
    158 H158       -1.7059  -17.2295  -47.4578 H         1 UNK         0.0600 
    159 H159        0.2021  -15.8572  -44.2022 H         1 UNK         0.3000 
    160 H160       -0.6067  -13.5990  -43.2166 H         1 UNK         0.0600 
    161 H161       -1.6789  -13.0700  -41.0190 H         1 UNK         0.0600 
    162 H162       -2.8526  -13.1639  -42.3223 H         1 UNK         0.0600 
    163 H163       -2.7147  -14.4885  -41.1774 H         1 UNK         0.0600 
    164 H164        0.9130  -14.7287  -42.0535 H         1 UNK         0.3000 
    165 H165        1.5544  -15.9324  -39.8318 H         1 UNK         0.0600 
    166 H166        0.5251  -18.7913  -40.2482 H         1 UNK         0.0600 
    167 H167        1.8815  -18.3201  -39.2288 H         1 UNK         0.0600 
    168 H168        0.2553  -17.7923  -38.8277 H         1 UNK         0.0600 
    169 H169        2.9761  -16.3382  -41.4649 H         1 UNK         0.3000 
    170 H170        3.8566  -18.6566  -43.3046 H         1 UNK         0.0600 
    171 H171        2.2249  -18.8355  -45.1795 H         1 UNK         0.0600 
    172 H172        2.2103  -17.0847  -45.3469 H         1 UNK         0.0600 
    173 H173        3.6742  -17.9946  -45.6985 H         1 UNK         0.0600 
    174 H174        3.7009  -15.7450  -43.9001 H         1 UNK         0.3000 
    175 H175        6.1885  -14.8962  -41.6284 H         1 UNK         0.0600 
    176 H176        6.6970  -15.0374  -44.6512 H         1 UNK         0.0600 
    177 H177        7.5101  -13.9611  -43.5137 H         1 UNK         0.0600 
    178 H178        7.7530  -15.6967  -43.4077 H         1 UNK         0.0600 
    179 H179        5.0376  -13.4281  -43.7825 H         1 UNK         0.3000 
    180 H180        1.8870  -12.6953  -42.3389 H         1 UNK         0.0600 
    181 H181        4.3518  -10.9063  -42.6853 H         1 UNK         0.0600 
    182 H182        3.4250  -11.0918  -41.2011 H         1 UNK         0.0600 
    183 H183        2.6748  -10.3643  -42.6123 H         1 UNK         0.0600 
    184 H184        3.1668  -11.7534  -44.6943 H         1 UNK         0.3000 
    185 H185        2.7786  -12.4629  -46.6898 H         1 UNK         0.0600 
    186 H186        4.0383  -14.6746  -46.6852 H         1 UNK         0.0600 
    187 H187        2.5178  -15.5041  -47.0067 H         1 UNK         0.0600 
    188 H188        3.1697  -14.3709  -48.1820 H         1 UNK         0.0600 
    189 H189        0.2277  -13.8358  -46.3306 H         1 UNK         0.3000 
    190 H190       -2.2651  -20.9118  -46.3965 H         1 UNK         0.3000 
    191 H191       -4.0212  -22.3338  -48.0594 H         1 UNK         0.0600 
    192 H192       -4.6666  -20.3760  -46.6625 H         1 UNK         0.0600 
    193 H193       -5.7274  -21.7439  -46.3549 H         1 UNK         0.0600 
    194 H194       -4.4636  -21.3354  -45.1990 H         1 UNK         0.0600 
    195 H195       -2.5477  -23.3311  -44.9470 H         1 UNK         0.3000 
    196 H196       -3.9260  -25.8179  -44.7157 H         1 UNK         0.0600 
    197 H197       -2.1003  -26.3595  -43.0937 H         1 UNK         0.0600 
    198 H198       -2.7682  -24.7599  -42.8076 H         1 UNK         0.0600 
    199 H199       -1.2088  -24.9327  -43.6098 H         1 UNK         0.0600 
    200 H200       -0.7495  -24.9780  -46.1960 H         1 UNK         0.3000 
    201 H201       -0.0288  -27.6492  -46.8665 H         1 UNK         0.0600 
    202 H202        1.6406  -25.8580  -46.6010 H         1 UNK         0.0600 
    203 H203        0.9647  -24.9672  -47.9629 H         1 UNK         0.0600 
    204 H204        1.7500  -26.5210  -48.2241 H         1 UNK         0.0600 
    205 H205       -1.4690  -25.0152  -48.8568 H         1 UNK         0.3000 
    206 H206       -1.6031  -26.7168  -51.2381 H         1 UNK         0.0600 
    207 H207       -0.9737  -24.3427  -51.3982 H         1 UNK         0.0600 
    208 H208       -2.4726  -24.6172  -52.2761 H         1 UNK         0.0600 
    209 H209       -2.5071  -23.8454  -50.6951 H         1 UNK         0.0600 
    210 H210       -3.6147  -26.2902  -48.5580 H         1 UNK         0.3000 
    211 H211       -5.5995  -26.9635  -47.9321 H         1 UNK         0.0600 
    212 H212       -6.0376  -28.3128  -50.6431 H         1 UNK         0.0600 
    213 H213       -6.9043  -28.6306  -49.1505 H         1 UNK         0.0600 
    214 H214       -5.2037  -29.0481  -49.2731 H         1 UNK         0.0600 
    215 H215       -5.1338  -24.5356  -49.9171 H         1 UNK         0.3000 
    216 H216       -7.6095  -23.2589  -49.3788 H         1 UNK         0.0600 
    217 H217       -8.3655  -24.4449  -51.4676 H         1 UNK         0.0600 
    218 H218       -6.9416  -23.8656  -52.3301 H         1 UNK         0.0600 
    219 H219       -8.1738  -22.7305  -51.7915 H         1 UNK         0.0600 
    220 H220       -7.3219  -20.9563  -49.7479 H         1 UNK         0.3000 
    221 H221       -4.5464  -20.0632  -49.6839 H         1 UNK         0.0600 
    222 H222       -5.5650  -17.8800  -49.1281 H         1 UNK         0.0600 
    223 H223       -7.1722  -18.5074  -49.4752 H         1 UNK         0.0600 
    224 H224       -6.2440  -19.1448  -48.1192 H         1 UNK         0.0600 
    225 H225       -4.6816  -21.1836  -52.0488 H         1 UNK         0.3000 
    226 H226       -4.3149  -19.1035  -54.0250 H         1 UNK         0.0600 
    227 H227       -6.0943  -19.9685  -55.5904 H         1 UNK         0.0600 
    228 H228       -6.7382  -20.9709  -54.2934 H         1 UNK         0.0600 
    229 H229       -6.7848  -19.2138  -54.1670 H         1 UNK         0.0600 
    230 H230       -2.2846  -20.2885  -53.4933 H         1 UNK         0.3000 
    231 H231       -1.8830  -22.8838  -54.8560 H         1 UNK         0.0600 
    232 H232        0.4714  -22.5898  -54.0877 H         1 UNK         0.0600 
    233 H233       -0.6565  -22.4765  -52.7533 H         1 UNK         0.0600 
    234 H234        0.0771  -21.0193  -53.3955 H         1 UNK         0.0600 
    235 H235        0.5604  -20.4373  -55.2253 H         1 UNK         0.3000 
    236 H236        0.5270  -20.3768  -58.0700 H         1 UNK         0.0600 
    237 H237        2.5446  -19.8779  -56.7047 H         1 UNK         0.0600 
    238 H238        2.1753  -18.5220  -57.7574 H         1 UNK         0.0600 
    239 H239        1.7735  -18.4335  -56.0470 H         1 UNK         0.0600 
    240 H240       -1.2592  -18.5779  -55.7083 H         1 UNK         0.3000 
    241 H241       -2.2441  -16.5016  -57.5126 H         1 UNK         0.0600 
    242 H242       -4.6819  -19.6494  -57.9343 H         1 UNK         0.3800 
    243 H243       -3.0390  -19.8438  -57.3904 H         1 UNK         0.3800 
    244 H244       -3.0199  -17.2240  -54.6374 H         1 UNK         0.0800 
    245 H245       -3.7123  -15.9045  -55.5343 H         1 UNK         0.0800 
    246 H246       -0.0412  -17.2441  -54.3793 H         1 UNK         0.0800 
    247 H247        0.3955  -15.8117  -53.4935 H         1 UNK         0.0800 
@<TRIPOS>BOND
     1    1    2 1    
     2    1  127 1    
     3    1  128 1    
     4    1  129 1    
     5    2    3 2    
     6    2    4 am   BACKBONE|DICT|INTERRES
     7    4    5 1    
     8    4  130 1    
     9    5    6 1    
    10    5   65 1    
    11    5  131 1    
    12    6    7 1    
    13    6  132 1    
    14    6  133 1    
    15    7    8 1    
    16    8    9 1    
    17    8  134 1    
    18    8  135 1    
    19    9   10 ar   
    20    9   14 ar   
    21   10   11 ar   
    22   10  136 1    
    23   11   12 ar   
    24   11  126 1    
    25   12   13 ar   
    26   12  137 1    
    27   13   14 ar   
    28   13   15 1    
    29   14  138 1    
    30   15   16 1    
    31   15  139 1    
    32   15  140 1    
    33   16   17 1    
    34   17   18 1    
    35   17  141 1    
    36   17  142 1    
    37   18   19 1    
    38   18   67 1    
    39   18  143 1    
    40   19   20 am   BACKBONE|DICT|INTERRES
    41   19  144 1    
    42   20   21 2    
    43   20   22 1    
    44   22   23 1    
    45   22   24 1    
    46   22  145 1    
    47   23  146 1    
    48   23  147 1    
    49   23  148 1    
    50   24   25 am   BACKBONE|DICT|INTERRES
    51   24  149 1    
    52   25   26 2    
    53   25   27 1    
    54   27   28 1    
    55   27   29 1    
    56   27  150 1    
    57   28  151 1    
    58   28  152 1    
    59   28  153 1    
    60   29   30 am   BACKBONE|DICT|INTERRES
    61   29  154 1    
    62   30   31 2    
    63   30   32 1    
    64   32   33 1    
    65   32   34 1    
    66   32  155 1    
    67   33  156 1    
    68   33  157 1    
    69   33  158 1    
    70   34   35 am   BACKBONE|DICT|INTERRES
    71   34  159 1    
    72   35   36 2    
    73   35   37 1    
    74   37   38 1    
    75   37   39 1    
    76   37  160 1    
    77   38  161 1    
    78   38  162 1    
    79   38  163 1    
    80   39   40 am   BACKBONE|DICT|INTERRES
    81   39  164 1    
    82   40   41 2    
    83   40   42 1    
    84   42   43 1    
    85   42   44 1    
    86   42  165 1    
    87   43  166 1    
    88   43  167 1    
    89   43  168 1    
    90   44   45 am   BACKBONE|DICT|INTERRES
    91   44  169 1    
    92   45   46 2    
    93   45   47 1    
    94   47   48 1    
    95   47   49 1    
    96   47  170 1    
    97   48  171 1    
    98   48  172 1    
    99   48  173 1    
   100   49   50 am   BACKBONE|DICT|INTERRES
   101   49  174 1    
   102   50   51 2    
   103   50   52 1    
   104   52   53 1    
   105   52   54 1    
   106   52  175 1    
   107   53  176 1    
   108   53  177 1    
   109   53  178 1    
   110   54   55 am   BACKBONE|DICT|INTERRES
   111   54  179 1    
   112   55   56 2    
   113   55   57 1    
   114   57   58 1    
   115   57   59 1    
   116   57  180 1    
   117   58  181 1    
   118   58  182 1    
   119   58  183 1    
   120   59   60 am   BACKBONE|DICT|INTERRES
   121   59  184 1    
   122   60   61 2    
   123   60   62 1    
   124   62   63 1    
   125   62   64 1    
   126   62  185 1    
   127   63  186 1    
   128   63  187 1    
   129   63  188 1    
   130   64   65 am   BACKBONE|DICT|INTERRES
   131   64  189 1    
   132   65   66 2    
   133   67   68 2    
   134   67   69 am   BACKBONE|DICT|INTERRES
   135   69   70 1    
   136   69  190 1    
   137   70   71 1    
   138   70   72 1    
   139   70  191 1    
   140   71  192 1    
   141   71  193 1    
   142   71  194 1    
   143   72   73 2    
   144   72   74 am   BACKBONE|DICT|INTERRES
   145   74   75 1    
   146   74  195 1    
   147   75   76 1    
   148   75   77 1    
   149   75  196 1    
   150   76  197 1    
   151   76  198 1    
   152   76  199 1    
   153   77   78 2    
   154   77   79 am   BACKBONE|DICT|INTERRES
   155   79   80 1    
   156   79  200 1    
   157   80   81 1    
   158   80   82 1    
   159   80  201 1    
   160   81  202 1    
   161   81  203 1    
   162   81  204 1    
   163   82   83 2    
   164   82   84 am   BACKBONE|DICT|INTERRES
   165   84   85 1    
   166   84  205 1    
   167   85   86 1    
   168   85   87 1    
   169   85  206 1    
   170   86  207 1    
   171   86  208 1    
   172   86  209 1    
   173   87   88 2    
   174   87   89 am   BACKBONE|DICT|INTERRES
   175   89   90 1    
   176   89  210 1    
   177   90   91 1    
   178   90   92 1    
   179   90  211 1    
   180   91  212 1    
   181   91  213 1    
   182   91  214 1    
   183   92   93 2    
   184   92   94 am   BACKBONE|DICT|INTERRES
   185   94   95 1    
   186   94  215 1    
   187   95   96 1    
   188   95   97 1    
   189   95  216 1    
   190   96  217 1    
   191   96  218 1    
   192   96  219 1    
   193   97   98 2    
   194   97   99 am   BACKBONE|DICT|INTERRES
   195   99  100 1    
   196   99  220 1    
   197  100  101 1    
   198  100  102 1    
   199  100  221 1    
   200  101  222 1    
   201  101  223 1    
   202  101  224 1    
   203  102  103 2    
   204  102  104 am   BACKBONE|DICT|INTERRES
   205  104  105 1    
   206  104  225 1    
   207  105  106 1    
   208  105  107 1    
   209  105  226 1    
   210  106  227 1    
   211  106  228 1    
   212  106  229 1    
   213  107  108 2    
   214  107  109 am   BACKBONE|DICT|INTERRES
   215  109  110 1    
   216  109  230 1    
   217  110  111 1    
   218  110  112 1    
   219  110  231 1    
   220  111  232 1    
   221  111  233 1    
   222  111  234 1    
   223  112  113 2    
   224  112  114 am   BACKBONE|DICT|INTERRES
   225  114  115 1    
   226  114  235 1    
   227  115  116 1    
   228  115  117 1    
   229  115  236 1    
   230  116  237 1    
   231  116  238 1    
   232  116  239 1    
   233  117  118 2    
   234  117  119 am   BACKBONE|DICT|INTERRES
   235  119  120 1    
   236  119  240 1    
   237  120  121 1    
   238  120  124 1    
   239  120  241 1    
   240  121  122 am   BACKBONE|DICT|INTERRES
   241  121  123 2    
   242  122  242 1    
   243  122  243 1    
   244  124  125 1    
   245  124  244 1    
   246  124  245 1    
   247  125  126 1    
   248  126  246 1    
   249  126  247 1    
@<TRIPOS>SUBSTRUCTURE
     1 UNK         1 GROUP             0       ****    0 ROOT    
