@<TRIPOS>MOLECULE
3R540
247   249    1
SMALL
USER_CHARGES


@<TRIPOS>ATOM
      1 CA         -5.4305  -15.2535  -49.5576 C.3       0 UNK        -0.1800 
      2 C          -4.1584  -14.6115  -49.0259 C.2       0 UNK         0.5000 
      3 O          -4.1772  -13.4500  -48.6183 O.2       0 UNK        -0.5000 
      4 N          -3.0525  -15.3660  -49.0201 N.am      1 UNK        -0.5000 
      5 CA         -1.7386  -14.9094  -48.5395 C.3       1 UNK         0.1400 
      6 C6         -0.5787  -15.7199  -49.1714 C.3       23 UNK        -0.0398 
      7 S7         -0.6164  -17.4839  -48.7084 S.3       23 UNK        -0.2404 
      8 C8         -0.7832  -18.3294  -50.3076 C.3       23 UNK        -0.0205 
      9 C9          0.5645  -18.7878  -50.8327 C.ar      23 UNK        -0.0193 
     10 C10         1.0200  -18.3889  -52.0894 C.ar      23 UNK        -0.1150 
     11 C11         2.2331  -18.8739  -52.5856 C.ar      23 UNK        -0.0193 
     12 C12         3.0100  -19.7317  -51.7985 C.ar      23 UNK        -0.1150 
     13 C13         2.5728  -20.1240  -50.5279 C.ar      23 UNK        -0.0193 
     14 C14         1.3423  -19.6537  -50.0632 C.ar      23 UNK        -0.1150 
     15 C15         3.4441  -21.0278  -49.6594 C.3       23 UNK        -0.0205 
     16 S16         2.5538  -22.4666  -48.9736 S.3       23 UNK        -0.2404 
     17 C17         2.0669  -21.8526  -47.3214 C.3       23 UNK        -0.0398 
     18 CA          0.9109  -22.6586  -46.6836 C.3       11 UNK         0.1400 
     19 N           0.8052  -22.3862  -45.2483 N.am      11 UNK        -0.5000 
     20 C           0.0878  -23.1169  -44.3842 C.2       10 UNK         0.5000 
     21 O          -0.5429  -24.1255  -44.7008 O.2       10 UNK        -0.5000 
     22 CA          0.0281  -22.6062  -42.9323 C.3       10 UNK         0.1400 
     23 CB          1.3119  -22.9623  -42.1683 C.3       10 UNK        -0.1800 
     24 N          -0.2024  -21.1629  -42.8621 N.am      10 UNK        -0.5000 
     25 C          -1.3166  -20.5588  -43.2962 C.2       9 UNK         0.5000 
     26 O          -2.2953  -21.1678  -43.7283 O.2       9 UNK        -0.5000 
     27 CA         -1.3240  -19.0190  -43.2976 C.3       9 UNK         0.1400 
     28 CB         -1.7187  -18.4665  -41.9211 C.3       9 UNK        -0.1800 
     29 N          -0.0523  -18.4305  -43.7268 N.am      9 UNK        -0.5000 
     30 C           0.4966  -18.6086  -44.9378 C.2       8 UNK         0.5000 
     31 O          -0.0217  -19.2754  -45.8261 O.2       8 UNK        -0.5000 
     32 CA          1.8914  -18.0118  -45.1786 C.3       8 UNK         0.1400 
     33 CB          1.8127  -16.5174  -45.5254 C.3       8 UNK        -0.1800 
     34 N           2.7620  -18.2252  -44.0247 N.am      8 UNK        -0.5000 
     35 C           3.2139  -19.4288  -43.6412 C.2       7 UNK         0.5000 
     36 O           3.0031  -20.4697  -44.2656 O.2       7 UNK        -0.5000 
     37 CA          3.9853  -19.4794  -42.3095 C.3       7 UNK         0.1400 
     38 CB          5.4649  -19.1300  -42.5265 C.3       7 UNK        -0.1800 
     39 N           3.4158  -18.5790  -41.3044 N.am      7 UNK        -0.5000 
     40 C           2.2078  -18.7377  -40.7436 C.2       6 UNK         0.5000 
     41 O           1.4777  -19.7029  -40.9652 O.2       6 UNK        -0.5000 
     42 CA          1.7138  -17.6032  -39.8235 C.3       6 UNK         0.1400 
     43 CB          2.1591  -17.8513  -38.3750 C.3       6 UNK        -0.1800 
     44 N           2.1703  -16.2774  -40.2536 N.am      6 UNK        -0.5000 
     45 C           1.8235  -15.6947  -41.4088 C.2       5 UNK         0.5000 
     46 O           1.0451  -16.1988  -42.2211 O.2       5 UNK        -0.5000 
     47 CA          2.5325  -14.3771  -41.7457 C.3       5 UNK         0.1400 
     48 CB          3.9800  -14.6740  -42.1956 C.3       5 UNK        -0.1800 
     49 N           1.8037  -13.6824  -42.8060 N.am      5 UNK        -0.5000 
     50 C           2.0572  -12.4379  -43.2304 C.2       4 UNK         0.5000 
     51 O           2.8952  -11.6970  -42.7140 O.2       4 UNK        -0.5000 
     52 CA          1.2562  -11.9293  -44.4421 C.3       4 UNK         0.1400 
     53 CB          1.8783  -12.4432  -45.7499 C.3       4 UNK        -0.1800 
     54 N          -0.1630  -12.2837  -44.4015 N.am      4 UNK        -0.5000 
     55 C          -1.0545  -11.7239  -43.5687 C.2       3 UNK         0.5000 
     56 O          -0.7507  -10.8953  -42.7092 O.2       3 UNK        -0.5000 
     57 CA         -2.5391  -12.1169  -43.7289 C.3       3 UNK         0.1400 
     58 CB         -3.3074  -11.0142  -44.4740 C.3       3 UNK        -0.1800 
     59 N          -2.7409  -13.3822  -44.4328 N.am      3 UNK        -0.5000 
     60 C          -2.4439  -14.5858  -43.9295 C.2       2 UNK         0.5000 
     61 O          -2.0455  -14.7578  -42.7781 O.2       2 UNK        -0.5000 
     62 CA         -2.6008  -15.8016  -44.8640 C.3       2 UNK         0.1400 
     63 CB         -3.8872  -16.5718  -44.5274 C.3       2 UNK        -0.1800 
     64 N          -2.5930  -15.5184  -46.3030 N.am      2 UNK        -0.5000 
     65 C          -1.6308  -14.8892  -46.9952 C.2       1 UNK         0.5000 
     66 O          -0.6762  -14.3207  -46.4658 O.2       1 UNK        -0.5000 
     67 C          -0.4450  -22.4755  -47.4079 C.2       11 UNK         0.5000 
     68 O          -0.8172  -23.3295  -48.2111 O.2       11 UNK        -0.5000 
     69 N          -1.1930  -21.4173  -47.0620 N.am      12 UNK        -0.5000 
     70 CA         -2.5551  -21.1371  -47.5243 C.3       12 UNK         0.1400 
     71 CB         -3.0472  -19.8175  -46.9047 C.3       12 UNK        -0.1800 
     72 C          -3.5405  -22.2696  -47.1902 C.2       12 UNK         0.5000 
     73 O          -4.3080  -22.6843  -48.0600 O.2       12 UNK        -0.5000 
     74 N          -3.4796  -22.7615  -45.9445 N.am      13 UNK        -0.5000 
     75 CA         -4.2752  -23.8851  -45.4535 C.3       13 UNK         0.1400 
     76 CB         -4.1201  -23.9994  -43.9297 C.3       13 UNK        -0.1800 
     77 C          -3.9158  -25.2127  -46.1436 C.2       13 UNK         0.5000 
     78 O          -4.8198  -25.9707  -46.4952 O.2       13 UNK        -0.5000 
     79 N          -2.6137  -25.4563  -46.3526 N.am      14 UNK        -0.5000 
     80 CA         -2.0909  -26.6263  -47.0617 C.3       14 UNK         0.1400 
     81 CB         -0.5663  -26.6970  -46.8873 C.3       14 UNK        -0.1800 
     82 C          -2.4727  -26.6402  -48.5540 C.2       14 UNK         0.5000 
     83 O          -2.8251  -27.6964  -49.0806 O.2       14 UNK        -0.5000 
     84 N          -2.4207  -25.4670  -49.1999 N.am      15 UNK        -0.5000 
     85 CA         -2.8365  -25.2578  -50.5876 C.3       15 UNK         0.1400 
     86 CB         -2.3130  -23.8966  -51.0701 C.3       15 UNK        -0.1800 
     87 C          -4.3622  -25.3327  -50.7836 C.2       15 UNK         0.5000 
     88 O          -4.8120  -25.6013  -51.8974 O.2       15 UNK        -0.5000 
     89 N          -5.1261  -25.0528  -49.7174 N.am      16 UNK        -0.5000 
     90 CA         -6.5905  -25.0388  -49.5868 C.3       16 UNK         0.1400 
     91 CB         -7.1970  -26.4136  -49.9237 C.3       16 UNK        -0.1800 
     92 C          -7.2998  -23.9086  -50.3615 C.2       16 UNK         0.5000 
     93 O          -8.3330  -23.4205  -49.9033 O.2       16 UNK        -0.5000 
     94 N          -6.7274  -23.4853  -51.4949 N.am      17 UNK        -0.5000 
     95 CA         -7.1856  -22.3768  -52.3351 C.3       17 UNK         0.1400 
     96 CB         -6.5012  -22.4946  -53.7066 C.3       17 UNK        -0.1800 
     97 C          -6.9271  -20.9834  -51.7240 C.2       17 UNK         0.5000 
     98 O          -7.4066  -19.9905  -52.2717 O.2       17 UNK        -0.5000 
     99 N          -6.1452  -20.9242  -50.6357 N.am      18 UNK        -0.5000 
    100 CA        -5.7639  -19.7635  -49.8194 C.3       18 UNK         0.1400 
    101 CB        -6.9955  -19.0578  -49.2246 C.3       18 UNK        -0.1800 
    102 C         -4.8207  -18.7575  -50.5069 C.2       18 UNK         0.5000 
    103 O         -3.9196  -18.2341  -49.8524 O.2       18 UNK        -0.5000 
    104 N         -5.0259  -18.5127  -51.8046 N.am      19 UNK        -0.5000 
    105 CA        -4.1336  -17.7338  -52.6641 C.3       19 UNK         0.1400 
    106 CB        -4.9747  -17.0189  -53.7317 C.3       19 UNK        -0.1800 
    107 C         -3.0621  -18.6161  -53.3322 C.2       19 UNK         0.5000 
    108 O         -2.0553  -18.0863  -53.8005 O.2       19 UNK        -0.5000 
    109 N         -3.3104  -19.9358  -53.3909 N.am      20 UNK        -0.5000 
    110 CA        -2.4503  -20.9901  -53.9516 C.3       20 UNK         0.1400 
    111 CB        -1.1951  -21.1695  -53.0758 C.3       20 UNK        -0.1800 
    112 C         -2.0902  -20.7978  -55.4437 C.2       20 UNK         0.5000 
    113 O         -1.0847  -21.3387  -55.9037 O.2       20 UNK        -0.5000 
    114 N         -2.9013  -20.0098  -56.1653 N.am      21 UNK        -0.5000 
    115 CA        -2.7492  -19.5294  -57.5463 C.3       21 UNK         0.1400 
    116 CB        -2.6688  -20.6932  -58.5528 C.3       21 UNK        -0.1800 
    117 C         -1.5932  -18.5263  -57.7529 C.2       21 UNK         0.5000 
    118 O         -1.7676  -17.5621  -58.4993 O.2       21 UNK        -0.5000 
    119 N         -0.4485  -18.7516  -57.0991 N.am      22 UNK        -0.5000 
    120 CA         0.7344  -17.8766  -57.1200 C.3       22 UNK         0.1400 
    121 C          0.5922  -16.5482  -56.3211 C.2       22 UNK         0.5000 
    122 N         -0.3414  -16.4146  -55.3874 N.am      22 UNK        -0.7600 
    123 O          1.3443  -15.6086  -56.5650 O.2       22 UNK        -0.5000 
    124 C124        2.0345  -18.6397  -56.7447 C.3       23 UNK        -0.0398 
    125 S125        1.9131  -19.6108  -55.2025 S.3       23 UNK        -0.2404 
    126 C126        2.6748  -18.4931  -53.9876 C.3       23 UNK        -0.0205 
    127 H127       -6.2324  -14.5192  -49.6350 H         1 UNK         0.0600 
    128 H128       -5.7602  -16.0490  -48.8901 H         1 UNK         0.0600 
    129 H129       -5.2633  -15.6757  -50.5481 H         1 UNK         0.0600 
    130 H130       -3.1035  -16.3325  -49.3292 H         1 UNK         0.3000 
    131 H131       -1.6088  -13.8742  -48.8622 H         1 UNK         0.0600 
    132 H132        0.3847  -15.3086  -48.8649 H         1 UNK         0.0800 
    133 H133       -0.6056  -15.6183  -50.2567 H         1 UNK         0.0800 
    134 H134       -1.2992  -17.6914  -51.0251 H         1 UNK         0.0800 
    135 H135       -1.4135  -19.2087  -50.1709 H         1 UNK         0.0800 
    136 H136        0.4131  -17.7360  -52.7012 H         1 UNK         0.1150 
    137 H137        3.9516  -20.0991  -52.1818 H         1 UNK         0.1150 
    138 H138        0.9696  -19.9536  -49.0977 H         1 UNK         0.1150 
    139 H139        4.2840  -21.4071  -50.2434 H         1 UNK         0.0800 
    140 H140        3.8797  -20.4383  -48.8516 H         1 UNK         0.0800 
    141 H141        1.8311  -20.7897  -47.3436 H         1 UNK         0.0800 
    142 H142        2.9530  -21.9348  -46.6901 H         1 UNK         0.0800 
    143 H143        1.1715  -23.7155  -46.7728 H         1 UNK         0.0600 
    144 H144        1.3097  -21.5783  -44.9009 H         1 UNK         0.3000 
    145 H145       -0.8094  -23.1039  -42.4390 H         1 UNK         0.0600 
    146 H146        1.2442  -22.6593  -41.1232 H         1 UNK         0.0600 
    147 H147        2.1878  -22.4772  -42.5993 H         1 UNK         0.0600 
    148 H148        1.4900  -24.0382  -42.1852 H         1 UNK         0.0600 
    149 H149        0.5316  -20.5965  -42.4481 H         1 UNK         0.3000 
    150 H150       -2.0826  -18.7060  -44.0141 H         1 UNK         0.0600 
    151 H151       -2.7190  -18.7997  -41.6427 H         1 UNK         0.0600 
    152 H152       -1.7250  -17.3765  -41.9177 H         1 UNK         0.0600 
    153 H153       -1.0358  -18.7999  -41.1409 H         1 UNK         0.0600 
    154 H154        0.4191  -17.8206  -43.0652 H         1 UNK         0.3000 
    155 H155        2.3338  -18.5278  -46.0335 H         1 UNK         0.0600 
    156 H156        1.2793  -16.3714  -46.4650 H         1 UNK         0.0600 
    157 H157        2.8051  -16.0834  -45.6464 H         1 UNK         0.0600 
    158 H158        1.2834  -15.9432  -44.7665 H         1 UNK         0.0600 
    159 H159        2.9323  -17.4291  -43.4303 H         1 UNK         0.3000 
    160 H160        3.9257  -20.5009  -41.9275 H         1 UNK         0.0600 
    161 H161        5.5909  -18.1082  -42.8868 H         1 UNK         0.0600 
    162 H162        5.9187  -19.7960  -43.2617 H         1 UNK         0.0600 
    163 H163        6.0336  -19.2328  -41.6021 H         1 UNK         0.0600 
    164 H164        3.9601  -17.7667  -41.0561 H         1 UNK         0.3000 
    165 H165        0.6225  -17.6062  -39.8494 H         1 UNK         0.0600 
    166 H166        1.7490  -17.0981  -37.7019 H         1 UNK         0.0600 
    167 H167        1.8129  -18.8237  -38.0219 H         1 UNK         0.0600 
    168 H168        3.2453  -17.8342  -38.2776 H         1 UNK         0.0600 
    169 H169        2.8189  -15.8049  -39.6401 H         1 UNK         0.3000 
    170 H170        2.5404  -13.7500  -40.8521 H         1 UNK         0.0600 
    171 H171        4.0012  -15.2523  -43.1201 H         1 UNK         0.0600 
    172 H172        4.5462  -13.7587  -42.3653 H         1 UNK         0.0600 
    173 H173        4.5248  -15.2413  -41.4402 H         1 UNK         0.0600 
    174 H174        1.0638  -14.2250  -43.2341 H         1 UNK         0.3000 
    175 H175        1.3280  -10.8395  -44.4494 H         1 UNK         0.0600 
    176 H176        1.8486  -13.5314  -45.8105 H         1 UNK         0.0600 
    177 H177        1.3546  -12.0460  -46.6196 H         1 UNK         0.0600 
    178 H178        2.9226  -12.1396  -45.8312 H         1 UNK         0.0600 
    179 H179       -0.4773  -12.9703  -45.0819 H         1 UNK         0.3000 
    180 H180       -2.9629  -12.2104  -42.7268 H         1 UNK         0.0600 
    181 H181       -4.3718  -11.2431  -44.5300 H         1 UNK         0.0600 
    182 H182       -2.9371  -10.8842  -45.4918 H         1 UNK         0.0600 
    183 H183       -3.2094  -10.0550  -43.9637 H         1 UNK         0.0600 
    184 H184       -3.0535  -13.3286  -45.3914 H         1 UNK         0.3000 
    185 H185       -1.7451  -16.4479  -44.6716 H         1 UNK         0.0600 
    186 H186       -4.7759  -15.9738  -44.7330 H         1 UNK         0.0600 
    187 H187       -3.9625  -17.4924  -45.1059 H         1 UNK         0.0600 
    188 H188       -3.9156  -16.8487  -43.4727 H         1 UNK         0.0600 
    189 H189       -3.3350  -15.9407  -46.8409 H         1 UNK         0.3000 
    190 H190       -0.7843  -20.7165  -46.4440 H         1 UNK         0.3000 
    191 H191       -2.5229  -21.0224  -48.6094 H         1 UNK         0.0600 
    192 H192       -2.4081  -18.9830  -47.1808 H         1 UNK         0.0600 
    193 H193       -3.0700  -19.8665  -45.8186 H         1 UNK         0.0600 
    194 H194       -4.0556  -19.5665  -47.2271 H         1 UNK         0.0600 
    195 H195       -2.8509  -22.3245  -45.2773 H         1 UNK         0.3000 
    196 H196       -5.3237  -23.6713  -45.6718 H         1 UNK         0.0600 
    197 H197       -4.4517  -23.0882  -43.4314 H         1 UNK         0.0600 
    198 H198       -3.0838  -24.1779  -43.6414 H         1 UNK         0.0600 
    199 H199       -4.7181  -24.8222  -43.5361 H         1 UNK         0.0600 
    200 H200       -1.9284  -24.8034  -45.9848 H         1 UNK         0.3000 
    201 H201       -2.5245  -27.5161  -46.6007 H         1 UNK         0.0600 
    202 H202       -0.2922  -26.7550  -45.8338 H         1 UNK         0.0600 
    203 H203       -0.0706  -25.8251  -47.3141 H         1 UNK         0.0600 
    204 H204       -0.1577  -27.5805  -47.3793 H         1 UNK         0.0600 
    205 H205       -2.0375  -24.6581  -48.7151 H         1 UNK         0.3000 
    206 H206       -2.3842  -26.0379  -51.2033 H         1 UNK         0.0600 
    207 H207       -2.7214  -23.0754  -50.4794 H         1 UNK         0.0600 
    208 H208       -1.2259  -23.8455  -51.0042 H         1 UNK         0.0600 
    209 H209       -2.5835  -23.7213  -52.1117 H         1 UNK         0.0600 
    210 H210       -4.6353  -24.7548  -48.8833 H         1 UNK         0.3000 
    211 H211       -6.7800  -24.8492  -48.5290 H         1 UNK         0.0600 
    212 H212       -7.0787  -26.6659  -50.9777 H         1 UNK         0.0600 
    213 H213       -8.2652  -26.4305  -49.7041 H         1 UNK         0.0600 
    214 H214       -6.7311  -27.2032  -49.3340 H         1 UNK         0.0600 
    215 H215       -5.9214  -24.0082  -51.8222 H         1 UNK         0.3000 
    216 H216       -8.2637  -22.4738  -52.4773 H         1 UNK         0.0600 
    217 H217       -6.8231  -21.6988  -54.3798 H         1 UNK         0.0600 
    218 H218       -6.7467  -23.4417  -54.1875 H         1 UNK         0.0600 
    219 H219       -5.4161  -22.4364  -53.6208 H         1 UNK         0.0600 
    220 H220       -5.7864  -21.8061  -50.2957 H         1 UNK         0.3000 
    221 H221       -5.2056  -20.1921  -48.9904 H         1 UNK         0.0600 
    222 H222       -7.5902  -18.5591  -49.9905 H         1 UNK         0.0600 
    223 H223       -7.6416  -19.7652  -48.7047 H         1 UNK         0.0600 
    224 H224       -6.6955  -18.3004  -48.4998 H         1 UNK         0.0600 
    225 H225       -5.8487  -18.9293  -52.2326 H         1 UNK         0.3000 
    226 H226       -3.6159  -16.9756  -52.0728 H         1 UNK         0.0600 
    227 H227       -5.6996  -16.3458  -53.2735 H         1 UNK         0.0600 
    228 H228       -4.3449  -16.4181  -54.3894 H         1 UNK         0.0600 
    229 H229       -5.5227  -17.7265  -54.3553 H         1 UNK         0.0600 
    230 H230       -4.1741  -20.2541  -52.9796 H         1 UNK         0.3000 
    231 H231       -3.0253  -21.9148  -53.8968 H         1 UNK         0.0600 
    232 H232       -0.6650  -22.0876  -53.3308 H         1 UNK         0.0600 
    233 H233       -1.4459  -21.2204  -52.0164 H         1 UNK         0.0600 
    234 H234       -0.4971  -20.3457  -53.2151 H         1 UNK         0.0600 
    235 H235       -3.6813  -19.6060  -55.6678 H         1 UNK         0.3000 
    236 H236       -3.6691  -18.9831  -57.7609 H         1 UNK         0.0600 
    237 H237       -1.7489  -21.2678  -58.4434 H         1 UNK         0.0600 
    238 H238       -3.5092  -21.3769  -58.4340 H         1 UNK         0.0600 
    239 H239       -2.6954  -20.3200  -59.5773 H         1 UNK         0.0600 
    240 H240       -0.3842  -19.5798  -56.5158 H         1 UNK         0.3000 
    241 H241        0.8617  -17.5607  -58.1573 H         1 UNK         0.0600 
    242 H242       -0.4157  -15.5382  -54.8980 H         1 UNK         0.3800 
    243 H243       -0.9360  -17.1873  -55.1033 H         1 UNK         0.3800 
    244 H244        2.8920  -17.9662  -56.6949 H         1 UNK         0.0800 
    245 H245        2.2696  -19.3439  -57.5437 H         1 UNK         0.0800 
    246 H246        2.3880  -17.4609  -54.1913 H         1 UNK         0.0800 
    247 H247        3.7610  -18.5390  -54.0784 H         1 UNK         0.0800 
@<TRIPOS>BOND
     1    1    2 1    
     2    1  127 1    
     3    1  128 1    
     4    1  129 1    
     5    2    3 2    
     6    2    4 am   BACKBONE|DICT|INTERRES
     7    4    5 1    
     8    4  130 1    
     9    5    6 1    
    10    5   65 1    
    11    5  131 1    
    12    6    7 1    
    13    6  132 1    
    14    6  133 1    
    15    7    8 1    
    16    8    9 1    
    17    8  134 1    
    18    8  135 1    
    19    9   10 ar   
    20    9   14 ar   
    21   10   11 ar   
    22   10  136 1    
    23   11   12 ar   
    24   11  126 1    
    25   12   13 ar   
    26   12  137 1    
    27   13   14 ar   
    28   13   15 1    
    29   14  138 1    
    30   15   16 1    
    31   15  139 1    
    32   15  140 1    
    33   16   17 1    
    34   17   18 1    
    35   17  141 1    
    36   17  142 1    
    37   18   19 1    
    38   18   67 1    
    39   18  143 1    
    40   19   20 am   BACKBONE|DICT|INTERRES
    41   19  144 1    
    42   20   21 2    
    43   20   22 1    
    44   22   23 1    
    45   22   24 1    
    46   22  145 1    
    47   23  146 1    
    48   23  147 1    
    49   23  148 1    
    50   24   25 am   BACKBONE|DICT|INTERRES
    51   24  149 1    
    52   25   26 2    
    53   25   27 1    
    54   27   28 1    
    55   27   29 1    
    56   27  150 1    
    57   28  151 1    
    58   28  152 1    
    59   28  153 1    
    60   29   30 am   BACKBONE|DICT|INTERRES
    61   29  154 1    
    62   30   31 2    
    63   30   32 1    
    64   32   33 1    
    65   32   34 1    
    66   32  155 1    
    67   33  156 1    
    68   33  157 1    
    69   33  158 1    
    70   34   35 am   BACKBONE|DICT|INTERRES
    71   34  159 1    
    72   35   36 2    
    73   35   37 1    
    74   37   38 1    
    75   37   39 1    
    76   37  160 1    
    77   38  161 1    
    78   38  162 1    
    79   38  163 1    
    80   39   40 am   BACKBONE|DICT|INTERRES
    81   39  164 1    
    82   40   41 2    
    83   40   42 1    
    84   42   43 1    
    85   42   44 1    
    86   42  165 1    
    87   43  166 1    
    88   43  167 1    
    89   43  168 1    
    90   44   45 am   BACKBONE|DICT|INTERRES
    91   44  169 1    
    92   45   46 2    
    93   45   47 1    
    94   47   48 1    
    95   47   49 1    
    96   47  170 1    
    97   48  171 1    
    98   48  172 1    
    99   48  173 1    
   100   49   50 am   BACKBONE|DICT|INTERRES
   101   49  174 1    
   102   50   51 2    
   103   50   52 1    
   104   52   53 1    
   105   52   54 1    
   106   52  175 1    
   107   53  176 1    
   108   53  177 1    
   109   53  178 1    
   110   54   55 am   BACKBONE|DICT|INTERRES
   111   54  179 1    
   112   55   56 2    
   113   55   57 1    
   114   57   58 1    
   115   57   59 1    
   116   57  180 1    
   117   58  181 1    
   118   58  182 1    
   119   58  183 1    
   120   59   60 am   BACKBONE|DICT|INTERRES
   121   59  184 1    
   122   60   61 2    
   123   60   62 1    
   124   62   63 1    
   125   62   64 1    
   126   62  185 1    
   127   63  186 1    
   128   63  187 1    
   129   63  188 1    
   130   64   65 am   BACKBONE|DICT|INTERRES
   131   64  189 1    
   132   65   66 2    
   133   67   68 2    
   134   67   69 am   BACKBONE|DICT|INTERRES
   135   69   70 1    
   136   69  190 1    
   137   70   71 1    
   138   70   72 1    
   139   70  191 1    
   140   71  192 1    
   141   71  193 1    
   142   71  194 1    
   143   72   73 2    
   144   72   74 am   BACKBONE|DICT|INTERRES
   145   74   75 1    
   146   74  195 1    
   147   75   76 1    
   148   75   77 1    
   149   75  196 1    
   150   76  197 1    
   151   76  198 1    
   152   76  199 1    
   153   77   78 2    
   154   77   79 am   BACKBONE|DICT|INTERRES
   155   79   80 1    
   156   79  200 1    
   157   80   81 1    
   158   80   82 1    
   159   80  201 1    
   160   81  202 1    
   161   81  203 1    
   162   81  204 1    
   163   82   83 2    
   164   82   84 am   BACKBONE|DICT|INTERRES
   165   84   85 1    
   166   84  205 1    
   167   85   86 1    
   168   85   87 1    
   169   85  206 1    
   170   86  207 1    
   171   86  208 1    
   172   86  209 1    
   173   87   88 2    
   174   87   89 am   BACKBONE|DICT|INTERRES
   175   89   90 1    
   176   89  210 1    
   177   90   91 1    
   178   90   92 1    
   179   90  211 1    
   180   91  212 1    
   181   91  213 1    
   182   91  214 1    
   183   92   93 2    
   184   92   94 am   BACKBONE|DICT|INTERRES
   185   94   95 1    
   186   94  215 1    
   187   95   96 1    
   188   95   97 1    
   189   95  216 1    
   190   96  217 1    
   191   96  218 1    
   192   96  219 1    
   193   97   98 2    
   194   97   99 am   BACKBONE|DICT|INTERRES
   195   99  100 1    
   196   99  220 1    
   197  100  101 1    
   198  100  102 1    
   199  100  221 1    
   200  101  222 1    
   201  101  223 1    
   202  101  224 1    
   203  102  103 2    
   204  102  104 am   BACKBONE|DICT|INTERRES
   205  104  105 1    
   206  104  225 1    
   207  105  106 1    
   208  105  107 1    
   209  105  226 1    
   210  106  227 1    
   211  106  228 1    
   212  106  229 1    
   213  107  108 2    
   214  107  109 am   BACKBONE|DICT|INTERRES
   215  109  110 1    
   216  109  230 1    
   217  110  111 1    
   218  110  112 1    
   219  110  231 1    
   220  111  232 1    
   221  111  233 1    
   222  111  234 1    
   223  112  113 2    
   224  112  114 am   BACKBONE|DICT|INTERRES
   225  114  115 1    
   226  114  235 1    
   227  115  116 1    
   228  115  117 1    
   229  115  236 1    
   230  116  237 1    
   231  116  238 1    
   232  116  239 1    
   233  117  118 2    
   234  117  119 am   BACKBONE|DICT|INTERRES
   235  119  120 1    
   236  119  240 1    
   237  120  121 1    
   238  120  124 1    
   239  120  241 1    
   240  121  122 am   BACKBONE|DICT|INTERRES
   241  121  123 2    
   242  122  242 1    
   243  122  243 1    
   244  124  125 1    
   245  124  244 1    
   246  124  245 1    
   247  125  126 1    
   248  126  246 1    
   249  126  247 1    
@<TRIPOS>SUBSTRUCTURE
     1 UNK         1 GROUP             0       ****    0 ROOT    
