@<TRIPOS>MOLECULE
3R540
247   249    1
SMALL
USER_CHARGES


@<TRIPOS>ATOM
      1 CA         -6.0333  -14.8761  -49.8305 C.3       0 UNK        -0.1800 
      2 C          -4.8918  -14.4496  -48.9197 C.2       0 UNK         0.5000 
      3 O          -5.0991  -13.6453  -48.0113 O.2       0 UNK        -0.5000 
      4 N          -3.6868  -14.9874  -49.1511 N.am      1 UNK        -0.5000 
      5 CA         -2.4610  -14.6400  -48.4204 C.3       1 UNK         0.1400 
      6 C6         -1.1834  -14.8937  -49.2579 C.3       23 UNK        -0.0398 
      7 S7         -0.9361  -16.6155  -49.8157 S.3       23 UNK        -0.2404 
      8 C8          0.8046  -16.4819  -50.3408 C.3       23 UNK        -0.0205 
      9 C9          1.3770  -17.7889  -50.8710 C.ar      23 UNK        -0.0193 
     10 C10         1.9045  -17.8405  -52.1640 C.ar      23 UNK        -0.1150 
     11 C11         2.4685  -19.0190  -52.6616 C.ar      23 UNK        -0.0193 
     12 C12         2.5090  -20.1541  -51.8462 C.ar      23 UNK        -0.1150 
     13 C13         2.0039  -20.1117  -50.5429 C.ar      23 UNK        -0.0193 
     14 C14         1.4374  -18.9274  -50.0606 C.ar      23 UNK        -0.1150 
     15 C15         2.0914  -21.3373  -49.6484 C.3       23 UNK        -0.0205 
     16 S16         0.5685  -22.3211  -49.7335 S.3       23 UNK        -0.2404 
     17 C17         0.9895  -23.7501  -48.6667 C.3       23 UNK        -0.0398 
     18 CA          0.8108  -23.5486  -47.1295 C.3       11 UNK         0.1400 
     19 N           1.8660  -22.7395  -46.5104 N.am      11 UNK        -0.5000 
     20 C           3.1376  -23.1513  -46.4058 C.2       10 UNK         0.5000 
     21 O           3.5431  -24.2342  -46.8308 O.2       10 UNK        -0.5000 
     22 CA          4.1318  -22.2157  -45.6977 C.3       10 UNK         0.1400 
     23 CB          4.5953  -21.0942  -46.6399 C.3       10 UNK        -0.1800 
     24 N           3.6048  -21.6496  -44.4566 N.am      10 UNK        -0.5000 
     25 C           3.3293  -22.3655  -43.3560 C.2       9 UNK         0.5000 
     26 O           3.5115  -23.5803  -43.2660 O.2       9 UNK        -0.5000 
     27 CA          2.7552  -21.6034  -42.1471 C.3       9 UNK         0.1400 
     28 CB          3.8893  -21.0208  -41.2902 C.3       9 UNK        -0.1800 
     29 N           1.8342  -20.5316  -42.5209 N.am      9 UNK        -0.5000 
     30 C           0.6526  -20.7168  -43.1256 C.2       8 UNK         0.5000 
     31 O           0.1917  -21.8170  -43.4323 O.2       8 UNK        -0.5000 
     32 CA         -0.1151  -19.4454  -43.5192 C.3       8 UNK         0.1400 
     33 CB         -0.7110  -18.7398  -42.2927 C.3       8 UNK        -0.1800 
     34 N           0.7197  -18.5093  -44.2668 N.am      8 UNK        -0.5000 
     35 C           1.3605  -18.7799  -45.4135 C.2       7 UNK         0.5000 
     36 O           1.2740  -19.8482  -46.0242 O.2       7 UNK        -0.5000 
     37 CA          2.2793  -17.6712  -45.9467 C.3       7 UNK         0.1400 
     38 CB          1.4538  -16.6109  -46.6795 C.3       7 UNK        -0.1800 
     39 N           3.0473  -17.0311  -44.8789 N.am      7 UNK        -0.5000 
     40 C           4.0174  -17.6310  -44.1759 C.2       6 UNK         0.5000 
     41 O           4.3917  -18.7860  -44.3713 O.2       6 UNK        -0.5000 
     42 CA          4.6404  -16.8131  -43.0315 C.3       6 UNK         0.1400 
     43 CB          5.6600  -15.8005  -43.5747 C.3       6 UNK        -0.1800 
     44 N           3.6317  -16.1124  -42.2358 N.am      6 UNK        -0.5000 
     45 C           2.7157  -16.7246  -41.4726 C.2       5 UNK         0.5000 
     46 O           2.6396  -17.9464  -41.3429 O.2       5 UNK        -0.5000 
     47 CA          1.6919  -15.8214  -40.7603 C.3       5 UNK         0.1400 
     48 CB          2.2422  -15.3494  -39.4063 C.3       5 UNK        -0.1800 
     49 N           1.2752  -14.6564  -41.5473 N.am      5 UNK        -0.5000 
     50 C           0.6492  -14.7173  -42.7298 C.2       4 UNK         0.5000 
     51 O           0.4306  -15.7681  -43.3359 O.2       4 UNK        -0.5000 
     52 CA          0.2151  -13.3807  -43.3487 C.3       4 UNK         0.1400 
     53 CB          1.0397  -13.0640  -44.6060 C.3       4 UNK        -0.1800 
     54 N          -1.2009  -13.4474  -43.6988 N.am      4 UNK        -0.5000 
     55 C          -2.2006  -13.1184  -42.8671 C.2       3 UNK         0.5000 
     56 O          -2.0205  -12.6366  -41.7476 O.2       3 UNK        -0.5000 
     57 CA         -3.6468  -13.3624  -43.3504 C.3       3 UNK         0.1400 
     58 CB         -4.2336  -12.0793  -43.9584 C.3       3 UNK        -0.1800 
     59 N          -3.7580  -14.4415  -44.3306 N.am      3 UNK        -0.5000 
     60 C          -3.5249  -15.7361  -44.0761 C.2       2 UNK         0.5000 
     61 O          -3.3370  -16.1786  -42.9431 O.2       2 UNK        -0.5000 
     62 CA         -3.4844  -16.7026  -45.2806 C.3       2 UNK         0.1400 
     63 CB         -4.7357  -17.5971  -45.2813 C.3       2 UNK        -0.1800 
     64 N          -3.3581  -16.0645  -46.5994 N.am      2 UNK        -0.5000 
     65 C          -2.3749  -15.2414  -46.9985 C.2       1 UNK         0.5000 
     66 O          -1.4463  -14.9019  -46.2675 O.2       1 UNK        -0.5000 
     67 C          -0.6061  -23.0551  -46.7910 C.2       11 UNK         0.5000 
     68 O          -1.5168  -23.8796  -46.6997 O.2       11 UNK        -0.5000 
     69 N          -0.7964  -21.7335  -46.6691 N.am      12 UNK        -0.5000 
     70 CA         -2.1092  -21.0995  -46.7954 C.3       12 UNK         0.1400 
     71 CB         -1.9304  -19.5965  -47.0585 C.3       12 UNK        -0.1800 
     72 C          -3.0957  -21.3881  -45.6470 C.2       12 UNK         0.5000 
     73 O          -4.2958  -21.2066  -45.8480 O.2       12 UNK        -0.5000 
     74 N          -2.6131  -21.8651  -44.4897 N.am      13 UNK        -0.5000 
     75 CA         -3.4695  -22.3473  -43.4019 C.3       13 UNK         0.1400 
     76 CB         -2.6771  -22.4105  -42.0881 C.3       13 UNK        -0.1800 
     77 C          -4.0704  -23.7282  -43.7153 C.2       13 UNK         0.5000 
     78 O          -5.2464  -23.9587  -43.4349 O.2       13 UNK        -0.5000 
     79 N          -3.2531  -24.6160  -44.2978 N.am      14 UNK        -0.5000 
     80 CA         -3.6392  -25.9746  -44.6780 C.3       14 UNK         0.1400 
     81 CB         -2.3773  -26.8382  -44.8291 C.3       14 UNK        -0.1800 
     82 C          -4.4684  -25.9878  -45.9717 C.2       14 UNK         0.5000 
     83 O          -5.4442  -26.7329  -46.0659 O.2       14 UNK        -0.5000 
     84 N          -4.0756  -25.1432  -46.9340 N.am      15 UNK        -0.5000 
     85 CA         -4.7626  -24.9554  -48.2114 C.3       15 UNK         0.1400 
     86 CB         -3.7866  -24.3050  -49.2032 C.3       15 UNK        -0.1800 
     87 C          -6.0607  -24.1301  -48.0938 C.2       15 UNK         0.5000 
     88 O          -6.8746  -24.1762  -49.0162 O.2       15 UNK        -0.5000 
     89 N          -6.2296  -23.4084  -46.9724 N.am      16 UNK        -0.5000 
     90 CA         -7.3260  -22.4871  -46.6520 C.3       16 UNK         0.1400 
     91 CB         -8.6620  -23.2445  -46.5054 C.3       16 UNK        -0.1800 
     92 C          -7.3827  -21.3324  -47.6702 C.2       16 UNK         0.5000 
     93 O          -8.3374  -21.2225  -48.4419 O.2       16 UNK        -0.5000 
     94 N          -6.3052  -20.5352  -47.6749 N.am      17 UNK        -0.5000 
     95 CA         -5.9096  -19.5791  -48.7091 C.3       17 UNK         0.1400 
     96 CB         -6.9424  -18.4441  -48.8867 C.3       17 UNK        -0.1800 
     97 C          -5.5476  -20.3443  -49.9947 C.2       17 UNK         0.5000 
     98 O          -4.5645  -21.0847  -49.9719 O.2       17 UNK        -0.5000 
     99 N          -6.3389  -20.1721  -51.0646 N.am      18 UNK        -0.5000 
    100 CA        -6.2456  -20.8817  -52.3472 C.3       18 UNK         0.1400 
    101 CB        -6.6583  -22.3582  -52.1710 C.3       18 UNK        -0.1800 
    102 C         -4.8720  -20.7176  -53.0327 C.2       18 UNK         0.5000 
    103 O         -4.2791  -21.6991  -53.4844 O.2       18 UNK        -0.5000 
    104 N         -4.3920  -19.4654  -53.0837 N.am      19 UNK        -0.5000 
    105 CA        -3.1009  -19.0770  -53.6609 C.3       19 UNK         0.1400 
    106 CB        -2.8630  -17.5824  -53.3919 C.3       19 UNK        -0.1800 
    107 C         -2.9817  -19.3942  -55.1655 C.2       19 UNK         0.5000 
    108 O         -1.9023  -19.7770  -55.6174 O.2       19 UNK        -0.5000 
    109 N         -4.1032  -19.2649  -55.8937 N.am      20 UNK        -0.5000 
    110 CA        -4.3079  -19.6461  -57.2951 C.3       20 UNK         0.1400 
    111 CB        -4.4382  -21.1822  -57.4001 C.3       20 UNK        -0.1800 
    112 C         -3.2414  -19.0437  -58.2338 C.2       20 UNK         0.5000 
    113 O         -3.2429  -17.8296  -58.4457 O.2       20 UNK        -0.5000 
    114 N         -2.3324  -19.8869  -58.7438 N.am      21 UNK        -0.5000 
    115 CA        -1.2093  -19.5243  -59.6121 C.3       21 UNK         0.1400 
    116 CB        -0.4832  -20.8075  -60.0442 C.3       21 UNK        -0.1800 
    117 C         -0.2133  -18.5265  -58.9856 C.2       21 UNK         0.5000 
    118 O          0.4693  -17.8190  -59.7282 O.2       21 UNK        -0.5000 
    119 N         -0.1603  -18.4636  -57.6484 N.am      22 UNK        -0.5000 
    120 CA         0.5911  -17.4467  -56.8973 C.3       22 UNK         0.1400 
    121 C         -0.0755  -16.0366  -56.8967 C.2       22 UNK         0.5000 
    122 N         -1.3103  -15.8677  -57.3576 N.am      22 UNK        -0.7600 
    123 O          0.5484  -15.0677  -56.4729 O.2       22 UNK        -0.5000 
    124 C124        0.8950  -17.8974  -55.4468 C.3       23 UNK        -0.0398 
    125 S125        1.8366  -19.4583  -55.3392 S.3       23 UNK        -0.2404 
    126 C126        3.0714  -19.0561  -54.0609 C.3       23 UNK        -0.0205 
    127 H127       -6.4219  -14.0126  -50.3703 H         1 UNK         0.0600 
    128 H128       -6.8453  -15.3017  -49.2411 H         1 UNK         0.0600 
    129 H129       -5.7128  -15.6171  -50.5631 H         1 UNK         0.0600 
    130 H130       -3.5670  -15.6531  -49.9017 H         1 UNK         0.3000 
    131 H131       -2.4918  -13.5605  -48.2562 H         1 UNK         0.0600 
    132 H132       -0.3023  -14.5713  -48.6996 H         1 UNK         0.0800 
    133 H133       -1.2094  -14.2614  -50.1465 H         1 UNK         0.0800 
    134 H134        1.4214  -16.1445  -49.5090 H         1 UNK         0.0800 
    135 H135        0.8728  -15.7016  -51.1006 H         1 UNK         0.0800 
    136 H136        1.8911  -16.9516  -52.7765 H         1 UNK         0.1150 
    137 H137        2.9479  -21.0681  -52.2212 H         1 UNK         0.1150 
    138 H138        1.0469  -18.8920  -49.0533 H         1 UNK         0.1150 
    139 H139        2.9460  -21.9542  -49.9303 H         1 UNK         0.0800 
    140 H140        2.2592  -21.0212  -48.6194 H         1 UNK         0.0800 
    141 H141        2.0001  -24.0799  -48.9063 H         1 UNK         0.0800 
    142 H142        0.3484  -24.5736  -48.9856 H         1 UNK         0.0800 
    143 H143        0.8814  -24.5363  -46.6681 H         1 UNK         0.0600 
    144 H144        1.6043  -21.8396  -46.1217 H         1 UNK         0.3000 
    145 H145        5.0104  -22.8111  -45.4403 H         1 UNK         0.0600 
    146 H146        3.7910  -20.3954  -46.8641 H         1 UNK         0.0600 
    147 H147        5.4167  -20.5279  -46.2011 H         1 UNK         0.0600 
    148 H148        4.9527  -21.4994  -47.5875 H         1 UNK         0.0600 
    149 H149        3.4953  -20.6420  -44.4275 H         1 UNK         0.3000 
    150 H150        2.2010  -22.3202  -41.5377 H         1 UNK         0.0600 
    151 H151        4.5874  -21.7996  -40.9810 H         1 UNK         0.0600 
    152 H152        3.4994  -20.5548  -40.3851 H         1 UNK         0.0600 
    153 H153        4.4570  -20.2660  -41.8361 H         1 UNK         0.0600 
    154 H154        2.1260  -19.5857  -42.2908 H         1 UNK         0.3000 
    155 H155       -0.9410  -19.7392  -44.1628 H         1 UNK         0.0600 
    156 H156        0.0565  -18.4515  -41.5769 H         1 UNK         0.0600 
    157 H157       -1.4164  -19.3808  -41.7674 H         1 UNK         0.0600 
    158 H158       -1.2509  -17.8389  -42.5820 H         1 UNK         0.0600 
    159 H159        0.8055  -17.5745  -43.8760 H         1 UNK         0.3000 
    160 H160        2.9752  -18.1197  -46.6581 H         1 UNK         0.0600 
    161 H161        0.8052  -16.0743  -45.9904 H         1 UNK         0.0600 
    162 H162        0.8120  -17.0694  -47.4306 H         1 UNK         0.0600 
    163 H163        2.0920  -15.8824  -47.1789 H         1 UNK         0.0600 
    164 H164        2.7645  -16.0995  -44.6144 H         1 UNK         0.3000 
    165 H165        5.1675  -17.5085  -42.3747 H         1 UNK         0.0600 
    166 H166        6.1639  -15.2754  -42.7631 H         1 UNK         0.0600 
    167 H167        6.4297  -16.3009  -44.1638 H         1 UNK         0.0600 
    168 H168        5.1887  -15.0546  -44.2158 H         1 UNK         0.0600 
    169 H169        3.6225  -15.1045  -42.2860 H         1 UNK         0.3000 
    170 H170        0.8009  -16.4223  -40.5699 H         1 UNK         0.0600 
    171 H171        2.5411  -16.1979  -38.7892 H         1 UNK         0.0600 
    172 H172        3.1158  -14.7076  -39.5272 H         1 UNK         0.0600 
    173 H173        1.4903  -14.7925  -38.8469 H         1 UNK         0.0600 
    174 H174        1.4214  -13.7535  -41.1192 H         1 UNK         0.3000 
    175 H175        0.3820  -12.5767  -42.6287 H         1 UNK         0.0600 
    176 H176        0.9026  -13.8155  -45.3829 H         1 UNK         0.0600 
    177 H177        0.7569  -12.0988  -45.0263 H         1 UNK         0.0600 
    178 H178        2.1046  -13.0195  -44.3751 H         1 UNK         0.0600 
    179 H179       -1.4150  -13.9158  -44.5750 H         1 UNK         0.3000 
    180 H180       -4.2452  -13.6334  -42.4781 H         1 UNK         0.0600 
    181 H181       -3.6863  -11.7704  -44.8500 H         1 UNK         0.0600 
    182 H182       -4.1930  -11.2547  -43.2454 H         1 UNK         0.0600 
    183 H183       -5.2788  -12.2162  -44.2365 H         1 UNK         0.0600 
    184 H184       -3.9208  -14.1686  -45.2890 H         1 UNK         0.3000 
    185 H185       -2.6060  -17.3338  -45.1384 H         1 UNK         0.0600 
    186 H186       -4.8341  -18.1342  -44.3368 H         1 UNK         0.0600 
    187 H187       -5.6455  -17.0125  -45.4230 H         1 UNK         0.0600 
    188 H188       -4.6966  -18.3470  -46.0687 H         1 UNK         0.0600 
    189 H189       -4.0974  -16.2517  -47.2594 H         1 UNK         0.3000 
    190 H190       -0.0004  -21.1043  -46.6954 H         1 UNK         0.3000 
    191 H191       -2.5716  -21.5124  -47.6938 H         1 UNK         0.0600 
    192 H192       -1.4853  -19.0774  -46.2142 H         1 UNK         0.0600 
    193 H193       -2.8845  -19.1192  -47.2722 H         1 UNK         0.0600 
    194 H194       -1.2914  -19.4243  -47.9251 H         1 UNK         0.0600 
    195 H195       -1.6122  -21.9918  -44.3795 H         1 UNK         0.3000 
    196 H196       -4.2932  -21.6433  -43.2638 H         1 UNK         0.0600 
    197 H197       -3.3086  -22.7563  -41.2687 H         1 UNK         0.0600 
    198 H198       -2.2970  -21.4314  -41.8076 H         1 UNK         0.0600 
    199 H199       -1.8297  -23.0935  -42.1575 H         1 UNK         0.0600 
    200 H200       -2.3226  -24.3215  -44.5605 H         1 UNK         0.3000 
    201 H201       -4.2504  -26.4030  -43.8805 H         1 UNK         0.0600 
    202 H202       -1.8129  -26.8767  -43.8973 H         1 UNK         0.0600 
    203 H203       -1.7148  -26.4554  -45.6064 H         1 UNK         0.0600 
    204 H204       -2.6366  -27.8638  -45.0947 H         1 UNK         0.0600 
    205 H205       -3.2215  -24.6079  -46.7924 H         1 UNK         0.3000 
    206 H206       -5.0363  -25.9372  -48.6035 H         1 UNK         0.0600 
    207 H207       -2.8977  -24.9198  -49.3454 H         1 UNK         0.0600 
    208 H208       -4.2501  -24.1696  -50.1810 H         1 UNK         0.0600 
    209 H209       -3.4610  -23.3243  -48.8584 H         1 UNK         0.0600 
    210 H210       -5.4806  -23.4327  -46.2953 H         1 UNK         0.3000 
    211 H211       -7.0904  -22.0463  -45.6819 H         1 UNK         0.0600 
    212 H212       -8.9814  -23.7012  -47.4424 H         1 UNK         0.0600 
    213 H213       -9.4562  -22.5690  -46.1857 H         1 UNK         0.0600 
    214 H214       -8.5850  -24.0340  -45.7577 H         1 UNK         0.0600 
    215 H215       -5.5725  -20.7580  -47.0017 H         1 UNK         0.3000 
    216 H216       -4.9834  -19.1186  -48.3661 H         1 UNK         0.0600 
    217 H217       -6.6015  -17.7281  -49.6336 H         1 UNK         0.0600 
    218 H218       -7.0797  -17.8965  -47.9542 H         1 UNK         0.0600 
    219 H219       -7.9207  -18.8041  -49.2039 H         1 UNK         0.0600 
    220 H220       -7.1274  -19.5482  -50.9674 H         1 UNK         0.3000 
    221 H221       -6.9747  -20.4163  -53.0119 H         1 UNK         0.0600 
    222 H222       -5.9503  -22.9042  -51.5467 H         1 UNK         0.0600 
    223 H223       -7.6407  -22.4405  -51.7058 H         1 UNK         0.0600 
    224 H224       -6.7098  -22.8694  -53.1329 H         1 UNK         0.0600 
    225 H225       -4.9425  -18.7267  -52.6720 H         1 UNK         0.3000 
    226 H226       -2.3233  -19.6440  -53.1443 H         1 UNK         0.0600 
    227 H227       -2.8549  -17.3717  -52.3222 H         1 UNK         0.0600 
    228 H228       -1.9024  -17.2557  -53.7890 H         1 UNK         0.0600 
    229 H229       -3.6333  -16.9622  -53.8516 H         1 UNK         0.0600 
    230 H230       -4.9202  -18.9075  -55.4206 H         1 UNK         0.3000 
    231 H231       -5.2610  -19.2130  -57.6019 H         1 UNK         0.0600 
    232 H232       -4.6175  -21.4956  -58.4294 H         1 UNK         0.0600 
    233 H233       -5.2800  -21.5394  -56.8065 H         1 UNK         0.0600 
    234 H234       -3.5469  -21.6980  -57.0406 H         1 UNK         0.0600 
    235 H235       -2.3917  -20.8587  -58.4770 H         1 UNK         0.3000 
    236 H236       -1.6248  -19.0491  -60.5029 H         1 UNK         0.0600 
    237 H237       -0.0697  -21.3417  -59.1878 H         1 UNK         0.0600 
    238 H238       -1.1556  -21.4844  -60.5715 H         1 UNK         0.0600 
    239 H239        0.3429  -20.5812  -60.7198 H         1 UNK         0.0600 
    240 H240       -0.7543  -19.0744  -57.0955 H         1 UNK         0.3000 
    241 H241        1.5529  -17.3163  -57.3970 H         1 UNK         0.0600 
    242 H242       -1.7128  -14.9441  -57.3514 H         1 UNK         0.3800 
    243 H243       -1.8529  -16.6423  -57.7263 H         1 UNK         0.3800 
    244 H244        1.4635  -17.1144  -54.9462 H         1 UNK         0.0800 
    245 H245       -0.0249  -18.0177  -54.8767 H         1 UNK         0.0800 
    246 H246        3.8637  -19.8051  -54.0989 H         1 UNK         0.0800 
    247 H247        3.5511  -18.1041  -54.2932 H         1 UNK         0.0800 
@<TRIPOS>BOND
     1    1    2 1    
     2    1  127 1    
     3    1  128 1    
     4    1  129 1    
     5    2    3 2    
     6    2    4 am   BACKBONE|DICT|INTERRES
     7    4    5 1    
     8    4  130 1    
     9    5    6 1    
    10    5   65 1    
    11    5  131 1    
    12    6    7 1    
    13    6  132 1    
    14    6  133 1    
    15    7    8 1    
    16    8    9 1    
    17    8  134 1    
    18    8  135 1    
    19    9   10 ar   
    20    9   14 ar   
    21   10   11 ar   
    22   10  136 1    
    23   11   12 ar   
    24   11  126 1    
    25   12   13 ar   
    26   12  137 1    
    27   13   14 ar   
    28   13   15 1    
    29   14  138 1    
    30   15   16 1    
    31   15  139 1    
    32   15  140 1    
    33   16   17 1    
    34   17   18 1    
    35   17  141 1    
    36   17  142 1    
    37   18   19 1    
    38   18   67 1    
    39   18  143 1    
    40   19   20 am   BACKBONE|DICT|INTERRES
    41   19  144 1    
    42   20   21 2    
    43   20   22 1    
    44   22   23 1    
    45   22   24 1    
    46   22  145 1    
    47   23  146 1    
    48   23  147 1    
    49   23  148 1    
    50   24   25 am   BACKBONE|DICT|INTERRES
    51   24  149 1    
    52   25   26 2    
    53   25   27 1    
    54   27   28 1    
    55   27   29 1    
    56   27  150 1    
    57   28  151 1    
    58   28  152 1    
    59   28  153 1    
    60   29   30 am   BACKBONE|DICT|INTERRES
    61   29  154 1    
    62   30   31 2    
    63   30   32 1    
    64   32   33 1    
    65   32   34 1    
    66   32  155 1    
    67   33  156 1    
    68   33  157 1    
    69   33  158 1    
    70   34   35 am   BACKBONE|DICT|INTERRES
    71   34  159 1    
    72   35   36 2    
    73   35   37 1    
    74   37   38 1    
    75   37   39 1    
    76   37  160 1    
    77   38  161 1    
    78   38  162 1    
    79   38  163 1    
    80   39   40 am   BACKBONE|DICT|INTERRES
    81   39  164 1    
    82   40   41 2    
    83   40   42 1    
    84   42   43 1    
    85   42   44 1    
    86   42  165 1    
    87   43  166 1    
    88   43  167 1    
    89   43  168 1    
    90   44   45 am   BACKBONE|DICT|INTERRES
    91   44  169 1    
    92   45   46 2    
    93   45   47 1    
    94   47   48 1    
    95   47   49 1    
    96   47  170 1    
    97   48  171 1    
    98   48  172 1    
    99   48  173 1    
   100   49   50 am   BACKBONE|DICT|INTERRES
   101   49  174 1    
   102   50   51 2    
   103   50   52 1    
   104   52   53 1    
   105   52   54 1    
   106   52  175 1    
   107   53  176 1    
   108   53  177 1    
   109   53  178 1    
   110   54   55 am   BACKBONE|DICT|INTERRES
   111   54  179 1    
   112   55   56 2    
   113   55   57 1    
   114   57   58 1    
   115   57   59 1    
   116   57  180 1    
   117   58  181 1    
   118   58  182 1    
   119   58  183 1    
   120   59   60 am   BACKBONE|DICT|INTERRES
   121   59  184 1    
   122   60   61 2    
   123   60   62 1    
   124   62   63 1    
   125   62   64 1    
   126   62  185 1    
   127   63  186 1    
   128   63  187 1    
   129   63  188 1    
   130   64   65 am   BACKBONE|DICT|INTERRES
   131   64  189 1    
   132   65   66 2    
   133   67   68 2    
   134   67   69 am   BACKBONE|DICT|INTERRES
   135   69   70 1    
   136   69  190 1    
   137   70   71 1    
   138   70   72 1    
   139   70  191 1    
   140   71  192 1    
   141   71  193 1    
   142   71  194 1    
   143   72   73 2    
   144   72   74 am   BACKBONE|DICT|INTERRES
   145   74   75 1    
   146   74  195 1    
   147   75   76 1    
   148   75   77 1    
   149   75  196 1    
   150   76  197 1    
   151   76  198 1    
   152   76  199 1    
   153   77   78 2    
   154   77   79 am   BACKBONE|DICT|INTERRES
   155   79   80 1    
   156   79  200 1    
   157   80   81 1    
   158   80   82 1    
   159   80  201 1    
   160   81  202 1    
   161   81  203 1    
   162   81  204 1    
   163   82   83 2    
   164   82   84 am   BACKBONE|DICT|INTERRES
   165   84   85 1    
   166   84  205 1    
   167   85   86 1    
   168   85   87 1    
   169   85  206 1    
   170   86  207 1    
   171   86  208 1    
   172   86  209 1    
   173   87   88 2    
   174   87   89 am   BACKBONE|DICT|INTERRES
   175   89   90 1    
   176   89  210 1    
   177   90   91 1    
   178   90   92 1    
   179   90  211 1    
   180   91  212 1    
   181   91  213 1    
   182   91  214 1    
   183   92   93 2    
   184   92   94 am   BACKBONE|DICT|INTERRES
   185   94   95 1    
   186   94  215 1    
   187   95   96 1    
   188   95   97 1    
   189   95  216 1    
   190   96  217 1    
   191   96  218 1    
   192   96  219 1    
   193   97   98 2    
   194   97   99 am   BACKBONE|DICT|INTERRES
   195   99  100 1    
   196   99  220 1    
   197  100  101 1    
   198  100  102 1    
   199  100  221 1    
   200  101  222 1    
   201  101  223 1    
   202  101  224 1    
   203  102  103 2    
   204  102  104 am   BACKBONE|DICT|INTERRES
   205  104  105 1    
   206  104  225 1    
   207  105  106 1    
   208  105  107 1    
   209  105  226 1    
   210  106  227 1    
   211  106  228 1    
   212  106  229 1    
   213  107  108 2    
   214  107  109 am   BACKBONE|DICT|INTERRES
   215  109  110 1    
   216  109  230 1    
   217  110  111 1    
   218  110  112 1    
   219  110  231 1    
   220  111  232 1    
   221  111  233 1    
   222  111  234 1    
   223  112  113 2    
   224  112  114 am   BACKBONE|DICT|INTERRES
   225  114  115 1    
   226  114  235 1    
   227  115  116 1    
   228  115  117 1    
   229  115  236 1    
   230  116  237 1    
   231  116  238 1    
   232  116  239 1    
   233  117  118 2    
   234  117  119 am   BACKBONE|DICT|INTERRES
   235  119  120 1    
   236  119  240 1    
   237  120  121 1    
   238  120  124 1    
   239  120  241 1    
   240  121  122 am   BACKBONE|DICT|INTERRES
   241  121  123 2    
   242  122  242 1    
   243  122  243 1    
   244  124  125 1    
   245  124  244 1    
   246  124  245 1    
   247  125  126 1    
   248  126  246 1    
   249  126  247 1    
@<TRIPOS>SUBSTRUCTURE
     1 UNK         1 GROUP             0       ****    0 ROOT    
