@<TRIPOS>MOLECULE
3R540
247   249    1
SMALL
USER_CHARGES


@<TRIPOS>ATOM
      1 CA         -5.6305  -14.4119  -45.3334 C.3       0 UNK        -0.1800 
      2 C          -5.4950  -13.8823  -46.7537 C.2       0 UNK         0.5000 
      3 O          -5.9677  -12.7847  -47.0510 O.2       0 UNK        -0.5000 
      4 N          -4.8450  -14.6522  -47.6335 N.am      1 UNK        -0.5000 
      5 CA         -4.6408  -14.3666  -49.0590 C.3       1 UNK         0.1400 
      6 C6         -4.4994  -15.6766  -49.8788 C.3       23 UNK        -0.0398 
      7 S7         -3.2125  -16.8199  -49.2623 S.3       23 UNK        -0.2404 
      8 C8         -2.1845  -16.9989  -50.7483 C.3       23 UNK        -0.0205 
      9 C9         -0.9007  -17.7500  -50.4442 C.ar      23 UNK        -0.0193 
     10 C10         0.2918  -17.0481  -50.2518 C.ar      23 UNK        -0.1150 
     11 C11         1.4815  -17.7305  -49.9865 C.ar      23 UNK        -0.0193 
     12 C12         1.4711  -19.1258  -49.9158 C.ar      23 UNK        -0.1150 
     13 C13         0.2810  -19.8383  -50.0840 C.ar      23 UNK        -0.0193 
     14 C14        -0.8996  -19.1446  -50.3641 C.ar      23 UNK        -0.1150 
     15 C15         0.2656  -21.3522  -49.9392 C.3       23 UNK        -0.0205 
     16 S16        -0.4137  -21.8279  -48.3220 S.3       23 UNK        -0.2404 
     17 C17        -0.0464  -23.6173  -48.2356 C.3       23 UNK        -0.0398 
     18 CA          0.6124  -24.0574  -46.8963 C.3       11 UNK         0.1400 
     19 N           1.7361  -23.2047  -46.4988 N.am      11 UNK        -0.5000 
     20 C           2.9668  -23.3316  -47.0083 C.2       10 UNK         0.5000 
     21 O           3.3042  -24.2593  -47.7459 O.2       10 UNK        -0.5000 
     22 CA          3.9961  -22.2336  -46.6887 C.3       10 UNK         0.1400 
     23 CB          3.9468  -21.1429  -47.7679 C.3       10 UNK        -0.1800 
     24 N           3.8341  -21.6004  -45.3822 N.am      10 UNK        -0.5000 
     25 C           4.1363  -22.1697  -44.2086 C.2       9 UNK         0.5000 
     26 O           4.4819  -23.3453  -44.0862 O.2       9 UNK        -0.5000 
     27 CA          4.0645  -21.2656  -42.9660 C.3       9 UNK         0.1400 
     28 CB          5.3275  -20.3962  -42.8565 C.3       9 UNK        -0.1800 
     29 N           2.8892  -20.3981  -43.0130 N.am      9 UNK        -0.5000 
     30 C           1.7447  -20.6427  -42.3626 C.2       8 UNK         0.5000 
     31 O           1.6019  -21.5717  -41.5671 O.2       8 UNK        -0.5000 
     32 CA          0.5500  -19.7030  -42.6326 C.3       8 UNK         0.1400 
     33 CB          0.3910  -18.6994  -41.4805 C.3       8 UNK        -0.1800 
     34 N           0.6252  -18.9657  -43.8954 N.am      8 UNK        -0.5000 
     35 C           0.6499  -19.5144  -45.1178 C.2       7 UNK         0.5000 
     36 O           0.5960  -20.7255  -45.3255 O.2       7 UNK        -0.5000 
     37 CA          0.8384  -18.5496  -46.3011 C.3       7 UNK         0.1400 
     38 CB         -0.5085  -17.9392  -46.7105 C.3       7 UNK        -0.1800 
     39 N           1.8036  -17.4803  -46.0266 N.am      7 UNK        -0.5000 
     40 C           3.0804  -17.6664  -45.6584 C.2       6 UNK         0.5000 
     41 O           3.5919  -18.7751  -45.5061 O.2       6 UNK        -0.5000 
     42 CA          3.9086  -16.4107  -45.3460 C.3       6 UNK         0.1400 
     43 CB          4.4191  -15.7343  -46.6261 C.3       6 UNK        -0.1800 
     44 N           3.1344  -15.4563  -44.5576 N.am      6 UNK        -0.5000 
     45 C           2.9474  -15.5529  -43.2344 C.2       5 UNK         0.5000 
     46 O           3.4803  -16.4080  -42.5268 O.2       5 UNK        -0.5000 
     47 CA          1.9851  -14.5336  -42.5962 C.3       5 UNK         0.1400 
     48 CB          2.7449  -13.2707  -42.1634 C.3       5 UNK        -0.1800 
     49 N           0.8831  -14.1525  -43.4819 N.am      5 UNK        -0.5000 
     50 C          -0.0906  -14.9831  -43.8792 C.2       4 UNK         0.5000 
     51 O          -0.1659  -16.1627  -43.5379 O.2       4 UNK        -0.5000 
     52 CA         -1.1358  -14.4068  -44.8500 C.3       4 UNK         0.1400 
     53 CB         -2.2507  -13.6898  -44.0760 C.3       4 UNK        -0.1800 
     54 N          -0.5851  -13.4860  -45.8453 N.am      4 UNK        -0.5000 
     55 C           0.3612  -13.7709  -46.7497 C.2       3 UNK         0.5000 
     56 O           0.9884  -14.8311  -46.7657 O.2       3 UNK        -0.5000 
     57 CA          0.6265  -12.6882  -47.8166 C.3       3 UNK         0.1400 
     58 CB          1.5618  -13.1721  -48.9383 C.3       3 UNK        -0.1800 
     59 N          -0.6263  -12.2204  -48.4143 N.am      3 UNK        -0.5000 
     60 C          -1.4267  -11.2730  -47.9135 C.2       2 UNK         0.5000 
     61 O          -1.1819  -10.6635  -46.8719 O.2       2 UNK        -0.5000 
     62 CA         -2.7452  -11.0016  -48.6593 C.3       2 UNK         0.1400 
     63 CB         -2.5047  -10.4385  -50.0741 C.3       2 UNK        -0.1800 
     64 N          -3.6465  -12.1601  -48.6731 N.am      2 UNK        -0.5000 
     65 C          -3.5058  -13.3392  -49.2953 C.2       1 UNK         0.5000 
     66 O          -2.5422  -13.6192  -50.0104 O.2       1 UNK        -0.5000 
     67 C          -0.3971  -24.2182  -45.7463 C.2       11 UNK         0.5000 
     68 O          -0.6142  -25.3420  -45.2898 O.2       11 UNK        -0.5000 
     69 N          -0.9705  -23.0971  -45.2877 N.am      12 UNK        -0.5000 
     70 CA         -1.9610  -22.9244  -44.2179 C.3       12 UNK         0.1400 
     71 CB         -1.3666  -23.3139  -42.8515 C.3       12 UNK        -0.1800 
     72 C          -3.3092  -23.6359  -44.4540 C.2       12 UNK         0.5000 
     73 O          -4.3432  -22.9707  -44.5453 O.2       12 UNK        -0.5000 
     74 N          -3.2730  -24.9712  -44.5185 N.am      13 UNK        -0.5000 
     75 CA         -4.4173  -25.8748  -44.6181 C.3       13 UNK         0.1400 
     76 CB         -3.9036  -27.3211  -44.5542 C.3       13 UNK        -0.1800 
     77 C          -5.2534  -25.6615  -45.8909 C.2       13 UNK         0.5000 
     78 O          -4.7178  -25.2341  -46.9158 O.2       13 UNK        -0.5000 
     79 N          -6.5520  -25.9819  -45.7943 N.am      14 UNK        -0.5000 
     80 CA         -7.5641  -25.8790  -46.8535 C.3       14 UNK         0.1400 
     81 CB         -7.3085  -26.9363  -47.9484 C.3       14 UNK        -0.1800 
     82 C          -7.6939  -24.4478  -47.4158 C.2       14 UNK         0.5000 
     83 O          -7.7741  -24.2669  -48.6311 O.2       14 UNK        -0.5000 
     84 N          -7.6732  -23.4571  -46.5100 N.am      15 UNK        -0.5000 
     85 CA         -7.6833  -22.0153  -46.7822 C.3       15 UNK         0.1400 
     86 CB         -9.0457  -21.5782  -47.3612 C.3       15 UNK        -0.1800 
     87 C          -6.4902  -21.5956  -47.6637 C.2       15 UNK         0.5000 
     88 O          -6.6823  -21.0391  -48.7469 O.2       15 UNK        -0.5000 
     89 N          -5.2773  -21.9246  -47.1939 N.am      16 UNK        -0.5000 
     90 CA         -3.9943  -21.7070  -47.8696 C.3       16 UNK         0.1400 
     91 CB         -3.6889  -20.1977  -47.9515 C.3       16 UNK        -0.1800 
     92 C          -3.9226  -22.4256  -49.2351 C.2       16 UNK         0.5000 
     93 O          -3.5249  -21.8268  -50.2368 O.2       16 UNK        -0.5000 
     94 N          -4.3605  -23.6942  -49.2425 N.am      17 UNK        -0.5000 
     95 CA         -4.5234  -24.5789  -50.3997 C.3       17 UNK         0.1400 
     96 CB         -3.1458  -25.0425  -50.9128 C.3       17 UNK        -0.1800 
     97 C          -5.4212  -23.9630  -51.4952 C.2       17 UNK         0.5000 
     98 O          -5.0643  -23.9783  -52.6735 O.2       17 UNK        -0.5000 
     99 N          -6.5640  -23.4078  -51.0652 N.am      18 UNK        -0.5000 
    100 CA        -7.5179  -22.6103  -51.8413 C.3       18 UNK         0.1400 
    101 CB        -8.2402  -23.4824  -52.8893 C.3       18 UNK        -0.1800 
    102 C         -6.8690  -21.3416  -52.4370 C.2       18 UNK         0.5000 
    103 O         -7.0711  -21.0346  -53.6136 O.2       18 UNK        -0.5000 
    104 N         -6.0941  -20.6399  -51.5964 N.am      19 UNK        -0.5000 
    105 CA        -5.2971  -19.4458  -51.8885 C.3       19 UNK         0.1400 
    106 CB        -6.2158  -18.2257  -52.1013 C.3       19 UNK        -0.1800 
    107 C         -4.2969  -19.6598  -53.0448 C.2       19 UNK         0.5000 
    108 O         -4.3054  -18.9085  -54.0233 O.2       19 UNK        -0.5000 
    109 N         -3.4467  -20.6866  -52.9149 N.am      20 UNK        -0.5000 
    110 CA        -2.4024  -21.0471  -53.8787 C.3       20 UNK         0.1400 
    111 CB        -1.9937  -22.5123  -53.6538 C.3       20 UNK        -0.1800 
    112 C         -1.1975  -20.0882  -53.7901 C.2       20 UNK         0.5000 
    113 O         -0.1354  -20.4816  -53.3068 O.2       20 UNK        -0.5000 
    114 N         -1.4192  -18.8396  -54.2242 N.am      21 UNK        -0.5000 
    115 CA        -0.5345  -17.6777  -54.1184 C.3       21 UNK         0.1400 
    116 CB        -1.1043  -16.5392  -54.9780 C.3       21 UNK        -0.1800 
    117 C          0.9421  -17.9406  -54.4693 C.2       21 UNK         0.5000 
    118 O          1.2423  -18.4268  -55.5621 O.2       21 UNK        -0.5000 
    119 N          1.8248  -17.5844  -53.5308 N.am      22 UNK        -0.5000 
    120 CA         3.2868  -17.7026  -53.6274 C.3       22 UNK         0.1400 
    121 C          3.9764  -16.7071  -54.6090 C.2       22 UNK         0.5000 
    122 N          3.2928  -15.6936  -55.1270 N.am      22 UNK        -0.7600 
    123 O          5.1544  -16.8672  -54.9175 O.2       22 UNK        -0.5000 
    124 C124        3.9433  -17.6722  -52.2203 C.3       23 UNK        -0.0398 
    125 S125        3.4733  -16.2088  -51.2232 S.3       23 UNK        -0.2404 
    126 C126        2.7649  -16.9589  -49.7219 C.3       23 UNK        -0.0205 
    127 H127       -5.4226  -13.6216  -44.6123 H         1 UNK         0.0600 
    128 H128       -4.9421  -15.2357  -45.1430 H         1 UNK         0.0600 
    129 H129       -6.6465  -14.7675  -45.1634 H         1 UNK         0.0600 
    130 H130       -4.4494  -15.5297  -47.3259 H         1 UNK         0.3000 
    131 H131       -5.5467  -13.8806  -49.4281 H         1 UNK         0.0600 
    132 H132       -5.4464  -16.2165  -49.8468 H         1 UNK         0.0800 
    133 H133       -4.3339  -15.4503  -50.9334 H         1 UNK         0.0800 
    134 H134       -1.9523  -16.0121  -51.1514 H         1 UNK         0.0800 
    135 H135       -2.7469  -17.5236  -51.5207 H         1 UNK         0.0800 
    136 H136        0.2910  -15.9692  -50.2987 H         1 UNK         0.1150 
    137 H137        2.3873  -19.6568  -49.7072 H         1 UNK         0.1150 
    138 H138       -1.8198  -19.6929  -50.5064 H         1 UNK         0.1150 
    139 H139       -0.3400  -21.7937  -50.7315 H         1 UNK         0.0800 
    140 H140        1.2738  -21.7541  -50.0487 H         1 UNK         0.0800 
    141 H141        0.6209  -23.8763  -49.0583 H         1 UNK         0.0800 
    142 H142       -0.9668  -24.1738  -48.4216 H         1 UNK         0.0800 
    143 H143        1.0011  -25.0654  -47.0591 H         1 UNK         0.0600 
    144 H144        1.5138  -22.4005  -45.9193 H         1 UNK         0.3000 
    145 H145        4.9856  -22.6944  -46.7196 H         1 UNK         0.0600 
    146 H146        4.0599  -21.5663  -48.7668 H         1 UNK         0.0600 
    147 H147        2.9961  -20.6117  -47.7379 H         1 UNK         0.0600 
    148 H148        4.7434  -20.4117  -47.6300 H         1 UNK         0.0600 
    149 H149        3.6036  -20.6101  -45.3971 H         1 UNK         0.3000 
    150 H150        4.0292  -21.9105  -42.0855 H         1 UNK         0.0600 
    151 H151        6.2240  -21.0154  -42.8072 H         1 UNK         0.0600 
    152 H152        5.3048  -19.7836  -41.9551 H         1 UNK         0.0600 
    153 H153        5.4368  -19.7272  -43.7108 H         1 UNK         0.0600 
    154 H154        2.9234  -19.6251  -43.6660 H         1 UNK         0.3000 
    155 H155       -0.3473  -20.3229  -42.6698 H         1 UNK         0.0600 
    156 H156       -0.5194  -18.1106  -41.5938 H         1 UNK         0.0600 
    157 H157        1.2336  -18.0082  -41.4332 H         1 UNK         0.0600 
    158 H158        0.3278  -19.2098  -40.5185 H         1 UNK         0.0600 
    159 H159        0.6174  -17.9523  -43.8238 H         1 UNK         0.3000 
    160 H160        1.2215  -19.1274  -47.1420 H         1 UNK         0.0600 
    161 H161       -1.0036  -17.4519  -45.8718 H         1 UNK         0.0600 
    162 H162       -1.1810  -18.7106  -47.0846 H         1 UNK         0.0600 
    163 H163       -0.3898  -17.2017  -47.5033 H         1 UNK         0.0600 
    164 H164        1.4714  -16.5290  -46.1652 H         1 UNK         0.3000 
    165 H165        4.7810  -16.7273  -44.7698 H         1 UNK         0.0600 
    166 H166        5.1338  -14.9456  -46.3911 H         1 UNK         0.0600 
    167 H167        4.9260  -16.4497  -47.2750 H         1 UNK         0.0600 
    168 H168        3.6086  -15.2838  -47.1961 H         1 UNK         0.0600 
    169 H169        2.6084  -14.7645  -45.0732 H         1 UNK         0.3000 
    170 H170        1.5569  -14.9977  -41.7050 H         1 UNK         0.0600 
    171 H171        3.5607  -13.5201  -41.4836 H         1 UNK         0.0600 
    172 H172        3.1773  -12.7477  -43.0173 H         1 UNK         0.0600 
    173 H173        2.0886  -12.5753  -41.6399 H         1 UNK         0.0600 
    174 H174        0.8709  -13.2005  -43.8171 H         1 UNK         0.3000 
    175 H175       -1.5829  -15.2398  -45.3944 H         1 UNK         0.0600 
    176 H176       -3.0022  -13.2865  -44.7537 H         1 UNK         0.0600 
    177 H177       -2.7565  -14.3748  -43.3943 H         1 UNK         0.0600 
    178 H178       -1.8613  -12.8614  -43.4829 H         1 UNK         0.0600 
    179 H179       -1.0147  -12.5708  -45.9021 H         1 UNK         0.3000 
    180 H180        1.1192  -11.8547  -47.3122 H         1 UNK         0.0600 
    181 H181        1.1348  -14.0144  -49.4811 H         1 UNK         0.0600 
    182 H182        2.5255  -13.4902  -48.5395 H         1 UNK         0.0600 
    183 H183        1.7575  -12.3771  -49.6578 H         1 UNK         0.0600 
    184 H184       -0.9789  -12.7479  -49.2080 H         1 UNK         0.3000 
    185 H185       -3.2703  -10.2303  -48.0936 H         1 UNK         0.0600 
    186 H186       -1.9092   -9.5259  -50.0305 H         1 UNK         0.0600 
    187 H187       -1.9730  -11.1404  -50.7167 H         1 UNK         0.0600 
    188 H188       -3.4467  -10.1880  -50.5617 H         1 UNK         0.0600 
    189 H189       -4.4682  -12.0708  -48.0813 H         1 UNK         0.3000 
    190 H190       -0.6543  -22.2245  -45.7014 H         1 UNK         0.3000 
    191 H191       -2.1712  -21.8540  -44.1876 H         1 UNK         0.0600 
    192 H192       -0.4392  -22.7781  -42.6634 H         1 UNK         0.0600 
    193 H193       -2.0556  -23.0702  -42.0421 H         1 UNK         0.0600 
    194 H194       -1.1466  -24.3796  -42.7844 H         1 UNK         0.0600 
    195 H195       -2.3519  -25.3984  -44.5536 H         1 UNK         0.3000 
    196 H196       -5.0551  -25.6902  -43.7515 H         1 UNK         0.0600 
    197 H197       -4.7271  -28.0352  -44.5968 H         1 UNK         0.0600 
    198 H198       -3.3616  -27.5070  -43.6267 H         1 UNK         0.0600 
    199 H199       -3.2322  -27.5434  -45.3849 H         1 UNK         0.0600 
    200 H200       -6.8927  -26.3269  -44.9074 H         1 UNK         0.3000 
    201 H201       -8.5248  -26.1103  -46.3914 H         1 UNK         0.0600 
    202 H202       -7.2671  -27.9392  -47.5237 H         1 UNK         0.0600 
    203 H203       -6.3709  -26.7583  -48.4744 H         1 UNK         0.0600 
    204 H204       -8.1068  -26.9329  -48.6915 H         1 UNK         0.0600 
    205 H205       -7.5741  -23.7157  -45.5384 H         1 UNK         0.3000 
    206 H206       -7.5544  -21.5117  -45.8230 H         1 UNK         0.0600 
    207 H207       -9.8641  -21.8633  -46.7004 H         1 UNK         0.0600 
    208 H208       -9.0869  -20.4950  -47.4809 H         1 UNK         0.0600 
    209 H209       -9.2356  -22.0206  -48.3396 H         1 UNK         0.0600 
    210 H210       -5.2146  -22.3992  -46.2985 H         1 UNK         0.3000 
    211 H211       -3.2315  -22.1672  -47.2410 H         1 UNK         0.0600 
    212 H212       -4.4020  -19.6687  -48.5831 H         1 UNK         0.0600 
    213 H213       -2.6997  -20.0202  -48.3671 H         1 UNK         0.0600 
    214 H214       -3.7091  -19.7364  -46.9645 H         1 UNK         0.0600 
    215 H215       -4.6316  -24.1094  -48.3525 H         1 UNK         0.3000 
    216 H216       -5.0521  -25.4617  -50.0395 H         1 UNK         0.0600 
    217 H217       -3.2474  -25.7299  -51.7532 H         1 UNK         0.0600 
    218 H218       -2.5944  -25.5650  -50.1313 H         1 UNK         0.0600 
    219 H219       -2.5363  -24.2035  -51.2432 H         1 UNK         0.0600 
    220 H220       -6.7986  -23.5083  -50.0804 H         1 UNK         0.3000 
    221 H221       -8.2682  -22.2630  -51.1294 H         1 UNK         0.0600 
    222 H222       -7.5605  -23.8313  -53.6670 H         1 UNK         0.0600 
    223 H223       -8.6971  -24.3566  -52.4254 H         1 UNK         0.0600 
    224 H224       -9.0368  -22.9219  -53.3796 H         1 UNK         0.0600 
    225 H225       -6.0333  -20.9710  -50.6377 H         1 UNK         0.3000 
    226 H226       -4.6973  -19.2526  -50.9982 H         1 UNK         0.0600 
    227 H227       -6.8563  -18.0611  -51.2349 H         1 UNK         0.0600 
    228 H228       -5.6305  -17.3180  -52.2507 H         1 UNK         0.0600 
    229 H229       -6.8569  -18.3481  -52.9748 H         1 UNK         0.0600 
    230 H230       -3.4818  -21.2327  -52.0563 H         1 UNK         0.3000 
    231 H231       -2.8136  -20.9715  -54.8875 H         1 UNK         0.0600 
    232 H232       -1.6002  -22.6660  -52.6495 H         1 UNK         0.0600 
    233 H233       -1.2198  -22.8153  -54.3599 H         1 UNK         0.0600 
    234 H234       -2.8383  -23.1851  -53.7943 H         1 UNK         0.0600 
    235 H235       -2.3603  -18.6435  -54.5474 H         1 UNK         0.3000 
    236 H236       -0.5792  -17.3509  -53.0818 H         1 UNK         0.0600 
    237 H237       -2.1111  -16.2688  -54.6584 H         1 UNK         0.0600 
    238 H238       -0.4885  -15.6423  -54.9003 H         1 UNK         0.0600 
    239 H239       -1.1495  -16.8176  -56.0316 H         1 UNK         0.0600 
    240 H240        1.4899  -17.2022  -52.6578 H         1 UNK         0.3000 
    241 H241        3.4890  -18.6909  -54.0447 H         1 UNK         0.0600 
    242 H242        3.7496  -15.0610  -55.7650 H         1 UNK         0.3800 
    243 H243        2.3282  -15.5475  -54.8795 H         1 UNK         0.3800 
    244 H244        3.6692  -18.5789  -51.6810 H         1 UNK         0.0800 
    245 H245        5.0315  -17.7060  -52.2962 H         1 UNK         0.0800 
    246 H246        2.5428  -16.1645  -49.0100 H         1 UNK         0.0800 
    247 H247        3.5119  -17.5958  -49.2454 H         1 UNK         0.0800 
@<TRIPOS>BOND
     1    1    2 1    
     2    1  127 1    
     3    1  128 1    
     4    1  129 1    
     5    2    3 2    
     6    2    4 am   BACKBONE|DICT|INTERRES
     7    4    5 1    
     8    4  130 1    
     9    5    6 1    
    10    5   65 1    
    11    5  131 1    
    12    6    7 1    
    13    6  132 1    
    14    6  133 1    
    15    7    8 1    
    16    8    9 1    
    17    8  134 1    
    18    8  135 1    
    19    9   10 ar   
    20    9   14 ar   
    21   10   11 ar   
    22   10  136 1    
    23   11   12 ar   
    24   11  126 1    
    25   12   13 ar   
    26   12  137 1    
    27   13   14 ar   
    28   13   15 1    
    29   14  138 1    
    30   15   16 1    
    31   15  139 1    
    32   15  140 1    
    33   16   17 1    
    34   17   18 1    
    35   17  141 1    
    36   17  142 1    
    37   18   19 1    
    38   18   67 1    
    39   18  143 1    
    40   19   20 am   BACKBONE|DICT|INTERRES
    41   19  144 1    
    42   20   21 2    
    43   20   22 1    
    44   22   23 1    
    45   22   24 1    
    46   22  145 1    
    47   23  146 1    
    48   23  147 1    
    49   23  148 1    
    50   24   25 am   BACKBONE|DICT|INTERRES
    51   24  149 1    
    52   25   26 2    
    53   25   27 1    
    54   27   28 1    
    55   27   29 1    
    56   27  150 1    
    57   28  151 1    
    58   28  152 1    
    59   28  153 1    
    60   29   30 am   BACKBONE|DICT|INTERRES
    61   29  154 1    
    62   30   31 2    
    63   30   32 1    
    64   32   33 1    
    65   32   34 1    
    66   32  155 1    
    67   33  156 1    
    68   33  157 1    
    69   33  158 1    
    70   34   35 am   BACKBONE|DICT|INTERRES
    71   34  159 1    
    72   35   36 2    
    73   35   37 1    
    74   37   38 1    
    75   37   39 1    
    76   37  160 1    
    77   38  161 1    
    78   38  162 1    
    79   38  163 1    
    80   39   40 am   BACKBONE|DICT|INTERRES
    81   39  164 1    
    82   40   41 2    
    83   40   42 1    
    84   42   43 1    
    85   42   44 1    
    86   42  165 1    
    87   43  166 1    
    88   43  167 1    
    89   43  168 1    
    90   44   45 am   BACKBONE|DICT|INTERRES
    91   44  169 1    
    92   45   46 2    
    93   45   47 1    
    94   47   48 1    
    95   47   49 1    
    96   47  170 1    
    97   48  171 1    
    98   48  172 1    
    99   48  173 1    
   100   49   50 am   BACKBONE|DICT|INTERRES
   101   49  174 1    
   102   50   51 2    
   103   50   52 1    
   104   52   53 1    
   105   52   54 1    
   106   52  175 1    
   107   53  176 1    
   108   53  177 1    
   109   53  178 1    
   110   54   55 am   BACKBONE|DICT|INTERRES
   111   54  179 1    
   112   55   56 2    
   113   55   57 1    
   114   57   58 1    
   115   57   59 1    
   116   57  180 1    
   117   58  181 1    
   118   58  182 1    
   119   58  183 1    
   120   59   60 am   BACKBONE|DICT|INTERRES
   121   59  184 1    
   122   60   61 2    
   123   60   62 1    
   124   62   63 1    
   125   62   64 1    
   126   62  185 1    
   127   63  186 1    
   128   63  187 1    
   129   63  188 1    
   130   64   65 am   BACKBONE|DICT|INTERRES
   131   64  189 1    
   132   65   66 2    
   133   67   68 2    
   134   67   69 am   BACKBONE|DICT|INTERRES
   135   69   70 1    
   136   69  190 1    
   137   70   71 1    
   138   70   72 1    
   139   70  191 1    
   140   71  192 1    
   141   71  193 1    
   142   71  194 1    
   143   72   73 2    
   144   72   74 am   BACKBONE|DICT|INTERRES
   145   74   75 1    
   146   74  195 1    
   147   75   76 1    
   148   75   77 1    
   149   75  196 1    
   150   76  197 1    
   151   76  198 1    
   152   76  199 1    
   153   77   78 2    
   154   77   79 am   BACKBONE|DICT|INTERRES
   155   79   80 1    
   156   79  200 1    
   157   80   81 1    
   158   80   82 1    
   159   80  201 1    
   160   81  202 1    
   161   81  203 1    
   162   81  204 1    
   163   82   83 2    
   164   82   84 am   BACKBONE|DICT|INTERRES
   165   84   85 1    
   166   84  205 1    
   167   85   86 1    
   168   85   87 1    
   169   85  206 1    
   170   86  207 1    
   171   86  208 1    
   172   86  209 1    
   173   87   88 2    
   174   87   89 am   BACKBONE|DICT|INTERRES
   175   89   90 1    
   176   89  210 1    
   177   90   91 1    
   178   90   92 1    
   179   90  211 1    
   180   91  212 1    
   181   91  213 1    
   182   91  214 1    
   183   92   93 2    
   184   92   94 am   BACKBONE|DICT|INTERRES
   185   94   95 1    
   186   94  215 1    
   187   95   96 1    
   188   95   97 1    
   189   95  216 1    
   190   96  217 1    
   191   96  218 1    
   192   96  219 1    
   193   97   98 2    
   194   97   99 am   BACKBONE|DICT|INTERRES
   195   99  100 1    
   196   99  220 1    
   197  100  101 1    
   198  100  102 1    
   199  100  221 1    
   200  101  222 1    
   201  101  223 1    
   202  101  224 1    
   203  102  103 2    
   204  102  104 am   BACKBONE|DICT|INTERRES
   205  104  105 1    
   206  104  225 1    
   207  105  106 1    
   208  105  107 1    
   209  105  226 1    
   210  106  227 1    
   211  106  228 1    
   212  106  229 1    
   213  107  108 2    
   214  107  109 am   BACKBONE|DICT|INTERRES
   215  109  110 1    
   216  109  230 1    
   217  110  111 1    
   218  110  112 1    
   219  110  231 1    
   220  111  232 1    
   221  111  233 1    
   222  111  234 1    
   223  112  113 2    
   224  112  114 am   BACKBONE|DICT|INTERRES
   225  114  115 1    
   226  114  235 1    
   227  115  116 1    
   228  115  117 1    
   229  115  236 1    
   230  116  237 1    
   231  116  238 1    
   232  116  239 1    
   233  117  118 2    
   234  117  119 am   BACKBONE|DICT|INTERRES
   235  119  120 1    
   236  119  240 1    
   237  120  121 1    
   238  120  124 1    
   239  120  241 1    
   240  121  122 am   BACKBONE|DICT|INTERRES
   241  121  123 2    
   242  122  242 1    
   243  122  243 1    
   244  124  125 1    
   245  124  244 1    
   246  124  245 1    
   247  125  126 1    
   248  126  246 1    
   249  126  247 1    
@<TRIPOS>SUBSTRUCTURE
     1 UNK         1 GROUP             0       ****    0 ROOT    
