@<TRIPOS>MOLECULE
3R540
247   249    1
SMALL
USER_CHARGES


@<TRIPOS>ATOM
      1 CA         -3.1006  -14.6506  -50.6724 C.3       0 UNK        -0.1800 
      2 C          -2.2703  -14.8150  -49.4094 C.2       0 UNK         0.5000 
      3 O          -1.0481  -14.6851  -49.4608 O.2       0 UNK        -0.5000 
      4 N          -2.9272  -15.0697  -48.2693 N.am      1 UNK        -0.5000 
      5 CA         -2.2841  -15.2482  -46.9603 C.3       1 UNK         0.1400 
      6 C6         -3.2879  -15.7510  -45.8908 C.3       23 UNK        -0.0398 
      7 S7         -2.4706  -16.6583  -44.5334 S.3       23 UNK        -0.2404 
      8 C8         -2.7482  -18.3909  -45.0213 C.3       23 UNK        -0.0205 
      9 C9         -2.0667  -18.7160  -46.3417 C.ar      23 UNK        -0.0193 
     10 C10        -2.8069  -18.7838  -47.5261 C.ar      23 UNK        -0.1150 
     11 C11        -2.1650  -18.9856  -48.7510 C.ar      23 UNK        -0.0193 
     12 C12        -0.7791  -19.1752  -48.7767 C.ar      23 UNK        -0.1150 
     13 C13        -0.0296  -19.1196  -47.5981 C.ar      23 UNK        -0.0193 
     14 C14        -0.6816  -18.8854  -46.3843 C.ar      23 UNK        -0.1150 
     15 C15         1.4905  -19.2038  -47.6486 C.3       23 UNK        -0.0205 
     16 S16         2.1505  -20.8978  -47.5718 S.3       23 UNK        -0.2404 
     17 C17         1.5833  -21.5138  -45.9469 C.3       23 UNK        -0.0398 
     18 CA          0.8459  -22.8684  -46.0573 C.3       11 UNK         0.1400 
     19 N           0.6074  -23.4727  -44.7449 N.am      11 UNK        -0.5000 
     20 C           0.3245  -24.7711  -44.5593 C.2       10 UNK         0.5000 
     21 O           0.2741  -25.5951  -45.4720 O.2       10 UNK        -0.5000 
     22 CA         -0.0092  -25.2130  -43.1218 C.3       10 UNK         0.1400 
     23 CB          1.2757  -25.5217  -42.3393 C.3       10 UNK        -0.1800 
     24 N          -0.7926  -24.2154  -42.3918 N.am      10 UNK        -0.5000 
     25 C          -2.0196  -23.8036  -42.7421 C.2       9 UNK         0.5000 
     26 O          -2.6516  -24.2855  -43.6797 O.2       9 UNK        -0.5000 
     27 CA         -2.6272  -22.6316  -41.9482 C.3       9 UNK         0.1400 
     28 CB         -3.6292  -23.1503  -40.9068 C.3       9 UNK        -0.1800 
     29 N          -1.6247  -21.7988  -41.2793 N.am      9 UNK        -0.5000 
     30 C          -0.7140  -21.0415  -41.9044 C.2       8 UNK         0.5000 
     31 O          -0.6084  -20.9602  -43.1315 O.2       8 UNK        -0.5000 
     32 CA          0.3005  -20.3281  -40.9954 C.3       8 UNK         0.1400 
     33 CB          1.6720  -21.0146  -41.0952 C.3       8 UNK        -0.1800 
     34 N           0.4587  -18.9144  -41.3187 N.am      8 UNK        -0.5000 
     35 C          -0.4795  -17.9658  -41.2187 C.2       7 UNK         0.5000 
     36 O          -1.6323  -18.1912  -40.8484 O.2       7 UNK        -0.5000 
     37 CA         -0.0746  -16.5150  -41.5699 C.3       7 UNK         0.1400 
     38 CB          0.1640  -15.6875  -40.2922 C.3       7 UNK        -0.1800 
     39 N           1.0550  -16.3744  -42.5037 N.am      7 UNK        -0.5000 
     40 C           2.3437  -16.7106  -42.3328 C.2       6 UNK         0.5000 
     41 O           2.7935  -17.2277  -41.3108 O.2       6 UNK        -0.5000 
     42 CA          3.2800  -16.4801  -43.5299 C.3       6 UNK         0.1400 
     43 CB          3.3041  -17.7357  -44.4138 C.3       6 UNK        -0.1800 
     44 N           2.8839  -15.3281  -44.3398 N.am      6 UNK        -0.5000 
     45 C           3.1056  -14.0502  -44.0010 C.2       5 UNK         0.5000 
     46 O           3.6592  -13.7156  -42.9522 O.2       5 UNK        -0.5000 
     47 CA          2.6168  -12.9669  -44.9865 C.3       5 UNK         0.1400 
     48 CB          3.5497  -11.7396  -45.0380 C.3       5 UNK        -0.1800 
     49 N           2.3364  -13.4708  -46.3353 N.am      5 UNK        -0.5000 
     50 C           3.1996  -13.9646  -47.2362 C.2       4 UNK         0.5000 
     51 O           4.4088  -14.0919  -47.0439 O.2       4 UNK        -0.5000 
     52 CA          2.5952  -14.3889  -48.5877 C.3       4 UNK         0.1400 
     53 CB          2.0329  -15.8156  -48.5003 C.3       4 UNK        -0.1800 
     54 N           1.5376  -13.4808  -49.0307 N.am      4 UNK        -0.5000 
     55 C           1.7379  -12.2135  -49.4202 C.2       3 UNK         0.5000 
     56 O           2.8502  -11.6995  -49.5441 O.2       3 UNK        -0.5000 
     57 CA          0.4791  -11.3697  -49.6818 C.3       3 UNK         0.1400 
     58 CB         -0.1110  -11.6696  -51.0687 C.3       3 UNK        -0.1800 
     59 N          -0.5368  -11.5897  -48.6518 N.am      3 UNK        -0.5000 
     60 C          -0.4735  -11.0906  -47.4085 C.2       2 UNK         0.5000 
     61 O           0.4235  -10.3446  -47.0158 O.2       2 UNK        -0.5000 
     62 CA         -1.5966  -11.4934  -46.4339 C.3       2 UNK         0.1400 
     63 CB         -2.7200  -10.4458  -46.4459 C.3       2 UNK        -0.1800 
     64 N          -2.1669  -12.8083  -46.7309 N.am      2 UNK        -0.5000 
     65 C          -1.5482  -13.9740  -46.4946 C.2       1 UNK         0.5000 
     66 O          -0.4317  -14.0627  -45.9841 O.2       1 UNK        -0.5000 
     67 C          -0.4598  -22.7778  -46.8744 C.2       11 UNK         0.5000 
     68 O          -0.4303  -23.0294  -48.0794 O.2       11 UNK        -0.5000 
     69 N          -1.5868  -22.4911  -46.2047 N.am      12 UNK        -0.5000 
     70 CA         -2.9164  -22.5033  -46.8159 C.3       12 UNK         0.1400 
     71 CB         -3.9574  -21.9240  -45.8466 C.3       12 UNK        -0.1800 
     72 C          -3.3311  -23.9144  -47.2662 C.2       12 UNK         0.5000 
     73 O          -3.8636  -24.0583  -48.3651 O.2       12 UNK        -0.5000 
     74 N          -3.0611  -24.9224  -46.4251 N.am      13 UNK        -0.5000 
     75 CA         -3.3238  -26.3365  -46.6941 C.3       13 UNK         0.1400 
     76 CB         -3.1109  -27.1505  -45.4088 C.3       13 UNK        -0.1800 
     77 C          -2.4673  -26.8961  -47.8442 C.2       13 UNK         0.5000 
     78 O          -2.9871  -27.6364  -48.6801 O.2       13 UNK        -0.5000 
     79 N          -1.1816  -26.5160  -47.8823 N.am      14 UNK        -0.5000 
     80 CA         -0.2625  -26.8235  -48.9816 C.3       14 UNK         0.1400 
     81 CB          1.1734  -26.4889  -48.5487 C.3       14 UNK        -0.1800 
     82 C          -0.6163  -26.0692  -50.2782 C.2       14 UNK         0.5000 
     83 O          -0.3801  -26.5899  -51.3688 O.2       14 UNK        -0.5000 
     84 N          -1.1709  -24.8599  -50.1179 N.am      15 UNK        -0.5000 
     85 CA         -1.5659  -23.8945  -51.1412 C.3       15 UNK         0.1400 
     86 CB         -2.7554  -24.4177  -51.9710 C.3       15 UNK        -0.1800 
     87 C          -0.3739  -23.4293  -51.9949 C.2       15 UNK         0.5000 
     88 O          -0.4786  -23.3503  -53.2193 O.2       15 UNK        -0.5000 
     89 N           0.7491  -23.1346  -51.3242 N.am      16 UNK        -0.5000 
     90 CA          2.0395  -22.8219  -51.9458 C.3       16 UNK         0.1400 
     91 CB          3.1180  -22.7457  -50.8563 C.3       16 UNK        -0.1800 
     92 C           2.0413  -21.5401  -52.8022 C.2       16 UNK         0.5000 
     93 O           2.8093  -21.4582  -53.7615 O.2       16 UNK        -0.5000 
     94 N           1.1751  -20.5761  -52.4599 N.am      17 UNK        -0.5000 
     95 CA          0.9702  -19.3463  -53.2301 C.3       17 UNK         0.1400 
     96 CB          0.4019  -18.2604  -52.3034 C.3       17 UNK        -0.1800 
     97 C           0.0466  -19.5466  -54.4497 C.2       17 UNK         0.5000 
     98 O           0.0281  -18.6852  -55.3294 O.2       17 UNK        -0.5000 
     99 N          -0.7105  -20.6568  -54.4723 N.am      18 UNK        -0.5000 
    100 CA        -1.6907  -21.0579  -55.4904 C.3       18 UNK         0.1400 
    101 CB        -0.9796  -21.4084  -56.8136 C.3       18 UNK        -0.1800 
    102 C         -2.8485  -20.0511  -55.6811 C.2       18 UNK         0.5000 
    103 O         -3.4280  -19.9751  -56.7665 O.2       18 UNK        -0.5000 
    104 N         -3.1625  -19.2913  -54.6254 N.am      19 UNK        -0.5000 
    105 CA        -4.2116  -18.2774  -54.6078 C.3       19 UNK         0.1400 
    106 CB        -3.8124  -17.1866  -53.6013 C.3       19 UNK        -0.1800 
    107 C         -5.5629  -18.8889  -54.2079 C.2       19 UNK         0.5000 
    108 O         -5.6035  -19.9094  -53.5176 O.2       19 UNK        -0.5000 
    109 N         -6.6526  -18.2002  -54.5712 N.am      20 UNK        -0.5000 
    110 CA        -8.0246  -18.5373  -54.1702 C.3       20 UNK         0.1400 
    111 CB        -9.0052  -17.6638  -54.9679 C.3       20 UNK        -0.1800 
    112 C         -8.2782  -18.3899  -52.6536 C.2       20 UNK         0.5000 
    113 O         -9.2268  -18.9783  -52.1349 O.2       20 UNK        -0.5000 
    114 N         -7.4190  -17.6177  -51.9740 N.am      21 UNK        -0.5000 
    115 CA        -7.3962  -17.4407  -50.5231 C.3       21 UNK         0.1400 
    116 CB        -6.5601  -16.1923  -50.2025 C.3       21 UNK        -0.1800 
    117 C         -6.8332  -18.6574  -49.7603 C.2       21 UNK         0.5000 
    118 O         -7.0247  -18.7344  -48.5458 O.2       21 UNK        -0.5000 
    119 N         -6.1224  -19.5592  -50.4543 N.am      22 UNK        -0.5000 
    120 CA        -5.5680  -20.7932  -49.8765 C.3       22 UNK         0.1400 
    121 C         -6.6780  -21.8696  -49.6344 C.2       22 UNK         0.5000 
    122 N         -6.3462  -23.0295  -49.0857 N.am      22 UNK        -0.7600 
    123 O         -7.8519  -21.6846  -49.9498 O.2       22 UNK        -0.5000 
    124 C124       -4.4021  -21.3635  -50.7311 C.3       23 UNK        -0.0398 
    125 S125       -2.9262  -20.3318  -51.1083 S.3       23 UNK        -0.2404 
    126 C126       -2.9447  -18.8438  -50.0500 C.3       23 UNK        -0.0205 
    127 H127       -4.1290  -14.3739  -50.4420 H         1 UNK         0.0600 
    128 H128       -3.1052  -15.5802  -51.2390 H         1 UNK         0.0600 
    129 H129       -2.6785  -13.8690  -51.3038 H         1 UNK         0.0600 
    130 H130       -3.9330  -15.1538  -48.2859 H         1 UNK         0.3000 
    131 H131       -1.5214  -16.0167  -47.1041 H         1 UNK         0.0600 
    132 H132       -4.0263  -16.4131  -46.3438 H         1 UNK         0.0800 
    133 H133       -3.8646  -14.9267  -45.4672 H         1 UNK         0.0800 
    134 H134       -2.3580  -19.0456  -44.2403 H         1 UNK         0.0800 
    135 H135       -3.8206  -18.5825  -45.0779 H         1 UNK         0.0800 
    136 H136       -3.8747  -18.6176  -47.5006 H         1 UNK         0.1150 
    137 H137       -0.2752  -19.3151  -49.7205 H         1 UNK         0.1150 
    138 H138       -0.1126  -18.7958  -45.4699 H         1 UNK         0.1150 
    139 H139        1.8409  -18.7537  -48.5780 H         1 UNK         0.0800 
    140 H140        1.9292  -18.6094  -46.8502 H         1 UNK         0.0800 
    141 H141        0.9659  -20.7778  -45.4367 H         1 UNK         0.0800 
    142 H142        2.4702  -21.6324  -45.3233 H         1 UNK         0.0800 
    143 H143        1.5080  -23.5455  -46.6020 H         1 UNK         0.0600 
    144 H144        0.5682  -22.8427  -43.9554 H         1 UNK         0.3000 
    145 H145       -0.6022  -26.1278  -43.1834 H         1 UNK         0.0600 
    146 H146        1.0490  -25.9097  -41.3461 H         1 UNK         0.0600 
    147 H147        1.8731  -26.2762  -42.8530 H         1 UNK         0.0600 
    148 H148        1.8992  -24.6347  -42.2196 H         1 UNK         0.0600 
    149 H149       -0.3507  -23.7804  -41.5962 H         1 UNK         0.3000 
    150 H150       -3.1662  -22.0014  -42.6588 H         1 UNK         0.0600 
    151 H151       -3.1430  -23.7730  -40.1548 H         1 UNK         0.0600 
    152 H152       -4.4066  -23.7525  -41.3791 H         1 UNK         0.0600 
    153 H153       -4.1260  -22.3272  -40.3928 H         1 UNK         0.0600 
    154 H154       -1.6368  -21.8134  -40.2695 H         1 UNK         0.3000 
    155 H155       -0.0413  -20.3919  -39.9603 H         1 UNK         0.0600 
    156 H156        2.0811  -20.9511  -42.1046 H         1 UNK         0.0600 
    157 H157        1.6035  -22.0713  -40.8336 H         1 UNK         0.0600 
    158 H158        2.3914  -20.5587  -40.4145 H         1 UNK         0.0600 
    159 H159        1.3927  -18.6085  -41.5623 H         1 UNK         0.3000 
    160 H160       -0.9322  -16.0755  -42.0797 H         1 UNK         0.0600 
    161 H161        0.9886  -16.0823  -39.6983 H         1 UNK         0.0600 
    162 H162       -0.7226  -15.6891  -39.6569 H         1 UNK         0.0600 
    163 H163        0.3895  -14.6484  -40.5319 H         1 UNK         0.0600 
    164 H164        0.8062  -15.9844  -43.4018 H         1 UNK         0.3000 
    165 H165        4.2887  -16.3090  -43.1477 H         1 UNK         0.0600 
    166 H166        3.9115  -17.5867  -45.3069 H         1 UNK         0.0600 
    167 H167        3.7243  -18.5840  -43.8718 H         1 UNK         0.0600 
    168 H168        2.2988  -18.0181  -44.7252 H         1 UNK         0.0600 
    169 H169        2.4237  -15.5134  -45.2182 H         1 UNK         0.3000 
    170 H170        1.6564  -12.6269  -44.5966 H         1 UNK         0.0600 
    171 H171        3.6239  -11.2622  -44.0604 H         1 UNK         0.0600 
    172 H172        4.5599  -12.0095  -45.3463 H         1 UNK         0.0600 
    173 H173        3.1738  -10.9904  -45.7352 H         1 UNK         0.0600 
    174 H174        1.3482  -13.4973  -46.5677 H         1 UNK         0.3000 
    175 H175        3.3929  -14.3783  -49.3333 H         1 UNK         0.0600 
    176 H176        1.2102  -15.8851  -47.7869 H         1 UNK         0.0600 
    177 H177        1.6610  -16.1532  -49.4680 H         1 UNK         0.0600 
    178 H178        2.8068  -16.5159  -48.1846 H         1 UNK         0.0600 
    179 H179        0.5895  -13.8494  -49.0276 H         1 UNK         0.3000 
    180 H180        0.7695  -10.3169  -49.6622 H         1 UNK         0.0600 
    181 H181       -0.3980  -12.7159  -51.1725 H         1 UNK         0.0600 
    182 H182        0.6151  -11.4525  -51.8530 H         1 UNK         0.0600 
    183 H183       -0.9922  -11.0583  -51.2637 H         1 UNK         0.0600 
    184 H184       -1.2857  -12.2254  -48.8810 H         1 UNK         0.3000 
    185 H185       -1.1681  -11.5221  -45.4296 H         1 UNK         0.0600 
    186 H186       -2.3328   -9.4555  -46.2023 H         1 UNK         0.0600 
    187 H187       -3.1994  -10.3793  -47.4234 H         1 UNK         0.0600 
    188 H188       -3.4882  -10.6827  -45.7096 H         1 UNK         0.0600 
    189 H189       -3.0767  -12.8215  -47.1682 H         1 UNK         0.3000 
    190 H190       -1.5335  -22.2994  -45.2148 H         1 UNK         0.3000 
    191 H191       -2.8793  -21.8613  -47.6990 H         1 UNK         0.0600 
    192 H192       -3.6411  -20.9628  -45.4506 H         1 UNK         0.0600 
    193 H193       -4.9113  -21.7704  -46.3527 H         1 UNK         0.0600 
    194 H194       -4.1429  -22.5841  -44.9999 H         1 UNK         0.0600 
    195 H195       -2.6936  -24.6981  -45.5038 H         1 UNK         0.3000 
    196 H196       -4.3721  -26.4299  -46.9852 H         1 UNK         0.0600 
    197 H197       -3.3282  -28.2064  -45.5743 H         1 UNK         0.0600 
    198 H198       -3.7669  -26.8041  -44.6100 H         1 UNK         0.0600 
    199 H199       -2.0834  -27.0781  -45.0518 H         1 UNK         0.0600 
    200 H200       -0.8069  -25.9689  -47.1135 H         1 UNK         0.3000 
    201 H201       -0.3192  -27.8940  -49.1889 H         1 UNK         0.0600 
    202 H202        1.8862  -26.7271  -49.3392 H         1 UNK         0.0600 
    203 H203        1.4624  -27.0600  -47.6663 H         1 UNK         0.0600 
    204 H204        1.2855  -25.4299  -48.3133 H         1 UNK         0.0600 
    205 H205       -1.2385  -24.5064  -49.1698 H         1 UNK         0.3000 
    206 H206       -1.8972  -23.0155  -50.5919 H         1 UNK         0.0600 
    207 H207       -3.5860  -24.7050  -51.3259 H         1 UNK         0.0600 
    208 H208       -3.1235  -23.6494  -52.6519 H         1 UNK         0.0600 
    209 H209       -2.4804  -25.2848  -52.5719 H         1 UNK         0.0600 
    210 H210        0.7316  -23.2000  -50.3146 H         1 UNK         0.3000 
    211 H211        2.2882  -23.6535  -52.6085 H         1 UNK         0.0600 
    212 H212        2.9431  -21.9086  -50.1815 H         1 UNK         0.0600 
    213 H213        4.1068  -22.6087  -51.2957 H         1 UNK         0.0600 
    214 H214        3.1497  -23.6589  -50.2616 H         1 UNK         0.0600 
    215 H215        0.5825  -20.7239  -51.6565 H         1 UNK         0.3000 
    216 H216        1.9356  -18.9967  -53.6025 H         1 UNK         0.0600 
    217 H217        0.3127  -17.3078  -52.8271 H         1 UNK         0.0600 
    218 H218        1.0466  -18.0951  -51.4400 H         1 UNK         0.0600 
    219 H219       -0.5907  -18.5245  -51.9429 H         1 UNK         0.0600 
    220 H220       -0.5764  -21.3368  -53.7331 H         1 UNK         0.3000 
    221 H221       -2.1528  -21.9723  -55.1156 H         1 UNK         0.0600 
    222 H222       -0.5413  -20.5273  -57.2831 H         1 UNK         0.0600 
    223 H223       -0.1824  -22.1338  -56.6504 H         1 UNK         0.0600 
    224 H224       -1.6748  -21.8491  -57.5290 H         1 UNK         0.0600 
    225 H225       -2.6908  -19.4666  -53.7505 H         1 UNK         0.3000 
    226 H226       -4.3020  -17.8255  -55.5979 H         1 UNK         0.0600 
    227 H227       -2.8276  -16.7780  -53.8301 H         1 UNK         0.0600 
    228 H228       -4.5186  -16.3557  -53.6184 H         1 UNK         0.0600 
    229 H229       -3.7861  -17.5733  -52.5829 H         1 UNK         0.0600 
    230 H230       -6.5431  -17.3668  -55.1315 H         1 UNK         0.3000 
    231 H231       -8.2057  -19.5823  -54.4303 H         1 UNK         0.0600 
    232 H232       -8.8601  -16.6030  -54.7600 H         1 UNK         0.0600 
    233 H233      -10.0387  -17.9086  -54.7188 H         1 UNK         0.0600 
    234 H234       -8.8871  -17.8162  -56.0409 H         1 UNK         0.0600 
    235 H235       -6.6890  -17.1565  -52.4945 H         1 UNK         0.3000 
    236 H236       -8.4180  -17.2739  -50.1758 H         1 UNK         0.0600 
    237 H237       -6.9617  -15.3070  -50.6958 H         1 UNK         0.0600 
    238 H238       -6.5507  -15.9903  -49.1306 H         1 UNK         0.0600 
    239 H239       -5.5261  -16.3193  -50.5229 H         1 UNK         0.0600 
    240 H240       -6.0388  -19.4673  -51.4591 H         1 UNK         0.3000 
    241 H241       -5.1639  -20.5490  -48.8926 H         1 UNK         0.0600 
    242 H242       -7.0751  -23.7101  -48.9431 H         1 UNK         0.3800 
    243 H243       -5.3885  -23.2887  -48.8562 H         1 UNK         0.3800 
    244 H244       -4.0157  -22.2579  -50.2470 H         1 UNK         0.0800 
    245 H245       -4.7945  -21.7082  -51.6890 H         1 UNK         0.0800 
    246 H246       -2.4737  -18.0382  -50.6127 H         1 UNK         0.0800 
    247 H247       -3.9500  -18.4856  -49.8579 H         1 UNK         0.0800 
@<TRIPOS>BOND
     1    1    2 1    
     2    1  127 1    
     3    1  128 1    
     4    1  129 1    
     5    2    3 2    
     6    2    4 am   BACKBONE|DICT|INTERRES
     7    4    5 1    
     8    4  130 1    
     9    5    6 1    
    10    5   65 1    
    11    5  131 1    
    12    6    7 1    
    13    6  132 1    
    14    6  133 1    
    15    7    8 1    
    16    8    9 1    
    17    8  134 1    
    18    8  135 1    
    19    9   10 ar   
    20    9   14 ar   
    21   10   11 ar   
    22   10  136 1    
    23   11   12 ar   
    24   11  126 1    
    25   12   13 ar   
    26   12  137 1    
    27   13   14 ar   
    28   13   15 1    
    29   14  138 1    
    30   15   16 1    
    31   15  139 1    
    32   15  140 1    
    33   16   17 1    
    34   17   18 1    
    35   17  141 1    
    36   17  142 1    
    37   18   19 1    
    38   18   67 1    
    39   18  143 1    
    40   19   20 am   BACKBONE|DICT|INTERRES
    41   19  144 1    
    42   20   21 2    
    43   20   22 1    
    44   22   23 1    
    45   22   24 1    
    46   22  145 1    
    47   23  146 1    
    48   23  147 1    
    49   23  148 1    
    50   24   25 am   BACKBONE|DICT|INTERRES
    51   24  149 1    
    52   25   26 2    
    53   25   27 1    
    54   27   28 1    
    55   27   29 1    
    56   27  150 1    
    57   28  151 1    
    58   28  152 1    
    59   28  153 1    
    60   29   30 am   BACKBONE|DICT|INTERRES
    61   29  154 1    
    62   30   31 2    
    63   30   32 1    
    64   32   33 1    
    65   32   34 1    
    66   32  155 1    
    67   33  156 1    
    68   33  157 1    
    69   33  158 1    
    70   34   35 am   BACKBONE|DICT|INTERRES
    71   34  159 1    
    72   35   36 2    
    73   35   37 1    
    74   37   38 1    
    75   37   39 1    
    76   37  160 1    
    77   38  161 1    
    78   38  162 1    
    79   38  163 1    
    80   39   40 am   BACKBONE|DICT|INTERRES
    81   39  164 1    
    82   40   41 2    
    83   40   42 1    
    84   42   43 1    
    85   42   44 1    
    86   42  165 1    
    87   43  166 1    
    88   43  167 1    
    89   43  168 1    
    90   44   45 am   BACKBONE|DICT|INTERRES
    91   44  169 1    
    92   45   46 2    
    93   45   47 1    
    94   47   48 1    
    95   47   49 1    
    96   47  170 1    
    97   48  171 1    
    98   48  172 1    
    99   48  173 1    
   100   49   50 am   BACKBONE|DICT|INTERRES
   101   49  174 1    
   102   50   51 2    
   103   50   52 1    
   104   52   53 1    
   105   52   54 1    
   106   52  175 1    
   107   53  176 1    
   108   53  177 1    
   109   53  178 1    
   110   54   55 am   BACKBONE|DICT|INTERRES
   111   54  179 1    
   112   55   56 2    
   113   55   57 1    
   114   57   58 1    
   115   57   59 1    
   116   57  180 1    
   117   58  181 1    
   118   58  182 1    
   119   58  183 1    
   120   59   60 am   BACKBONE|DICT|INTERRES
   121   59  184 1    
   122   60   61 2    
   123   60   62 1    
   124   62   63 1    
   125   62   64 1    
   126   62  185 1    
   127   63  186 1    
   128   63  187 1    
   129   63  188 1    
   130   64   65 am   BACKBONE|DICT|INTERRES
   131   64  189 1    
   132   65   66 2    
   133   67   68 2    
   134   67   69 am   BACKBONE|DICT|INTERRES
   135   69   70 1    
   136   69  190 1    
   137   70   71 1    
   138   70   72 1    
   139   70  191 1    
   140   71  192 1    
   141   71  193 1    
   142   71  194 1    
   143   72   73 2    
   144   72   74 am   BACKBONE|DICT|INTERRES
   145   74   75 1    
   146   74  195 1    
   147   75   76 1    
   148   75   77 1    
   149   75  196 1    
   150   76  197 1    
   151   76  198 1    
   152   76  199 1    
   153   77   78 2    
   154   77   79 am   BACKBONE|DICT|INTERRES
   155   79   80 1    
   156   79  200 1    
   157   80   81 1    
   158   80   82 1    
   159   80  201 1    
   160   81  202 1    
   161   81  203 1    
   162   81  204 1    
   163   82   83 2    
   164   82   84 am   BACKBONE|DICT|INTERRES
   165   84   85 1    
   166   84  205 1    
   167   85   86 1    
   168   85   87 1    
   169   85  206 1    
   170   86  207 1    
   171   86  208 1    
   172   86  209 1    
   173   87   88 2    
   174   87   89 am   BACKBONE|DICT|INTERRES
   175   89   90 1    
   176   89  210 1    
   177   90   91 1    
   178   90   92 1    
   179   90  211 1    
   180   91  212 1    
   181   91  213 1    
   182   91  214 1    
   183   92   93 2    
   184   92   94 am   BACKBONE|DICT|INTERRES
   185   94   95 1    
   186   94  215 1    
   187   95   96 1    
   188   95   97 1    
   189   95  216 1    
   190   96  217 1    
   191   96  218 1    
   192   96  219 1    
   193   97   98 2    
   194   97   99 am   BACKBONE|DICT|INTERRES
   195   99  100 1    
   196   99  220 1    
   197  100  101 1    
   198  100  102 1    
   199  100  221 1    
   200  101  222 1    
   201  101  223 1    
   202  101  224 1    
   203  102  103 2    
   204  102  104 am   BACKBONE|DICT|INTERRES
   205  104  105 1    
   206  104  225 1    
   207  105  106 1    
   208  105  107 1    
   209  105  226 1    
   210  106  227 1    
   211  106  228 1    
   212  106  229 1    
   213  107  108 2    
   214  107  109 am   BACKBONE|DICT|INTERRES
   215  109  110 1    
   216  109  230 1    
   217  110  111 1    
   218  110  112 1    
   219  110  231 1    
   220  111  232 1    
   221  111  233 1    
   222  111  234 1    
   223  112  113 2    
   224  112  114 am   BACKBONE|DICT|INTERRES
   225  114  115 1    
   226  114  235 1    
   227  115  116 1    
   228  115  117 1    
   229  115  236 1    
   230  116  237 1    
   231  116  238 1    
   232  116  239 1    
   233  117  118 2    
   234  117  119 am   BACKBONE|DICT|INTERRES
   235  119  120 1    
   236  119  240 1    
   237  120  121 1    
   238  120  124 1    
   239  120  241 1    
   240  121  122 am   BACKBONE|DICT|INTERRES
   241  121  123 2    
   242  122  242 1    
   243  122  243 1    
   244  124  125 1    
   245  124  244 1    
   246  124  245 1    
   247  125  126 1    
   248  126  246 1    
   249  126  247 1    
@<TRIPOS>SUBSTRUCTURE
     1 UNK         1 GROUP             0       ****    0 ROOT    
