@<TRIPOS>MOLECULE
3R540
247   249    1
SMALL
USER_CHARGES


@<TRIPOS>ATOM
      1 CA          6.6161  -14.7532  -46.5901 C.3       0 UNK        -0.1800 
      2 C           5.4360  -14.0219  -45.9677 C.2       0 UNK         0.5000 
      3 O           5.3171  -13.9762  -44.7428 O.2       0 UNK        -0.5000 
      4 N           4.5625  -13.4465  -46.8031 N.am      1 UNK        -0.5000 
      5 CA          3.3532  -12.7109  -46.4121 C.3       1 UNK         0.1400 
      6 C6          2.2916  -12.7072  -47.5438 C.3       23 UNK        -0.0398 
      7 S7          1.6251  -14.3636  -47.9291 S.3       23 UNK        -0.2404 
      8 C8          2.7231  -14.8917  -49.2815 C.3       23 UNK        -0.0205 
      9 C9          2.1646  -16.0775  -50.0549 C.ar      23 UNK        -0.0193 
     10 C10         1.1084  -15.8839  -50.9484 C.ar      23 UNK        -0.1150 
     11 C11         0.6328  -16.9342  -51.7379 C.ar      23 UNK        -0.0193 
     12 C12         1.2353  -18.1945  -51.6268 C.ar      23 UNK        -0.1150 
     13 C13         2.2878  -18.4078  -50.7309 C.ar      23 UNK        -0.0193 
     14 C14         2.7421  -17.3462  -49.9402 C.ar      23 UNK        -0.1150 
     15 C15         2.9888  -19.7602  -50.6796 C.3       23 UNK        -0.0205 
     16 S16         2.6833  -20.6685  -49.1323 S.3       23 UNK        -0.2404 
     17 C17         0.9935  -21.3073  -49.3852 C.3       23 UNK        -0.0398 
     18 CA          0.6500  -22.4485  -48.3946 C.3       11 UNK         0.1400 
     19 N           0.5960  -22.0004  -46.9990 N.am      11 UNK        -0.5000 
     20 C           0.4730  -22.8100  -45.9376 C.2       10 UNK         0.5000 
     21 O           0.4651  -24.0382  -46.0150 O.2       10 UNK        -0.5000 
     22 CA          0.2629  -22.1419  -44.5658 C.3       10 UNK         0.1400 
     23 CB          1.5990  -21.7023  -43.9493 C.3       10 UNK        -0.1800 
     24 N          -0.6602  -21.0072  -44.6338 N.am      10 UNK        -0.5000 
     25 C          -1.9620  -21.1165  -44.9373 C.2       9 UNK         0.5000 
     26 O          -2.5273  -22.1944  -45.1199 O.2       9 UNK        -0.5000 
     27 CA         -2.7579  -19.8089  -45.1107 C.3       9 UNK         0.1400 
     28 CB         -3.2178  -19.2584  -43.7529 C.3       9 UNK        -0.1800 
     29 N          -2.0021  -18.7816  -45.8253 N.am      9 UNK        -0.5000 
     30 C          -1.6033  -18.8751  -47.1012 C.2       8 UNK         0.5000 
     31 O          -1.8962  -19.8123  -47.8425 O.2       8 UNK        -0.5000 
     32 CA         -0.6736  -17.7603  -47.6157 C.3       8 UNK         0.1400 
     33 CB         -1.4852  -16.5418  -48.0827 C.3       8 UNK        -0.1800 
     34 N           0.3180  -17.3527  -46.6157 N.am      8 UNK        -0.5000 
     35 C           1.2685  -18.1627  -46.1279 C.2       7 UNK         0.5000 
     36 O           1.4175  -19.3251  -46.4917 O.2       7 UNK        -0.5000 
     37 CA          2.1554  -17.6214  -44.9940 C.3       7 UNK         0.1400 
     38 CB          3.3225  -16.7900  -45.5374 C.3       7 UNK        -0.1800 
     39 N           1.3945  -16.8445  -44.0163 N.am      7 UNK        -0.5000 
     40 C           0.5202  -17.3902  -43.1596 C.2       6 UNK         0.5000 
     41 O           0.3054  -18.6000  -43.0826 O.2       6 UNK        -0.5000 
     42 CA         -0.2809  -16.4195  -42.2718 C.3       6 UNK         0.1400 
     43 CB          0.5247  -16.0385  -41.0207 C.3       6 UNK        -0.1800 
     44 N          -0.7047  -15.1982  -42.9625 N.am      6 UNK        -0.5000 
     45 C          -1.4693  -15.1561  -44.0634 C.2       5 UNK         0.5000 
     46 O          -1.8693  -16.1665  -44.6400 O.2       5 UNK        -0.5000 
     47 CA         -1.8675  -13.7704  -44.6117 C.3       5 UNK         0.1400 
     48 CB         -3.3844  -13.6909  -44.8524 C.3       5 UNK        -0.1800 
     49 N          -1.4761  -12.6676  -43.7288 N.am      5 UNK        -0.5000 
     50 C          -0.3047  -12.0253  -43.7795 C.2       4 UNK         0.5000 
     51 O           0.6041  -12.3070  -44.5639 O.2       4 UNK        -0.5000 
     52 CA         -0.1045  -10.9001  -42.7583 C.3       4 UNK         0.1400 
     53 CB          0.4688  -11.4513  -41.4407 C.3       4 UNK        -0.1800 
     54 N           0.8120   -9.9236  -43.3299 N.am      4 UNK        -0.5000 
     55 C           0.8889   -8.6296  -43.0023 C.2       3 UNK         0.5000 
     56 O           0.1820   -8.1046  -42.1398 O.2       3 UNK        -0.5000 
     57 CA          1.9166   -7.7828  -43.7857 C.3       3 UNK         0.1400 
     58 CB          2.3727   -6.5247  -43.0166 C.3       3 UNK        -0.1800 
     59 N           3.0707   -8.5580  -44.2593 N.am      3 UNK        -0.5000 
     60 C           3.9939   -9.1864  -43.5180 C.2       2 UNK         0.5000 
     61 O           4.0014   -9.1961  -42.2857 O.2       2 UNK        -0.5000 
     62 CA          5.0684   -9.9613  -44.3064 C.3       2 UNK         0.1400 
     63 CB          6.2882  -10.3262  -43.4417 C.3       2 UNK        -0.1800 
     64 N           4.5315  -11.1893  -44.8911 N.am      2 UNK        -0.5000 
     65 C           3.7227  -11.2804  -45.9538 C.2       1 UNK         0.5000 
     66 O           3.3140  -10.2971  -46.5755 O.2       1 UNK        -0.5000 
     67 C          -0.6434  -23.1856  -48.8025 C.2       11 UNK         0.5000 
     68 O          -0.5547  -24.2584  -49.3998 O.2       11 UNK        -0.5000 
     69 N          -1.8110  -22.6457  -48.4192 N.am      12 UNK        -0.5000 
     70 CA         -3.1202  -23.2585  -48.6541 C.3       12 UNK         0.1400 
     71 CB         -4.2382  -22.2864  -48.2499 C.3       12 UNK        -0.1800 
     72 C          -3.2862  -24.6010  -47.9227 C.2       12 UNK         0.5000 
     73 O          -3.8165  -25.5467  -48.5045 O.2       12 UNK        -0.5000 
     74 N          -2.8035  -24.6726  -46.6744 N.am      13 UNK        -0.5000 
     75 CA         -2.7748  -25.8915  -45.8670 C.3       13 UNK         0.1400 
     76 CB         -2.3783  -25.5490  -44.4233 C.3       13 UNK        -0.1800 
     77 C          -1.8448  -26.9680  -46.4565 C.2       13 UNK         0.5000 
     78 O          -2.2282  -28.1370  -46.4965 O.2       13 UNK        -0.5000 
     79 N          -0.6632  -26.5548  -46.9376 N.am      14 UNK        -0.5000 
     80 CA          0.3117  -27.4163  -47.6110 C.3       14 UNK         0.1400 
     81 CB          1.6360  -26.6574  -47.7853 C.3       14 UNK        -0.1800 
     82 C          -0.1966  -27.9515  -48.9634 C.2       14 UNK         0.5000 
     83 O           0.0155  -29.1250  -49.2710 O.2       14 UNK        -0.5000 
     84 N          -0.8849  -27.0944  -49.7301 N.am      15 UNK        -0.5000 
     85 CA         -1.5547  -27.4423  -50.9863 C.3       15 UNK         0.1400 
     86 CB         -1.8989  -26.1470  -51.7386 C.3       15 UNK        -0.1800 
     87 C          -2.8253  -28.2944  -50.7875 C.2       15 UNK         0.5000 
     88 O          -3.2787  -28.9299  -51.7399 O.2       15 UNK        -0.5000 
     89 N          -3.3767  -28.2743  -49.5653 N.am      16 UNK        -0.5000 
     90 CA         -4.6252  -28.8993  -49.1193 C.3       16 UNK         0.1400 
     91 CB         -4.5512  -30.4362  -49.2323 C.3       16 UNK        -0.1800 
     92 C          -5.8802  -28.3000  -49.7912 C.2       16 UNK         0.5000 
     93 O          -6.9085  -28.9733  -49.8822 O.2       16 UNK        -0.5000 
     94 N          -5.7821  -27.0395  -50.2288 N.am      17 UNK        -0.5000 
     95 CA         -6.8285  -26.2604  -50.8780 C.3       17 UNK         0.1400 
     96 CB         -7.1485  -26.8191  -52.2786 C.3       17 UNK        -0.1800 
     97 C          -6.3453  -24.8109  -50.9911 C.2       17 UNK         0.5000 
     98 O          -5.1962  -24.5794  -51.3720 O.2       17 UNK        -0.5000 
     99 N          -7.2398  -23.8559  -50.7168 N.am      18 UNK        -0.5000 
    100 CA        -6.9960  -22.4194  -50.8550 C.3       18 UNK         0.1400 
    101 CB        -7.8123  -21.6674  -49.7882 C.3       18 UNK        -0.1800 
    102 C         -7.3020  -21.9408  -52.2878 C.2       18 UNK         0.5000 
    103 O         -8.0734  -20.9981  -52.4777 O.2       18 UNK        -0.5000 
    104 N         -6.6919  -22.6019  -53.2809 N.am      19 UNK        -0.5000 
    105 CA        -6.7574  -22.2380  -54.6978 C.3       19 UNK         0.1400 
    106 CB        -6.0223  -23.3027  -55.5249 C.3       19 UNK        -0.1800 
    107 C         -6.1364  -20.8476  -54.9119 C.2       19 UNK         0.5000 
    108 O         -5.0188  -20.6183  -54.4480 O.2       19 UNK        -0.5000 
    109 N         -6.8927  -19.9200  -55.5137 N.am      20 UNK        -0.5000 
    110 CA        -6.5549  -18.4929  -55.6472 C.3       20 UNK         0.1400 
    111 CB        -5.3966  -18.3027  -56.6492 C.3       20 UNK        -0.1800 
    112 C         -6.2881  -17.7929  -54.2899 C.2       20 UNK         0.5000 
    113 O         -5.5308  -16.8235  -54.2344 O.2       20 UNK        -0.5000 
    114 N         -6.9115  -18.3180  -53.2232 N.am      21 UNK        -0.5000 
    115 CA        -6.7981  -17.9289  -51.8160 C.3       21 UNK         0.1400 
    116 CB        -7.2061  -16.4552  -51.6044 C.3       21 UNK        -0.1800 
    117 C         -5.4451  -18.2717  -51.1528 C.2       21 UNK         0.5000 
    118 O         -5.2038  -17.7964  -50.0418 O.2       21 UNK        -0.5000 
    119 N         -4.5959  -19.0945  -51.7888 N.am      22 UNK        -0.5000 
    120 CA        -3.2855  -19.4804  -51.2312 C.3       22 UNK         0.1400 
    121 C         -2.7325  -20.8685  -51.6651 C.2       22 UNK         0.5000 
    122 N         -3.4023  -21.6441  -52.5035 N.am      22 UNK        -0.7600 
    123 O         -1.6632  -21.2653  -51.2191 O.2       22 UNK        -0.5000 
    124 C124       -2.2320  -18.3486  -51.3374 C.3       23 UNK        -0.0398 
    125 S125       -1.6336  -18.0432  -53.0329 S.3       23 UNK        -0.2404 
    126 C126       -0.4906  -16.6530  -52.7372 C.3       23 UNK        -0.0205 
    127 H127        7.5527  -14.3081  -46.2545 H         1 UNK         0.0600 
    128 H128        6.5898  -14.7129  -47.6793 H         1 UNK         0.0600 
    129 H129        6.6069  -15.8006  -46.2886 H         1 UNK         0.0600 
    130 H130        4.7440  -13.4785  -47.7952 H         1 UNK         0.3000 
    131 H131        2.9101  -13.2123  -45.5492 H         1 UNK         0.0600 
    132 H132        1.4372  -12.0953  -47.2487 H         1 UNK         0.0800 
    133 H133        2.6878  -12.2467  -48.4501 H         1 UNK         0.0800 
    134 H134        2.8758  -14.0640  -49.9756 H         1 UNK         0.0800 
    135 H135        3.7031  -15.1380  -48.8721 H         1 UNK         0.0800 
    136 H136        0.6708  -14.8997  -51.0429 H         1 UNK         0.1150 
    137 H137        0.8979  -19.0092  -52.2517 H         1 UNK         0.1150 
    138 H138        3.5686  -17.5034  -49.2614 H         1 UNK         0.1150 
    139 H139        2.7031  -20.3819  -51.5294 H         1 UNK         0.0800 
    140 H140        4.0632  -19.5981  -50.7760 H         1 UNK         0.0800 
    141 H141        0.9209  -21.6661  -50.4134 H         1 UNK         0.0800 
    142 H142        0.2839  -20.4841  -49.2961 H         1 UNK         0.0800 
    143 H143        1.4539  -23.1852  -48.4552 H         1 UNK         0.0600 
    144 H144        0.6804  -20.9982  -46.8433 H         1 UNK         0.3000 
    145 H145       -0.1795  -22.8868  -43.9012 H         1 UNK         0.0600 
    146 H146        1.4527  -21.2640  -42.9620 H         1 UNK         0.0600 
    147 H147        2.2700  -22.5539  -43.8319 H         1 UNK         0.0600 
    148 H148        2.1115  -20.9675  -44.5689 H         1 UNK         0.0600 
    149 H149       -0.2722  -20.0886  -44.4519 H         1 UNK         0.3000 
    150 H150       -3.6471  -20.0370  -45.7015 H         1 UNK         0.0600 
    151 H151       -3.8200  -19.9937  -43.2181 H         1 UNK         0.0600 
    152 H152       -3.8285  -18.3639  -43.8772 H         1 UNK         0.0600 
    153 H153       -2.3732  -18.9989  -43.1148 H         1 UNK         0.0600 
    154 H154       -1.7690  -17.9381  -45.3073 H         1 UNK         0.3000 
    155 H155       -0.1333  -18.1554  -48.4787 H         1 UNK         0.0600 
    156 H156       -1.9163  -15.9921  -47.2470 H         1 UNK         0.0600 
    157 H157       -0.8655  -15.8522  -48.6544 H         1 UNK         0.0600 
    158 H158       -2.3114  -16.8430  -48.7262 H         1 UNK         0.0600 
    159 H159        0.2351  -16.4175  -46.2478 H         1 UNK         0.3000 
    160 H160        2.5846  -18.4847  -44.4807 H         1 UNK         0.0600 
    161 H161        2.9827  -15.8391  -45.9406 H         1 UNK         0.0600 
    162 H162        3.8489  -17.3186  -46.3334 H         1 UNK         0.0600 
    163 H163        4.0476  -16.5778  -44.7519 H         1 UNK         0.0600 
    164 H164        1.5086  -15.8418  -44.0268 H         1 UNK         0.3000 
    165 H165       -1.1835  -16.9427  -41.9495 H         1 UNK         0.0600 
    166 H166       -0.0709  -15.4340  -40.3365 H         1 UNK         0.0600 
    167 H167        0.8416  -16.9281  -40.4744 H         1 UNK         0.0600 
    168 H168        1.4216  -15.4724  -41.2754 H         1 UNK         0.0600 
    169 H169       -0.4210  -14.3226  -42.5509 H         1 UNK         0.3000 
    170 H170       -1.3695  -13.6569  -45.5773 H         1 UNK         0.0600 
    171 H171       -3.7122  -14.4543  -45.5594 H         1 UNK         0.0600 
    172 H172       -3.9467  -13.8353  -43.9291 H         1 UNK         0.0600 
    173 H173       -3.6668  -12.7246  -45.2706 H         1 UNK         0.0600 
    174 H174       -2.1603  -12.3871  -43.0401 H         1 UNK         0.3000 
    175 H175       -1.0692  -10.4240  -42.5698 H         1 UNK         0.0600 
    176 H176        1.4376  -11.9288  -41.5942 H         1 UNK         0.0600 
    177 H177        0.6023  -10.6577  -40.7053 H         1 UNK         0.0600 
    178 H178       -0.1991  -12.1918  -40.9992 H         1 UNK         0.0600 
    179 H179        1.3949  -10.2846  -44.0741 H         1 UNK         0.3000 
    180 H180        1.3968   -7.4436  -44.6827 H         1 UNK         0.0600 
    181 H181        2.8362   -6.7773  -42.0626 H         1 UNK         0.0600 
    182 H182        1.5280   -5.8684  -42.8041 H         1 UNK         0.0600 
    183 H183        3.0917   -5.9465  -43.5969 H         1 UNK         0.0600 
    184 H184        3.1211   -8.6985  -45.2632 H         1 UNK         0.3000 
    185 H185        5.4175   -9.3139  -45.1137 H         1 UNK         0.0600 
    186 H186        6.7262   -9.4365  -42.9876 H         1 UNK         0.0600 
    187 H187        6.0219  -11.0114  -42.6358 H         1 UNK         0.0600 
    188 H188        7.0660  -10.8015  -44.0398 H         1 UNK         0.0600 
    189 H189        4.8350  -12.0612  -44.4686 H         1 UNK         0.3000 
    190 H190       -1.8063  -21.7248  -47.9898 H         1 UNK         0.3000 
    191 H191       -3.2093  -23.4516  -49.7252 H         1 UNK         0.0600 
    192 H192       -4.1627  -21.9937  -47.2036 H         1 UNK         0.0600 
    193 H193       -5.2174  -22.7449  -48.3883 H         1 UNK         0.0600 
    194 H194       -4.2136  -21.3801  -48.8523 H         1 UNK         0.0600 
    195 H195       -2.4381  -23.8285  -46.2440 H         1 UNK         0.3000 
    196 H196       -3.7868  -26.3015  -45.8498 H         1 UNK         0.0600 
    197 H197       -2.3885  -26.4400  -43.7944 H         1 UNK         0.0600 
    198 H198       -3.0721  -24.8321  -43.9840 H         1 UNK         0.0600 
    199 H199       -1.3776  -25.1207  -44.3689 H         1 UNK         0.0600 
    200 H200       -0.4008  -25.5803  -46.8158 H         1 UNK         0.3000 
    201 H201        0.4986  -28.2761  -46.9643 H         1 UNK         0.0600 
    202 H202        2.0376  -26.3403  -46.8227 H         1 UNK         0.0600 
    203 H203        1.5132  -25.7686  -48.4044 H         1 UNK         0.0600 
    204 H204        2.3882  -27.2881  -48.2606 H         1 UNK         0.0600 
    205 H205       -0.9442  -26.1204  -49.4418 H         1 UNK         0.3000 
    206 H206       -0.8610  -28.0216  -51.5988 H         1 UNK         0.0600 
    207 H207       -1.0022  -25.5674  -51.9582 H         1 UNK         0.0600 
    208 H208       -2.3903  -26.3607  -52.6886 H         1 UNK         0.0600 
    209 H209       -2.5707  -25.5137  -51.1578 H         1 UNK         0.0600 
    210 H210       -2.9371  -27.6746  -48.8791 H         1 UNK         0.3000 
    211 H211       -4.7122  -28.6547  -48.0598 H         1 UNK         0.0600 
    212 H212       -4.5466  -30.7680  -50.2707 H         1 UNK         0.0600 
    213 H213       -5.4063  -30.9053  -48.7446 H         1 UNK         0.0600 
    214 H214       -3.6527  -30.8229  -48.7510 H         1 UNK         0.0600 
    215 H215       -4.9218  -26.5289  -50.0511 H         1 UNK         0.3000 
    216 H216       -7.7254  -26.2941  -50.2564 H         1 UNK         0.0600 
    217 H217       -6.2552  -26.8659  -52.9030 H         1 UNK         0.0600 
    218 H218       -7.8767  -26.1910  -52.7933 H         1 UNK         0.0600 
    219 H219       -7.5716  -27.8219  -52.2260 H         1 UNK         0.0600 
    220 H220       -8.1782  -24.1234  -50.4554 H         1 UNK         0.3000 
    221 H221       -5.9406  -22.2065  -50.6733 H         1 UNK         0.0600 
    222 H222       -7.5692  -22.0171  -48.7849 H         1 UNK         0.0600 
    223 H223       -8.8852  -21.7961  -49.9359 H         1 UNK         0.0600 
    224 H224       -7.6007  -20.5980  -49.8155 H         1 UNK         0.0600 
    225 H225       -6.0512  -23.3441  -53.0285 H         1 UNK         0.3000 
    226 H226       -7.8061  -22.2197  -55.0009 H         1 UNK         0.0600 
    227 H227       -6.4724  -24.2865  -55.3905 H         1 UNK         0.0600 
    228 H228       -6.0645  -23.0675  -56.5891 H         1 UNK         0.0600 
    229 H229       -4.9702  -23.3747  -55.2454 H         1 UNK         0.0600 
    230 H230       -7.8131  -20.1822  -55.8393 H         1 UNK         0.3000 
    231 H231       -7.4369  -18.0073  -56.0670 H         1 UNK         0.0600 
    232 H232       -4.4569  -18.6982  -56.2622 H         1 UNK         0.0600 
    233 H233       -5.2390  -17.2465  -56.8701 H         1 UNK         0.0600 
    234 H234       -5.6069  -18.8022  -57.5948 H         1 UNK         0.0600 
    235 H235       -7.4857  -19.1398  -53.3751 H         1 UNK         0.3000 
    236 H236       -7.5362  -18.5373  -51.2923 H         1 UNK         0.0600 
    237 H237       -7.3151  -16.2283  -50.5433 H         1 UNK         0.0600 
    238 H238       -6.4641  -15.7655  -52.0069 H         1 UNK         0.0600 
    239 H239       -8.1625  -16.2371  -52.0795 H         1 UNK         0.0600 
    240 H240       -4.8165  -19.4390  -52.7153 H         1 UNK         0.3000 
    241 H241       -3.4483  -19.6276  -50.1626 H         1 UNK         0.0600 
    242 H242       -3.0058  -22.5412  -52.7283 H         1 UNK         0.3800 
    243 H243       -4.1514  -21.2771  -53.0844 H         1 UNK         0.3800 
    244 H244       -1.3818  -18.5873  -50.6974 H         1 UNK         0.0800 
    245 H245       -2.6399  -17.4153  -50.9505 H         1 UNK         0.0800 
    246 H246       -0.0409  -16.3667  -53.6885 H         1 UNK         0.0800 
    247 H247       -1.0810  -15.7972  -52.4059 H         1 UNK         0.0800 
@<TRIPOS>BOND
     1    1    2 1    
     2    1  127 1    
     3    1  128 1    
     4    1  129 1    
     5    2    3 2    
     6    2    4 am   BACKBONE|DICT|INTERRES
     7    4    5 1    
     8    4  130 1    
     9    5    6 1    
    10    5   65 1    
    11    5  131 1    
    12    6    7 1    
    13    6  132 1    
    14    6  133 1    
    15    7    8 1    
    16    8    9 1    
    17    8  134 1    
    18    8  135 1    
    19    9   10 ar   
    20    9   14 ar   
    21   10   11 ar   
    22   10  136 1    
    23   11   12 ar   
    24   11  126 1    
    25   12   13 ar   
    26   12  137 1    
    27   13   14 ar   
    28   13   15 1    
    29   14  138 1    
    30   15   16 1    
    31   15  139 1    
    32   15  140 1    
    33   16   17 1    
    34   17   18 1    
    35   17  141 1    
    36   17  142 1    
    37   18   19 1    
    38   18   67 1    
    39   18  143 1    
    40   19   20 am   BACKBONE|DICT|INTERRES
    41   19  144 1    
    42   20   21 2    
    43   20   22 1    
    44   22   23 1    
    45   22   24 1    
    46   22  145 1    
    47   23  146 1    
    48   23  147 1    
    49   23  148 1    
    50   24   25 am   BACKBONE|DICT|INTERRES
    51   24  149 1    
    52   25   26 2    
    53   25   27 1    
    54   27   28 1    
    55   27   29 1    
    56   27  150 1    
    57   28  151 1    
    58   28  152 1    
    59   28  153 1    
    60   29   30 am   BACKBONE|DICT|INTERRES
    61   29  154 1    
    62   30   31 2    
    63   30   32 1    
    64   32   33 1    
    65   32   34 1    
    66   32  155 1    
    67   33  156 1    
    68   33  157 1    
    69   33  158 1    
    70   34   35 am   BACKBONE|DICT|INTERRES
    71   34  159 1    
    72   35   36 2    
    73   35   37 1    
    74   37   38 1    
    75   37   39 1    
    76   37  160 1    
    77   38  161 1    
    78   38  162 1    
    79   38  163 1    
    80   39   40 am   BACKBONE|DICT|INTERRES
    81   39  164 1    
    82   40   41 2    
    83   40   42 1    
    84   42   43 1    
    85   42   44 1    
    86   42  165 1    
    87   43  166 1    
    88   43  167 1    
    89   43  168 1    
    90   44   45 am   BACKBONE|DICT|INTERRES
    91   44  169 1    
    92   45   46 2    
    93   45   47 1    
    94   47   48 1    
    95   47   49 1    
    96   47  170 1    
    97   48  171 1    
    98   48  172 1    
    99   48  173 1    
   100   49   50 am   BACKBONE|DICT|INTERRES
   101   49  174 1    
   102   50   51 2    
   103   50   52 1    
   104   52   53 1    
   105   52   54 1    
   106   52  175 1    
   107   53  176 1    
   108   53  177 1    
   109   53  178 1    
   110   54   55 am   BACKBONE|DICT|INTERRES
   111   54  179 1    
   112   55   56 2    
   113   55   57 1    
   114   57   58 1    
   115   57   59 1    
   116   57  180 1    
   117   58  181 1    
   118   58  182 1    
   119   58  183 1    
   120   59   60 am   BACKBONE|DICT|INTERRES
   121   59  184 1    
   122   60   61 2    
   123   60   62 1    
   124   62   63 1    
   125   62   64 1    
   126   62  185 1    
   127   63  186 1    
   128   63  187 1    
   129   63  188 1    
   130   64   65 am   BACKBONE|DICT|INTERRES
   131   64  189 1    
   132   65   66 2    
   133   67   68 2    
   134   67   69 am   BACKBONE|DICT|INTERRES
   135   69   70 1    
   136   69  190 1    
   137   70   71 1    
   138   70   72 1    
   139   70  191 1    
   140   71  192 1    
   141   71  193 1    
   142   71  194 1    
   143   72   73 2    
   144   72   74 am   BACKBONE|DICT|INTERRES
   145   74   75 1    
   146   74  195 1    
   147   75   76 1    
   148   75   77 1    
   149   75  196 1    
   150   76  197 1    
   151   76  198 1    
   152   76  199 1    
   153   77   78 2    
   154   77   79 am   BACKBONE|DICT|INTERRES
   155   79   80 1    
   156   79  200 1    
   157   80   81 1    
   158   80   82 1    
   159   80  201 1    
   160   81  202 1    
   161   81  203 1    
   162   81  204 1    
   163   82   83 2    
   164   82   84 am   BACKBONE|DICT|INTERRES
   165   84   85 1    
   166   84  205 1    
   167   85   86 1    
   168   85   87 1    
   169   85  206 1    
   170   86  207 1    
   171   86  208 1    
   172   86  209 1    
   173   87   88 2    
   174   87   89 am   BACKBONE|DICT|INTERRES
   175   89   90 1    
   176   89  210 1    
   177   90   91 1    
   178   90   92 1    
   179   90  211 1    
   180   91  212 1    
   181   91  213 1    
   182   91  214 1    
   183   92   93 2    
   184   92   94 am   BACKBONE|DICT|INTERRES
   185   94   95 1    
   186   94  215 1    
   187   95   96 1    
   188   95   97 1    
   189   95  216 1    
   190   96  217 1    
   191   96  218 1    
   192   96  219 1    
   193   97   98 2    
   194   97   99 am   BACKBONE|DICT|INTERRES
   195   99  100 1    
   196   99  220 1    
   197  100  101 1    
   198  100  102 1    
   199  100  221 1    
   200  101  222 1    
   201  101  223 1    
   202  101  224 1    
   203  102  103 2    
   204  102  104 am   BACKBONE|DICT|INTERRES
   205  104  105 1    
   206  104  225 1    
   207  105  106 1    
   208  105  107 1    
   209  105  226 1    
   210  106  227 1    
   211  106  228 1    
   212  106  229 1    
   213  107  108 2    
   214  107  109 am   BACKBONE|DICT|INTERRES
   215  109  110 1    
   216  109  230 1    
   217  110  111 1    
   218  110  112 1    
   219  110  231 1    
   220  111  232 1    
   221  111  233 1    
   222  111  234 1    
   223  112  113 2    
   224  112  114 am   BACKBONE|DICT|INTERRES
   225  114  115 1    
   226  114  235 1    
   227  115  116 1    
   228  115  117 1    
   229  115  236 1    
   230  116  237 1    
   231  116  238 1    
   232  116  239 1    
   233  117  118 2    
   234  117  119 am   BACKBONE|DICT|INTERRES
   235  119  120 1    
   236  119  240 1    
   237  120  121 1    
   238  120  124 1    
   239  120  241 1    
   240  121  122 am   BACKBONE|DICT|INTERRES
   241  121  123 2    
   242  122  242 1    
   243  122  243 1    
   244  124  125 1    
   245  124  244 1    
   246  124  245 1    
   247  125  126 1    
   248  126  246 1    
   249  126  247 1    
@<TRIPOS>SUBSTRUCTURE
     1 UNK         1 GROUP             0       ****    0 ROOT    
