@<TRIPOS>MOLECULE
3R540
247   249    1
SMALL
USER_CHARGES


@<TRIPOS>ATOM
      1 CA          0.6562  -11.5803  -49.0901 C.3       0 UNK        -0.1800 
      2 C          -0.1781  -12.4782  -50.0016 C.2       0 UNK         0.5000 
      3 O          -1.1262  -11.9973  -50.6186 O.2       0 UNK        -0.5000 
      4 N           0.1330  -13.7756  -50.1330 N.am      1 UNK        -0.5000 
      5 CA          1.2030  -14.5036  -49.4351 C.3       1 UNK         0.1400 
      6 C6          1.5624  -15.8253  -50.1552 C.3       23 UNK        -0.0398 
      7 S7          2.2493  -15.5308  -51.8204 S.3       23 UNK        -0.2404 
      8 C8          3.8594  -16.3788  -51.7149 C.3       23 UNK        -0.0205 
      9 C9          3.6953  -17.8878  -51.6053 C.ar      23 UNK        -0.0193 
     10 C10         3.1755  -18.6110  -52.6820 C.ar      23 UNK        -0.1150 
     11 C11         2.9862  -19.9914  -52.5868 C.ar      23 UNK        -0.0193 
     12 C12         3.3380  -20.6523  -51.4069 C.ar      23 UNK        -0.1150 
     13 C13         3.8513  -19.9412  -50.3182 C.ar      23 UNK        -0.0193 
     14 C14         4.0418  -18.5598  -50.4286 C.ar      23 UNK        -0.1150 
     15 C15         4.1573  -20.6692  -49.0144 C.3       23 UNK        -0.0205 
     16 S16         3.1941  -20.0414  -47.5946 S.3       23 UNK        -0.2404 
     17 C17         1.4742  -20.0731  -48.2114 C.3       23 UNK        -0.0398 
     18 CA          0.6351  -21.2479  -47.6555 C.3       11 UNK         0.1400 
     19 N           0.5086  -21.2086  -46.1943 N.am      11 UNK        -0.5000 
     20 C          -0.1079  -22.1420  -45.4518 C.2       10 UNK         0.5000 
     21 O          -0.5948  -23.1714  -45.9159 O.2       10 UNK        -0.5000 
     22 CA         -0.2558  -21.8677  -43.9442 C.3       10 UNK         0.1400 
     23 CB          0.8844  -22.5395  -43.1662 C.3       10 UNK        -0.1800 
     24 N          -0.3206  -20.4414  -43.6175 N.am      10 UNK        -0.5000 
     25 C          -1.2960  -19.6144  -44.0291 C.2       9 UNK         0.5000 
     26 O          -2.2544  -19.9884  -44.7083 O.2       9 UNK        -0.5000 
     27 CA         -1.1773  -18.1178  -43.6679 C.3       9 UNK         0.1400 
     28 CB         -2.1105  -17.7683  -42.5003 C.3       9 UNK        -0.1800 
     29 N           0.1807  -17.6721  -43.3423 N.am      9 UNK        -0.5000 
     30 C           1.2341  -17.7254  -44.1696 C.2       8 UNK         0.5000 
     31 O           1.1535  -18.0939  -45.3413 O.2       8 UNK        -0.5000 
     32 CA          2.6103  -17.3664  -43.5718 C.3       8 UNK         0.1400 
     33 CB          2.9346  -15.8842  -43.7947 C.3       8 UNK        -0.1800 
     34 N           2.7590  -17.6763  -42.1433 N.am      8 UNK        -0.5000 
     35 C           2.6234  -18.8988  -41.6035 C.2       7 UNK         0.5000 
     36 O           2.2616  -19.8803  -42.2502 O.2       7 UNK        -0.5000 
     37 CA          2.9731  -19.0554  -40.1133 C.3       7 UNK         0.1400 
     38 CB          3.2563  -20.5143  -39.7055 C.3       7 UNK        -0.1800 
     39 N           4.1240  -18.2170  -39.8009 N.am      7 UNK        -0.5000 
     40 C           4.3320  -17.5842  -38.6438 C.2       6 UNK         0.5000 
     41 O           3.6491  -17.7541  -37.6325 O.2       6 UNK        -0.5000 
     42 CA          5.4642  -16.5360  -38.6248 C.3       6 UNK         0.1400 
     43 CB          6.5106  -16.7137  -39.7490 C.3       6 UNK        -0.1800 
     44 N           4.9158  -15.1758  -38.6476 N.am      6 UNK        -0.5000 
     45 C           4.0676  -14.6626  -39.5516 C.2       5 UNK         0.5000 
     46 O           3.6798  -15.2563  -40.5627 O.2       5 UNK        -0.5000 
     47 CA          3.5792  -13.2285  -39.2826 C.3       5 UNK         0.1400 
     48 CB          4.3159  -12.2307  -40.1892 C.3       5 UNK        -0.1800 
     49 N           2.1416  -13.1033  -39.5103 N.am      5 UNK        -0.5000 
     50 C           1.1848  -13.7069  -38.7901 C.2       4 UNK         0.5000 
     51 O           1.4100  -14.3751  -37.7803 O.2       4 UNK        -0.5000 
     52 CA         -0.2720  -13.5222  -39.2643 C.3       4 UNK         0.1400 
     53 CB         -1.0169  -12.5397  -38.3469 C.3       4 UNK        -0.1800 
     54 N          -0.3683  -13.0432  -40.6461 N.am      4 UNK        -0.5000 
     55 C          -0.1720  -13.8089  -41.7253 C.2       3 UNK         0.5000 
     56 O           0.0451  -15.0235  -41.6808 O.2       3 UNK        -0.5000 
     57 CA         -0.1945  -13.0836  -43.0770 C.3       3 UNK         0.1400 
     58 CB          1.1089  -12.2885  -43.2967 C.3       3 UNK        -0.1800 
     59 N          -0.3756  -14.0792  -44.1256 N.am      3 UNK        -0.5000 
     60 C          -0.7259  -13.8304  -45.3894 C.2       2 UNK         0.5000 
     61 O          -0.9156  -12.7003  -45.8450 O.2       2 UNK        -0.5000 
     62 CA         -0.9516  -15.0604  -46.2834 C.3       2 UNK         0.1400 
     63 CB         -2.4468  -15.4039  -46.3468 C.3       2 UNK        -0.1800 
     64 N          -0.4481  -14.8491  -47.6381 N.am      2 UNK        -0.5000 
     65 C           0.8514  -14.7891  -47.9606 C.2       1 UNK         0.5000 
     66 O           1.7631  -14.9421  -47.1493 O.2       1 UNK        -0.5000 
     67 C          -0.7491  -21.2568  -48.3336 C.2       11 UNK         0.5000 
     68 O          -1.0154  -22.1075  -49.1830 O.2       11 UNK        -0.5000 
     69 N          -1.6141  -20.3253  -47.9091 N.am      12 UNK        -0.5000 
     70 CA         -2.9832  -20.1926  -48.3964 C.3       12 UNK         0.1400 
     71 CB         -3.5647  -18.8462  -47.9472 C.3       12 UNK        -0.1800 
     72 C          -3.8789  -21.3554  -47.9498 C.2       12 UNK         0.5000 
     73 O          -4.6794  -21.8334  -48.7521 O.2       12 UNK        -0.5000 
     74 N          -3.7089  -21.8059  -46.6986 N.am      13 UNK        -0.5000 
     75 CA         -4.4395  -22.9365  -46.1241 C.3       13 UNK         0.1400 
     76 CB         -4.1410  -23.0321  -44.6210 C.3       13 UNK        -0.1800 
     77 C          -4.1311  -24.2722  -46.8267 C.2       13 UNK         0.5000 
     78 O          -5.0519  -25.0538  -47.0665 O.2       13 UNK        -0.5000 
     79 N          -2.8519  -24.5025  -47.1565 N.am      14 UNK        -0.5000 
     80 CA         -2.3876  -25.6811  -47.8880 C.3       14 UNK         0.1400 
     81 CB         -0.8570  -25.7759  -47.7950 C.3       14 UNK        -0.1800 
     82 C          -2.8394  -25.6793  -49.3584 C.2       14 UNK         0.5000 
     83 O          -3.2316  -26.7280  -49.8716 O.2       14 UNK        -0.5000 
     84 N          -2.7740  -24.5081  -50.0062 N.am      15 UNK        -0.5000 
     85 CA         -3.1882  -24.3094  -51.3939 C.3       15 UNK         0.1400 
     86 CB         -2.6629  -22.9527  -51.8811 C.3       15 UNK        -0.1800 
     87 C          -4.7125  -24.4031  -51.5807 C.2       15 UNK         0.5000 
     88 O          -5.1706  -25.0819  -52.5010 O.2       15 UNK        -0.5000 
     89 N          -5.4584  -23.7170  -50.7018 N.am      16 UNK        -0.5000 
     90 CA         -6.9130  -23.5408  -50.7095 C.3       16 UNK         0.1400 
     91 CB         -7.6230  -24.8949  -50.4942 C.3       16 UNK        -0.1800 
     92 C          -7.4204  -22.7991  -51.9660 C.2       16 UNK         0.5000 
     93 O          -6.6270  -22.3163  -52.7796 O.2       16 UNK        -0.5000 
     94 N          -8.7490  -22.7130  -52.1149 N.am      17 UNK        -0.5000 
     95 CA         -9.4159  -22.0990  -53.2687 C.3       17 UNK         0.1400 
     96 CB        -10.9272  -22.0351  -53.0040 C.3       17 UNK        -0.1800 
     97 C          -9.1293  -22.8284  -54.5969 C.2       17 UNK         0.5000 
     98 O          -9.1177  -22.1900  -55.6495 O.2       17 UNK        -0.5000 
     99 N          -8.8510  -24.1379  -54.5133 N.am      18 UNK        -0.5000 
    100 CA        -8.4815  -25.0147  -55.6267 C.3       18 UNK         0.1400 
    101 CB        -8.3647  -26.4541  -55.1023 C.3       18 UNK        -0.1800 
    102 C         -7.1842  -24.6029  -56.3522 C.2       18 UNK         0.5000 
    103 O         -7.0465  -24.8931  -57.5412 O.2       18 UNK        -0.5000 
    104 N         -6.2761  -23.9228  -55.6404 N.am      19 UNK        -0.5000 
    105 CA        -5.0401  -23.3548  -56.1779 C.3       19 UNK         0.1400 
    106 CB        -3.8343  -24.1429  -55.6381 C.3       19 UNK        -0.1800 
    107 C         -4.9577  -21.8446  -55.8855 C.2       19 UNK         0.5000 
    108 O         -3.8567  -21.3069  -55.7582 O.2       19 UNK        -0.5000 
    109 N         -6.1256  -21.1871  -55.7873 N.am      20 UNK        -0.5000 
    110 CA        -6.3329  -19.7399  -55.6458 C.3       20 UNK         0.1400 
    111 CB        -6.0597  -19.0447  -56.9951 C.3       20 UNK        -0.1800 
    112 C         -5.5486  -19.0977  -54.4804 C.2       20 UNK         0.5000 
    113 O         -4.9846  -18.0123  -54.6379 O.2       20 UNK        -0.5000 
    114 N         -5.4835  -19.8075  -53.3436 N.am      21 UNK        -0.5000 
    115 CA        -4.7436  -19.4582  -52.1244 C.3       21 UNK         0.1400 
    116 CB        -5.3970  -18.2478  -51.4269 C.3       21 UNK        -0.1800 
    117 C         -3.2262  -19.2695  -52.3545 C.2       21 UNK         0.5000 
    118 O         -2.5777  -18.5333  -51.6102 O.2       21 UNK        -0.5000 
    119 N         -2.6916  -19.9427  -53.3824 N.am      22 UNK        -0.5000 
    120 CA        -1.3084  -19.8489  -53.8696 C.3       22 UNK         0.1400 
    121 C         -0.9831  -18.5230  -54.6255 C.2       22 UNK         0.5000 
    122 N         -1.9636  -17.6985  -54.9802 N.am      22 UNK        -0.7600 
    123 O          0.1732  -18.2470  -54.9308 O.2       22 UNK        -0.5000 
    124 C124       -0.2500  -20.2293  -52.7873 C.3       23 UNK        -0.0398 
    125 S125        0.8298  -21.6076  -53.3090 S.3       23 UNK        -0.2404 
    126 C126        2.3813  -20.7599  -53.7534 C.3       23 UNK        -0.0205 
    127 H127        0.3010  -10.5509  -49.1413 H         1 UNK         0.0600 
    128 H128        1.7033  -11.5826  -49.3916 H         1 UNK         0.0600 
    129 H129        0.5864  -11.9010  -48.0514 H         1 UNK         0.0600 
    130 H130       -0.4115  -14.3332  -50.7753 H         1 UNK         0.3000 
    131 H131        2.1001  -13.8818  -49.4302 H         1 UNK         0.0600 
    132 H132        2.2870  -16.3921  -49.5677 H         1 UNK         0.0800 
    133 H133        0.6855  -16.4680  -50.2518 H         1 UNK         0.0800 
    134 H134        4.4263  -15.9817  -50.8713 H         1 UNK         0.0800 
    135 H135        4.4391  -16.1483  -52.6097 H         1 UNK         0.0800 
    136 H136        2.8944  -18.0900  -53.5871 H         1 UNK         0.1150 
    137 H137        3.1802  -21.7190  -51.3296 H         1 UNK         0.1150 
    138 H138        4.4327  -18.0071  -49.5857 H         1 UNK         0.1150 
    139 H139        3.9669  -21.7388  -49.1151 H         1 UNK         0.0800 
    140 H140        5.2203  -20.5671  -48.7926 H         1 UNK         0.0800 
    141 H141        1.4693  -20.0944  -49.3011 H         1 UNK         0.0800 
    142 H142        1.0194  -19.1189  -47.9389 H         1 UNK         0.0800 
    143 H143        1.1353  -22.1821  -47.9196 H         1 UNK         0.0600 
    144 H144        0.8754  -20.3834  -45.7368 H         1 UNK         0.3000 
    145 H145       -1.1925  -22.3177  -43.6137 H         1 UNK         0.0600 
    146 H146        0.7957  -22.3585  -42.0949 H         1 UNK         0.0600 
    147 H147        0.8725  -23.6197  -43.3162 H         1 UNK         0.0600 
    148 H148        1.8605  -22.1772  -43.4906 H         1 UNK         0.0600 
    149 H149        0.4642  -20.0676  -43.0927 H         1 UNK         0.3000 
    150 H150       -1.5097  -17.5608  -44.5439 H         1 UNK         0.0600 
    151 H151       -3.1359  -18.0745  -42.7122 H         1 UNK         0.0600 
    152 H152       -2.1267  -16.6941  -42.3153 H         1 UNK         0.0600 
    153 H153       -1.8026  -18.2637  -41.5787 H         1 UNK         0.0600 
    154 H154        0.3325  -17.3284  -42.4029 H         1 UNK         0.3000 
    155 H155        3.3525  -17.9583  -44.1113 H         1 UNK         0.0600 
    156 H156        2.2689  -15.2437  -43.2189 H         1 UNK         0.0600 
    157 H157        2.8346  -15.6108  -44.8447 H         1 UNK         0.0600 
    158 H158        3.9572  -15.6547  -43.4950 H         1 UNK         0.0600 
    159 H159        3.0248  -16.8985  -41.5444 H         1 UNK         0.3000 
    160 H160        2.1033  -18.7008  -39.5565 H         1 UNK         0.0600 
    161 H161        4.1021  -20.9261  -40.2572 H         1 UNK         0.0600 
    162 H162        2.3928  -21.1517  -39.8999 H         1 UNK         0.0600 
    163 H163        3.4805  -20.5909  -38.6416 H         1 UNK         0.0600 
    164 H164        4.7239  -17.9922  -40.5827 H         1 UNK         0.3000 
    165 H165        5.9798  -16.6553  -37.6708 H         1 UNK         0.0600 
    166 H166        7.3394  -16.0181  -39.6173 H         1 UNK         0.0600 
    167 H167        6.9329  -17.7193  -39.7370 H         1 UNK         0.0600 
    168 H168        6.0938  -16.5380  -40.7412 H         1 UNK         0.0600 
    169 H169        5.1504  -14.6096  -37.8443 H         1 UNK         0.3000 
    170 H170        3.7811  -12.9684  -38.2414 H         1 UNK         0.0600 
    171 H171        5.3939  -12.2826  -40.0313 H         1 UNK         0.0600 
    172 H172        4.1289  -12.4329  -41.2450 H         1 UNK         0.0600 
    173 H173        4.0066  -11.2059  -39.9832 H         1 UNK         0.0600 
    174 H174        1.8620  -12.5975  -40.3357 H         1 UNK         0.3000 
    175 H175       -0.7647  -14.4945  -39.1947 H         1 UNK         0.0600 
    176 H176       -0.5702  -11.5450  -38.3743 H         1 UNK         0.0600 
    177 H177       -2.0640  -12.4467  -38.6357 H         1 UNK         0.0600 
    178 H178       -0.9966  -12.8799  -37.3106 H         1 UNK         0.0600 
    179 H179       -0.5531  -12.0575  -40.7667 H         1 UNK         0.3000 
    180 H180       -1.0477  -12.4022  -43.0882 H         1 UNK         0.0600 
    181 H181        1.9865  -12.9347  -43.2829 H         1 UNK         0.0600 
    182 H182        1.2462  -11.5349  -42.5208 H         1 UNK         0.0600 
    183 H183        1.1010  -11.7620  -44.2509 H         1 UNK         0.0600 
    184 H184       -0.2716  -15.0306  -43.7947 H         1 UNK         0.3000 
    185 H185       -0.4173  -15.9098  -45.8571 H         1 UNK         0.0600 
    186 H186       -2.6158  -16.3103  -46.9241 H         1 UNK         0.0600 
    187 H187       -2.8545  -15.5738  -45.3494 H         1 UNK         0.0600 
    188 H188       -3.0257  -14.6007  -46.8047 H         1 UNK         0.0600 
    189 H189       -1.1331  -14.6586  -48.3546 H         1 UNK         0.3000 
    190 H190       -1.3365  -19.7059  -47.1619 H         1 UNK         0.3000 
    191 H191       -2.9571  -20.2042  -49.4869 H         1 UNK         0.0600 
    192 H192       -4.6205  -18.7662  -48.2082 H         1 UNK         0.0600 
    193 H193       -3.0468  -18.0225  -48.4380 H         1 UNK         0.0600 
    194 H194       -3.4851  -18.7088  -46.8683 H         1 UNK         0.0600 
    195 H195       -3.0560  -21.3231  -46.0908 H         1 UNK         0.3000 
    196 H196       -5.5059  -22.7345  -46.2451 H         1 UNK         0.0600 
    197 H197       -3.1013  -23.2994  -44.4364 H         1 UNK         0.0600 
    198 H198       -4.3426  -22.0882  -44.1139 H         1 UNK         0.0600 
    199 H199       -4.7616  -23.7954  -44.1504 H         1 UNK         0.0600 
    200 H200       -2.1376  -23.8389  -46.8693 H         1 UNK         0.3000 
    201 H201       -2.8106  -26.5671  -47.4097 H         1 UNK         0.0600 
    202 H202       -0.5310  -25.8682  -46.7589 H         1 UNK         0.0600 
    203 H203       -0.3729  -24.8956  -48.2204 H         1 UNK         0.0600 
    204 H204       -0.4848  -26.6492  -48.3321 H         1 UNK         0.0600 
    205 H205       -2.3915  -23.7016  -49.5255 H         1 UNK         0.3000 
    206 H206       -2.7289  -25.0890  -52.0054 H         1 UNK         0.0600 
    207 H207       -3.0122  -22.1375  -51.2476 H         1 UNK         0.0600 
    208 H208       -1.5735  -22.9342  -51.8759 H         1 UNK         0.0600 
    209 H209       -2.9867  -22.7392  -52.8990 H         1 UNK         0.0600 
    210 H210       -4.9797  -23.1612  -49.9969 H         1 UNK         0.3000 
    211 H211       -7.1397  -22.8996  -49.8567 H         1 UNK         0.0600 
    212 H212       -8.6829  -24.7609  -50.2774 H         1 UNK         0.0600 
    213 H213       -7.1918  -25.4309  -49.6481 H         1 UNK         0.0600 
    214 H214       -7.5462  -25.5401  -51.3700 H         1 UNK         0.0600 
    215 H215       -9.3495  -23.1114  -51.4076 H         1 UNK         0.3000 
    216 H216       -9.0418  -21.0778  -53.3686 H         1 UNK         0.0600 
    217 H217      -11.3556  -23.0294  -52.8713 H         1 UNK         0.0600 
    218 H218      -11.4497  -21.5608  -53.8359 H         1 UNK         0.0600 
    219 H219      -11.1470  -21.4518  -52.1096 H         1 UNK         0.0600 
    220 H220       -8.8738  -24.5649  -53.5994 H         1 UNK         0.3000 
    221 H221       -9.2910  -24.9788  -56.3585 H         1 UNK         0.0600 
    222 H222       -7.5868  -26.5415  -54.3421 H         1 UNK         0.0600 
    223 H223       -8.1152  -27.1454  -55.9084 H         1 UNK         0.0600 
    224 H224       -9.3035  -26.7933  -54.6643 H         1 UNK         0.0600 
    225 H225       -6.4624  -23.7281  -54.6635 H         1 UNK         0.3000 
    226 H226       -5.0263  -23.4383  -57.2662 H         1 UNK         0.0600 
    227 H227       -3.7760  -24.0899  -54.5534 H         1 UNK         0.0600 
    228 H228       -3.8994  -25.1951  -55.9151 H         1 UNK         0.0600 
    229 H229       -2.8955  -23.7601  -56.0401 H         1 UNK         0.0600 
    230 H230       -6.9753  -21.7308  -55.8793 H         1 UNK         0.3000 
    231 H231       -7.3892  -19.6036  -55.4100 H         1 UNK         0.0600 
    232 H232       -5.0089  -19.1169  -57.2786 H         1 UNK         0.0600 
    233 H233       -6.3170  -17.9857  -56.9522 H         1 UNK         0.0600 
    234 H234       -6.6537  -19.4881  -57.7942 H         1 UNK         0.0600 
    235 H235       -5.9448  -20.7160  -53.3152 H         1 UNK         0.3000 
    236 H236       -4.8410  -20.3151  -51.4560 H         1 UNK         0.0600 
    237 H237       -4.9242  -18.0423  -50.4672 H         1 UNK         0.0600 
    238 H238       -5.3150  -17.3417  -52.0276 H         1 UNK         0.0600 
    239 H239       -6.4543  -18.4291  -51.2340 H         1 UNK         0.0600 
    240 H240       -3.3092  -20.4786  -53.9832 H         1 UNK         0.3000 
    241 H241       -1.2737  -20.6023  -54.6570 H         1 UNK         0.0600 
    242 H242       -1.7374  -16.8532  -55.4790 H         1 UNK         0.3800 
    243 H243       -2.9318  -17.9059  -54.7615 H         1 UNK         0.3800 
    244 H244       -0.7344  -20.5664  -51.8703 H         1 UNK         0.0800 
    245 H245        0.3422  -19.3668  -52.4793 H         1 UNK         0.0800 
    246 H246        3.1021  -21.5021  -54.0984 H         1 UNK         0.0800 
    247 H247        2.1919  -20.0990  -54.6006 H         1 UNK         0.0800 
@<TRIPOS>BOND
     1    1    2 1    
     2    1  127 1    
     3    1  128 1    
     4    1  129 1    
     5    2    3 2    
     6    2    4 am   BACKBONE|DICT|INTERRES
     7    4    5 1    
     8    4  130 1    
     9    5    6 1    
    10    5   65 1    
    11    5  131 1    
    12    6    7 1    
    13    6  132 1    
    14    6  133 1    
    15    7    8 1    
    16    8    9 1    
    17    8  134 1    
    18    8  135 1    
    19    9   10 ar   
    20    9   14 ar   
    21   10   11 ar   
    22   10  136 1    
    23   11   12 ar   
    24   11  126 1    
    25   12   13 ar   
    26   12  137 1    
    27   13   14 ar   
    28   13   15 1    
    29   14  138 1    
    30   15   16 1    
    31   15  139 1    
    32   15  140 1    
    33   16   17 1    
    34   17   18 1    
    35   17  141 1    
    36   17  142 1    
    37   18   19 1    
    38   18   67 1    
    39   18  143 1    
    40   19   20 am   BACKBONE|DICT|INTERRES
    41   19  144 1    
    42   20   21 2    
    43   20   22 1    
    44   22   23 1    
    45   22   24 1    
    46   22  145 1    
    47   23  146 1    
    48   23  147 1    
    49   23  148 1    
    50   24   25 am   BACKBONE|DICT|INTERRES
    51   24  149 1    
    52   25   26 2    
    53   25   27 1    
    54   27   28 1    
    55   27   29 1    
    56   27  150 1    
    57   28  151 1    
    58   28  152 1    
    59   28  153 1    
    60   29   30 am   BACKBONE|DICT|INTERRES
    61   29  154 1    
    62   30   31 2    
    63   30   32 1    
    64   32   33 1    
    65   32   34 1    
    66   32  155 1    
    67   33  156 1    
    68   33  157 1    
    69   33  158 1    
    70   34   35 am   BACKBONE|DICT|INTERRES
    71   34  159 1    
    72   35   36 2    
    73   35   37 1    
    74   37   38 1    
    75   37   39 1    
    76   37  160 1    
    77   38  161 1    
    78   38  162 1    
    79   38  163 1    
    80   39   40 am   BACKBONE|DICT|INTERRES
    81   39  164 1    
    82   40   41 2    
    83   40   42 1    
    84   42   43 1    
    85   42   44 1    
    86   42  165 1    
    87   43  166 1    
    88   43  167 1    
    89   43  168 1    
    90   44   45 am   BACKBONE|DICT|INTERRES
    91   44  169 1    
    92   45   46 2    
    93   45   47 1    
    94   47   48 1    
    95   47   49 1    
    96   47  170 1    
    97   48  171 1    
    98   48  172 1    
    99   48  173 1    
   100   49   50 am   BACKBONE|DICT|INTERRES
   101   49  174 1    
   102   50   51 2    
   103   50   52 1    
   104   52   53 1    
   105   52   54 1    
   106   52  175 1    
   107   53  176 1    
   108   53  177 1    
   109   53  178 1    
   110   54   55 am   BACKBONE|DICT|INTERRES
   111   54  179 1    
   112   55   56 2    
   113   55   57 1    
   114   57   58 1    
   115   57   59 1    
   116   57  180 1    
   117   58  181 1    
   118   58  182 1    
   119   58  183 1    
   120   59   60 am   BACKBONE|DICT|INTERRES
   121   59  184 1    
   122   60   61 2    
   123   60   62 1    
   124   62   63 1    
   125   62   64 1    
   126   62  185 1    
   127   63  186 1    
   128   63  187 1    
   129   63  188 1    
   130   64   65 am   BACKBONE|DICT|INTERRES
   131   64  189 1    
   132   65   66 2    
   133   67   68 2    
   134   67   69 am   BACKBONE|DICT|INTERRES
   135   69   70 1    
   136   69  190 1    
   137   70   71 1    
   138   70   72 1    
   139   70  191 1    
   140   71  192 1    
   141   71  193 1    
   142   71  194 1    
   143   72   73 2    
   144   72   74 am   BACKBONE|DICT|INTERRES
   145   74   75 1    
   146   74  195 1    
   147   75   76 1    
   148   75   77 1    
   149   75  196 1    
   150   76  197 1    
   151   76  198 1    
   152   76  199 1    
   153   77   78 2    
   154   77   79 am   BACKBONE|DICT|INTERRES
   155   79   80 1    
   156   79  200 1    
   157   80   81 1    
   158   80   82 1    
   159   80  201 1    
   160   81  202 1    
   161   81  203 1    
   162   81  204 1    
   163   82   83 2    
   164   82   84 am   BACKBONE|DICT|INTERRES
   165   84   85 1    
   166   84  205 1    
   167   85   86 1    
   168   85   87 1    
   169   85  206 1    
   170   86  207 1    
   171   86  208 1    
   172   86  209 1    
   173   87   88 2    
   174   87   89 am   BACKBONE|DICT|INTERRES
   175   89   90 1    
   176   89  210 1    
   177   90   91 1    
   178   90   92 1    
   179   90  211 1    
   180   91  212 1    
   181   91  213 1    
   182   91  214 1    
   183   92   93 2    
   184   92   94 am   BACKBONE|DICT|INTERRES
   185   94   95 1    
   186   94  215 1    
   187   95   96 1    
   188   95   97 1    
   189   95  216 1    
   190   96  217 1    
   191   96  218 1    
   192   96  219 1    
   193   97   98 2    
   194   97   99 am   BACKBONE|DICT|INTERRES
   195   99  100 1    
   196   99  220 1    
   197  100  101 1    
   198  100  102 1    
   199  100  221 1    
   200  101  222 1    
   201  101  223 1    
   202  101  224 1    
   203  102  103 2    
   204  102  104 am   BACKBONE|DICT|INTERRES
   205  104  105 1    
   206  104  225 1    
   207  105  106 1    
   208  105  107 1    
   209  105  226 1    
   210  106  227 1    
   211  106  228 1    
   212  106  229 1    
   213  107  108 2    
   214  107  109 am   BACKBONE|DICT|INTERRES
   215  109  110 1    
   216  109  230 1    
   217  110  111 1    
   218  110  112 1    
   219  110  231 1    
   220  111  232 1    
   221  111  233 1    
   222  111  234 1    
   223  112  113 2    
   224  112  114 am   BACKBONE|DICT|INTERRES
   225  114  115 1    
   226  114  235 1    
   227  115  116 1    
   228  115  117 1    
   229  115  236 1    
   230  116  237 1    
   231  116  238 1    
   232  116  239 1    
   233  117  118 2    
   234  117  119 am   BACKBONE|DICT|INTERRES
   235  119  120 1    
   236  119  240 1    
   237  120  121 1    
   238  120  124 1    
   239  120  241 1    
   240  121  122 am   BACKBONE|DICT|INTERRES
   241  121  123 2    
   242  122  242 1    
   243  122  243 1    
   244  124  125 1    
   245  124  244 1    
   246  124  245 1    
   247  125  126 1    
   248  126  246 1    
   249  126  247 1    
@<TRIPOS>SUBSTRUCTURE
     1 UNK         1 GROUP             0       ****    0 ROOT    
