@<TRIPOS>MOLECULE
3R540
247   249    1
SMALL
USER_CHARGES


@<TRIPOS>ATOM
      1 CA          0.1020  -11.4025  -41.8715 C.3       0 UNK        -0.1800 
      2 C          -1.0557  -11.1191  -42.8186 C.2       0 UNK         0.5000 
      3 O          -1.1891   -9.9960  -43.3041 O.2       0 UNK        -0.5000 
      4 N          -1.8908  -12.1344  -43.0771 N.am      1 UNK        -0.5000 
      5 CA         -3.0386  -12.0878  -43.9921 C.3       1 UNK         0.1400 
      6 C6         -3.9029  -13.3659  -43.8367 C.3       23 UNK        -0.0398 
      7 S7         -5.4030  -13.4018  -44.8804 S.3       23 UNK        -0.2404 
      8 C8         -6.0749  -15.0569  -44.5004 C.3       23 UNK        -0.0205 
      9 C9         -5.3903  -16.2527  -45.1703 C.ar      23 UNK        -0.0193 
     10 C10        -4.1924  -16.1583  -45.8943 C.ar      23 UNK        -0.1150 
     11 C11        -3.6075  -17.2953  -46.4591 C.ar      23 UNK        -0.0193 
     12 C12        -4.2338  -18.5345  -46.3212 C.ar      23 UNK        -0.1150 
     13 C13        -5.4306  -18.6455  -45.6110 C.ar      23 UNK        -0.0193 
     14 C14        -5.9984  -17.5054  -45.0380 C.ar      23 UNK        -0.1150 
     15 C15        -6.1028  -20.0000  -45.4530 C.3       23 UNK        -0.0205 
     16 S16        -5.7912  -20.7481  -43.8177 S.3       23 UNK        -0.2404 
     17 C17        -3.9671  -20.7537  -43.7095 C.3       23 UNK        -0.0398 
     18 CA         -3.2949  -21.7714  -44.6625 C.3       11 UNK         0.1400 
     19 N          -1.9313  -21.3616  -45.0151 N.am      11 UNK        -0.5000 
     20 C          -1.1399  -21.9725  -45.9112 C.2       10 UNK         0.5000 
     21 O          -1.5063  -22.9300  -46.5924 O.2       10 UNK        -0.5000 
     22 CA          0.3052  -21.4630  -46.0621 C.3       10 UNK         0.1400 
     23 CB          0.4452  -20.6598  -47.3653 C.3       10 UNK        -0.1800 
     24 N           0.7594  -20.6606  -44.9218 N.am      10 UNK        -0.5000 
     25 C           0.9177  -21.1368  -43.6741 C.2       9 UNK         0.5000 
     26 O           0.7349  -22.3180  -43.3781 O.2       9 UNK        -0.5000 
     27 CA          1.2851  -20.1410  -42.5543 C.3       9 UNK         0.1400 
     28 CB          2.7693  -20.2725  -42.1835 C.3       9 UNK        -0.1800 
     29 N           0.9902  -18.7453  -42.8818 N.am      9 UNK        -0.5000 
     30 C          -0.2369  -18.2411  -43.0812 C.2       8 UNK         0.5000 
     31 O          -1.2695  -18.8968  -42.9414 O.2       8 UNK        -0.5000 
     32 CA         -0.3222  -16.7827  -43.5841 C.3       8 UNK         0.1400 
     33 CB         -0.6079  -15.8216  -42.4218 C.3       8 UNK        -0.1800 
     34 N           0.8720  -16.3213  -44.3045 N.am      8 UNK        -0.5000 
     35 C           1.3685  -16.8993  -45.4066 C.2       7 UNK         0.5000 
     36 O           0.8623  -17.8993  -45.9174 O.2       7 UNK        -0.5000 
     37 CA          2.6366  -16.2933  -46.0368 C.3       7 UNK         0.1400 
     38 CB          3.4723  -15.4032  -45.0866 C.3       7 UNK        -0.1800 
     39 N           3.4449  -17.3446  -46.6564 N.am      7 UNK        -0.5000 
     40 C           4.1491  -18.3065  -46.0424 C.2       6 UNK         0.5000 
     41 O           4.3243  -18.3473  -44.8245 O.2       6 UNK        -0.5000 
     42 CA          4.7415  -19.4323  -46.9198 C.3       6 UNK         0.1400 
     43 CB          4.4351  -20.8194  -46.3265 C.3       6 UNK        -0.1800 
     44 N           4.2590  -19.4015  -48.3027 N.am      6 UNK        -0.5000 
     45 C           4.7852  -18.6736  -49.2956 C.2       5 UNK         0.5000 
     46 O           5.7850  -17.9659  -49.1675 O.2       5 UNK        -0.5000 
     47 CA          4.0645  -18.7198  -50.6613 C.3       5 UNK         0.1400 
     48 CB          3.0201  -19.8528  -50.7843 C.3       5 UNK        -0.1800 
     49 N           3.4611  -17.4252  -51.0001 N.am      5 UNK        -0.5000 
     50 C           2.5697  -16.7379  -50.2711 C.2       4 UNK         0.5000 
     51 O           2.0880  -17.1408  -49.2117 O.2       4 UNK        -0.5000 
     52 CA          2.1239  -15.3753  -50.8334 C.3       4 UNK         0.1400 
     53 CB          0.7429  -15.4938  -51.4965 C.3       4 UNK        -0.1800 
     54 N           2.0620  -14.3386  -49.8019 N.am      4 UNK        -0.5000 
     55 C           3.1094  -13.8640  -49.1120 C.2       3 UNK         0.5000 
     56 O           4.2643  -14.2571  -49.2785 O.2       3 UNK        -0.5000 
     57 CA          2.8382  -12.7444  -48.0846 C.3       3 UNK         0.1400 
     58 CB          3.6431  -11.4812  -48.4347 C.3       3 UNK        -0.1800 
     59 N           1.4203  -12.3790  -48.0029 N.am      3 UNK        -0.5000 
     60 C           0.5749  -12.8022  -47.0574 C.2       2 UNK         0.5000 
     61 O           0.8879  -13.5551  -46.1326 O.2       2 UNK        -0.5000 
     62 CA         -0.8746  -12.3190  -47.1780 C.3       2 UNK         0.1400 
     63 CB         -1.6302  -13.1221  -48.2513 C.3       2 UNK        -0.1800 
     64 N          -1.5144  -12.4845  -45.8788 N.am      2 UNK        -0.5000 
     65 C          -2.6016  -11.8316  -45.4551 C.2       1 UNK         0.5000 
     66 O          -3.2283  -11.0295  -46.1500 O.2       1 UNK        -0.5000 
     67 C          -3.3644  -23.2091  -44.1024 C.2       11 UNK         0.5000 
     68 O          -4.3312  -23.9195  -44.3793 O.2       11 UNK        -0.5000 
     69 N          -2.3047  -23.6468  -43.4040 N.am      12 UNK        -0.5000 
     70 CA         -2.1386  -25.0193  -42.9138 C.3       12 UNK         0.1400 
     71 CB         -0.9269  -25.0696  -41.9713 C.3       12 UNK        -0.1800 
     72 C          -1.9885  -26.0619  -44.0428 C.2       12 UNK         0.5000 
     73 O          -2.2413  -27.2444  -43.8119 O.2       12 UNK        -0.5000 
     74 N          -1.6048  -25.6011  -45.2400 N.am      13 UNK        -0.5000 
     75 CA         -1.4993  -26.3792  -46.4706 C.3       13 UNK         0.1400 
     76 CB         -0.1004  -26.1471  -47.0700 C.3       13 UNK        -0.1800 
     77 C          -2.6146  -26.0040  -47.4687 C.2       13 UNK         0.5000 
     78 O          -2.4620  -26.2715  -48.6596 O.2       13 UNK        -0.5000 
     79 N          -3.7016  -25.3758  -46.9895 N.am      14 UNK        -0.5000 
     80 CA         -4.8639  -24.9105  -47.7576 C.3       14 UNK         0.1400 
     81 CB         -5.6551  -26.1052  -48.3307 C.3       14 UNK        -0.1800 
     82 C          -4.4851  -23.8681  -48.8305 C.2       14 UNK         0.5000 
     83 O          -4.8346  -24.0214  -50.0019 O.2       14 UNK        -0.5000 
     84 N          -3.7306  -22.8452  -48.4033 N.am      15 UNK        -0.5000 
     85 CA         -3.1345  -21.7817  -49.2201 C.3       15 UNK         0.1400 
     86 CB         -4.2170  -20.8804  -49.8496 C.3       15 UNK        -0.1800 
     87 C          -2.1340  -22.3570  -50.2406 C.2       15 UNK         0.5000 
     88 O          -2.1727  -21.9994  -51.4193 O.2       15 UNK        -0.5000 
     89 N          -1.2803  -23.2712  -49.7528 N.am      16 UNK        -0.5000 
     90 CA         -0.2850  -24.0446  -50.5039 C.3       16 UNK         0.1400 
     91 CB          0.8602  -23.1251  -50.9792 C.3       16 UNK        -0.1800 
     92 C          -0.9271  -24.8515  -51.6523 C.2       16 UNK         0.5000 
     93 O          -0.5253  -24.7123  -52.8065 O.2       16 UNK        -0.5000 
     94 N          -1.9613  -25.6371  -51.3186 N.am      17 UNK        -0.5000 
     95 CA         -2.8362  -26.3828  -52.2322 C.3       17 UNK         0.1400 
     96 CB         -2.0760  -27.5633  -52.8707 C.3       17 UNK        -0.1800 
     97 C          -3.5144  -25.4621  -53.2709 C.2       17 UNK         0.5000 
     98 O          -3.5704  -25.7894  -54.4575 O.2       17 UNK        -0.5000 
     99 N          -3.9756  -24.3002  -52.7884 N.am      18 UNK        -0.5000 
    100 CA        -4.5629  -23.1735  -53.5166 C.3       18 UNK         0.1400 
    101 CB        -5.8752  -23.5905  -54.2112 C.3       18 UNK        -0.1800 
    102 C         -3.6033  -22.4353  -54.4779 C.2       18 UNK         0.5000 
    103 O         -4.0613  -21.5439  -55.1942 O.2       18 UNK        -0.5000 
    104 N         -2.3020  -22.7656  -54.4777 N.am      19 UNK        -0.5000 
    105 CA        -1.2979  -22.1296  -55.3355 C.3       19 UNK         0.1400 
    106 CB        -0.0411  -23.0078  -55.4173 C.3       19 UNK        -0.1800 
    107 C         -0.9260  -20.7078  -54.8784 C.2       19 UNK         0.5000 
    108 O         -0.5603  -19.8862  -55.7201 O.2       19 UNK        -0.5000 
    109 N         -1.0330  -20.4307  -53.5702 N.am      20 UNK        -0.5000 
    110 CA        -0.8277  -19.0957  -53.0034 C.3       20 UNK         0.1400 
    111 CB        -0.5512  -19.2202  -51.4979 C.3       20 UNK        -0.1800 
    112 C         -2.0401  -18.1798  -53.2557 C.2       20 UNK         0.5000 
    113 O         -1.8740  -16.9638  -53.3404 O.2       20 UNK        -0.5000 
    114 N         -3.2317  -18.7909  -53.3667 N.am      21 UNK        -0.5000 
    115 CA        -4.5413  -18.1937  -53.6661 C.3       21 UNK         0.1400 
    116 CB        -4.5436  -17.5842  -55.0828 C.3       21 UNK        -0.1800 
    117 C         -5.0648  -17.2002  -52.6034 C.2       21 UNK         0.5000 
    118 O         -6.0562  -16.5116  -52.8495 O.2       21 UNK        -0.5000 
    119 N         -4.4064  -17.1497  -51.4411 N.am      22 UNK        -0.5000 
    120 CA        -4.7190  -16.2672  -50.3087 C.3       22 UNK         0.1400 
    121 C         -5.9091  -16.7311  -49.4192 C.2       22 UNK         0.5000 
    122 N         -6.4065  -17.9544  -49.5567 N.am      22 UNK        -0.7600 
    123 O         -6.4169  -15.9500  -48.6204 O.2       22 UNK        -0.5000 
    124 C124       -3.4441  -15.9477  -49.4848 C.3       23 UNK        -0.0398 
    125 S125       -2.4816  -17.4250  -48.9936 S.3       23 UNK        -0.2404 
    126 C126       -2.2858  -17.1955  -47.2009 C.3       23 UNK        -0.0205 
    127 H127        1.0513  -11.2368  -42.3810 H         1 UNK         0.0600 
    128 H128        0.0875  -12.4299  -41.5069 H         1 UNK         0.0600 
    129 H129        0.0547  -10.7357  -41.0106 H         1 UNK         0.0600 
    130 H130       -1.7341  -13.0181  -42.6163 H         1 UNK         0.3000 
    131 H131       -3.6532  -11.2364  -43.6913 H         1 UNK         0.0600 
    132 H132       -3.3007  -14.2526  -44.0345 H         1 UNK         0.0800 
    133 H133       -4.2270  -13.4558  -42.7988 H         1 UNK         0.0800 
    134 H134       -6.0663  -15.2034  -43.4195 H         1 UNK         0.0800 
    135 H135       -7.1241  -15.0556  -44.7994 H         1 UNK         0.0800 
    136 H136       -3.7029  -15.2067  -46.0307 H         1 UNK         0.1150 
    137 H137       -3.7825  -19.4116  -46.7626 H         1 UNK         0.1150 
    138 H138       -6.9204  -17.5969  -44.4808 H         1 UNK         0.1150 
    139 H139       -7.1797  -19.8843  -45.5839 H         1 UNK         0.0800 
    140 H140       -5.7811  -20.6821  -46.2409 H         1 UNK         0.0800 
    141 H141       -3.6768  -20.9364  -42.6732 H         1 UNK         0.0800 
    142 H142       -3.6187  -19.7428  -43.9191 H         1 UNK         0.0800 
    143 H143       -3.8467  -21.7783  -45.6028 H         1 UNK         0.0600 
    144 H144       -1.5507  -20.5827  -44.4920 H         1 UNK         0.3000 
    145 H145        0.9542  -22.3383  -46.1311 H         1 UNK         0.0600 
    146 H146        0.2599  -21.2900  -48.2351 H         1 UNK         0.0600 
    147 H147       -0.2633  -19.8327  -47.4089 H         1 UNK         0.0600 
    148 H148        1.4449  -20.2420  -47.4752 H         1 UNK         0.0600 
    149 H149        0.8932  -19.6687  -45.1004 H         1 UNK         0.3000 
    150 H150        0.6915  -20.4074  -41.6774 H         1 UNK         0.0600 
    151 H151        3.0013  -21.2882  -41.8603 H         1 UNK         0.0600 
    152 H152        3.0352  -19.6033  -41.3652 H         1 UNK         0.0600 
    153 H153        3.4169  -20.0449  -43.0298 H         1 UNK         0.0600 
    154 H154        1.7849  -18.1453  -43.0499 H         1 UNK         0.3000 
    155 H155       -1.1621  -16.7330  -44.2803 H         1 UNK         0.0600 
    156 H156       -1.5220  -16.1034  -41.8974 H         1 UNK         0.0600 
    157 H157       -0.7391  -14.8017  -42.7803 H         1 UNK         0.0600 
    158 H158        0.2036  -15.8203  -41.6929 H         1 UNK         0.0600 
    159 H159        1.3283  -15.4935  -43.9499 H         1 UNK         0.3000 
    160 H160        2.2905  -15.6698  -46.8600 H         1 UNK         0.0600 
    161 H161        3.7481  -15.9216  -44.1683 H         1 UNK         0.0600 
    162 H162        2.9269  -14.5050  -44.7986 H         1 UNK         0.0600 
    163 H163        4.3911  -15.0730  -45.5712 H         1 UNK         0.0600 
    164 H164        3.2701  -17.4531  -47.6505 H         1 UNK         0.3000 
    165 H165        5.8253  -19.3003  -46.9175 H         1 UNK         0.0600 
    166 H166        4.8615  -21.6141  -46.9389 H         1 UNK         0.0600 
    167 H167        4.8591  -20.9224  -45.3269 H         1 UNK         0.0600 
    168 H168        3.3634  -20.9971  -46.2443 H         1 UNK         0.0600 
    169 H169        3.4160  -19.9224  -48.4934 H         1 UNK         0.3000 
    170 H170        4.8387  -18.9064  -51.4070 H         1 UNK         0.0600 
    171 H171        2.1944  -19.7314  -50.0828 H         1 UNK         0.0600 
    172 H172        2.5985  -19.8825  -51.7890 H         1 UNK         0.0600 
    173 H173        3.4726  -20.8283  -50.6011 H         1 UNK         0.0600 
    174 H174        3.8179  -16.9969  -51.8426 H         1 UNK         0.3000 
    175 H175        2.8433  -15.0515  -51.5883 H         1 UNK         0.0600 
    176 H176       -0.0240  -15.7947  -50.7810 H         1 UNK         0.0600 
    177 H177        0.4330  -14.5480  -51.9410 H         1 UNK         0.0600 
    178 H178        0.7556  -16.2361  -52.2954 H         1 UNK         0.0600 
    179 H179        1.1455  -13.9860  -49.5760 H         1 UNK         0.3000 
    180 H180        3.1893  -13.1063  -47.1162 H         1 UNK         0.0600 
    181 H181        3.3640  -11.0831  -49.4110 H         1 UNK         0.0600 
    182 H182        4.7135  -11.6900  -48.4586 H         1 UNK         0.0600 
    183 H183        3.4853  -10.6966  -47.6945 H         1 UNK         0.0600 
    184 H184        1.0805  -11.7573  -48.7234 H         1 UNK         0.3000 
    185 H185       -0.8678  -11.2593  -47.4421 H         1 UNK         0.0600 
    186 H186       -1.5797  -14.1913  -48.0511 H         1 UNK         0.0600 
    187 H187       -2.6816  -12.8383  -48.2996 H         1 UNK         0.0600 
    188 H188       -1.2055  -12.9539  -49.2414 H         1 UNK         0.0600 
    189 H189       -0.9957  -13.0770  -45.2427 H         1 UNK         0.3000 
    190 H190       -1.5205  -23.0233  -43.2593 H         1 UNK         0.3000 
    191 H191       -3.0301  -25.2826  -42.3408 H         1 UNK         0.0600 
    192 H192       -0.0011  -24.8262  -42.4941 H         1 UNK         0.0600 
    193 H193       -1.0394  -24.3691  -41.1436 H         1 UNK         0.0600 
    194 H194       -0.8078  -26.0647  -41.5406 H         1 UNK         0.0600 
    195 H195       -1.4499  -24.6062  -45.3493 H         1 UNK         0.3000 
    196 H196       -1.6076  -27.4450  -46.2612 H         1 UNK         0.0600 
    197 H197        0.6797  -26.4337  -46.3647 H         1 UNK         0.0600 
    198 H198        0.0568  -25.1005  -47.3319 H         1 UNK         0.0600 
    199 H199        0.0489  -26.7415  -47.9723 H         1 UNK         0.0600 
    200 H200       -3.7366  -25.1749  -45.9970 H         1 UNK         0.3000 
    201 H201       -5.5148  -24.3962  -47.0490 H         1 UNK         0.0600 
    202 H202       -6.5783  -25.7691  -48.8041 H         1 UNK         0.0600 
    203 H203       -5.9312  -26.8079  -47.5446 H         1 UNK         0.0600 
    204 H204       -5.0843  -26.6507  -49.0828 H         1 UNK         0.0600 
    205 H205       -3.3829  -22.8928  -47.4539 H         1 UNK         0.3000 
    206 H206       -2.5505  -21.1555  -48.5446 H         1 UNK         0.0600 
    207 H207       -4.8681  -20.4631  -49.0816 H         1 UNK         0.0600 
    208 H208       -4.8406  -21.4218  -50.5600 H         1 UNK         0.0600 
    209 H209       -3.7673  -20.0426  -50.3820 H         1 UNK         0.0600 
    210 H210       -1.3577  -23.4936  -48.7684 H         1 UNK         0.3000 
    211 H211        0.1385  -24.7732  -49.8121 H         1 UNK         0.0600 
    212 H212        1.3042  -22.5824  -50.1452 H         1 UNK         0.0600 
    213 H213        1.6552  -23.7052  -51.4488 H         1 UNK         0.0600 
    214 H214        0.5175  -22.3934  -51.7111 H         1 UNK         0.0600 
    215 H215       -2.2027  -25.7202  -50.3312 H         1 UNK         0.3000 
    216 H216       -3.6379  -26.7961  -51.6183 H         1 UNK         0.0600 
    217 H217       -2.7490  -28.1890  -53.4580 H         1 UNK         0.0600 
    218 H218       -1.2821  -27.2226  -53.5360 H         1 UNK         0.0600 
    219 H219       -1.6253  -28.1988  -52.1084 H         1 UNK         0.0600 
    220 H220       -3.9144  -24.1575  -51.7846 H         1 UNK         0.3000 
    221 H221       -4.8220  -22.4430  -52.7500 H         1 UNK         0.0600 
    222 H222       -5.6958  -24.2718  -55.0431 H         1 UNK         0.0600 
    223 H223       -6.5514  -24.0828  -53.5122 H         1 UNK         0.0600 
    224 H224       -6.4009  -22.7224  -54.6102 H         1 UNK         0.0600 
    225 H225       -1.9695  -23.4804  -53.8403 H         1 UNK         0.3000 
    226 H226       -1.7155  -22.0552  -56.3419 H         1 UNK         0.0600 
    227 H227       -0.2895  -24.0364  -55.6795 H         1 UNK         0.0600 
    228 H228        0.6436  -22.6326  -56.1787 H         1 UNK         0.0600 
    229 H229        0.5033  -23.0205  -54.4727 H         1 UNK         0.0600 
    230 H230       -1.3564  -21.1531  -52.9306 H         1 UNK         0.3000 
    231 H231        0.0489  -18.6450  -53.4738 H         1 UNK         0.0600 
    232 H232       -0.1813  -18.2814  -51.0865 H         1 UNK         0.0600 
    233 H233        0.1948  -19.9851  -51.2927 H         1 UNK         0.0600 
    234 H234       -1.4498  -19.4833  -50.9423 H         1 UNK         0.0600 
    235 H235       -3.2295  -19.7981  -53.2910 H         1 UNK         0.3000 
    236 H236       -5.2493  -19.0237  -53.6684 H         1 UNK         0.0600 
    237 H237       -4.2003  -18.3087  -55.8217 H         1 UNK         0.0600 
    238 H238       -5.5471  -17.2749  -55.3769 H         1 UNK         0.0600 
    239 H239       -3.8994  -16.7068  -55.1474 H         1 UNK         0.0600 
    240 H240       -3.5959  -17.7379  -51.3202 H         1 UNK         0.3000 
    241 H241       -5.0497  -15.3169  -50.7326 H         1 UNK         0.0600 
    242 H242       -7.1859  -18.2343  -48.9839 H         1 UNK         0.3800 
    243 H243       -6.0156  -18.5933  -50.2274 H         1 UNK         0.3800 
    244 H244       -2.7824  -15.3244  -50.0876 H         1 UNK         0.0800 
    245 H245       -3.6927  -15.3450  -48.6106 H         1 UNK         0.0800 
    246 H246       -1.7887  -16.2466  -46.9992 H         1 UNK         0.0800 
    247 H247       -1.6168  -17.9688  -46.8243 H         1 UNK         0.0800 
@<TRIPOS>BOND
     1    1    2 1    
     2    1  127 1    
     3    1  128 1    
     4    1  129 1    
     5    2    3 2    
     6    2    4 am   BACKBONE|DICT|INTERRES
     7    4    5 1    
     8    4  130 1    
     9    5    6 1    
    10    5   65 1    
    11    5  131 1    
    12    6    7 1    
    13    6  132 1    
    14    6  133 1    
    15    7    8 1    
    16    8    9 1    
    17    8  134 1    
    18    8  135 1    
    19    9   10 ar   
    20    9   14 ar   
    21   10   11 ar   
    22   10  136 1    
    23   11   12 ar   
    24   11  126 1    
    25   12   13 ar   
    26   12  137 1    
    27   13   14 ar   
    28   13   15 1    
    29   14  138 1    
    30   15   16 1    
    31   15  139 1    
    32   15  140 1    
    33   16   17 1    
    34   17   18 1    
    35   17  141 1    
    36   17  142 1    
    37   18   19 1    
    38   18   67 1    
    39   18  143 1    
    40   19   20 am   BACKBONE|DICT|INTERRES
    41   19  144 1    
    42   20   21 2    
    43   20   22 1    
    44   22   23 1    
    45   22   24 1    
    46   22  145 1    
    47   23  146 1    
    48   23  147 1    
    49   23  148 1    
    50   24   25 am   BACKBONE|DICT|INTERRES
    51   24  149 1    
    52   25   26 2    
    53   25   27 1    
    54   27   28 1    
    55   27   29 1    
    56   27  150 1    
    57   28  151 1    
    58   28  152 1    
    59   28  153 1    
    60   29   30 am   BACKBONE|DICT|INTERRES
    61   29  154 1    
    62   30   31 2    
    63   30   32 1    
    64   32   33 1    
    65   32   34 1    
    66   32  155 1    
    67   33  156 1    
    68   33  157 1    
    69   33  158 1    
    70   34   35 am   BACKBONE|DICT|INTERRES
    71   34  159 1    
    72   35   36 2    
    73   35   37 1    
    74   37   38 1    
    75   37   39 1    
    76   37  160 1    
    77   38  161 1    
    78   38  162 1    
    79   38  163 1    
    80   39   40 am   BACKBONE|DICT|INTERRES
    81   39  164 1    
    82   40   41 2    
    83   40   42 1    
    84   42   43 1    
    85   42   44 1    
    86   42  165 1    
    87   43  166 1    
    88   43  167 1    
    89   43  168 1    
    90   44   45 am   BACKBONE|DICT|INTERRES
    91   44  169 1    
    92   45   46 2    
    93   45   47 1    
    94   47   48 1    
    95   47   49 1    
    96   47  170 1    
    97   48  171 1    
    98   48  172 1    
    99   48  173 1    
   100   49   50 am   BACKBONE|DICT|INTERRES
   101   49  174 1    
   102   50   51 2    
   103   50   52 1    
   104   52   53 1    
   105   52   54 1    
   106   52  175 1    
   107   53  176 1    
   108   53  177 1    
   109   53  178 1    
   110   54   55 am   BACKBONE|DICT|INTERRES
   111   54  179 1    
   112   55   56 2    
   113   55   57 1    
   114   57   58 1    
   115   57   59 1    
   116   57  180 1    
   117   58  181 1    
   118   58  182 1    
   119   58  183 1    
   120   59   60 am   BACKBONE|DICT|INTERRES
   121   59  184 1    
   122   60   61 2    
   123   60   62 1    
   124   62   63 1    
   125   62   64 1    
   126   62  185 1    
   127   63  186 1    
   128   63  187 1    
   129   63  188 1    
   130   64   65 am   BACKBONE|DICT|INTERRES
   131   64  189 1    
   132   65   66 2    
   133   67   68 2    
   134   67   69 am   BACKBONE|DICT|INTERRES
   135   69   70 1    
   136   69  190 1    
   137   70   71 1    
   138   70   72 1    
   139   70  191 1    
   140   71  192 1    
   141   71  193 1    
   142   71  194 1    
   143   72   73 2    
   144   72   74 am   BACKBONE|DICT|INTERRES
   145   74   75 1    
   146   74  195 1    
   147   75   76 1    
   148   75   77 1    
   149   75  196 1    
   150   76  197 1    
   151   76  198 1    
   152   76  199 1    
   153   77   78 2    
   154   77   79 am   BACKBONE|DICT|INTERRES
   155   79   80 1    
   156   79  200 1    
   157   80   81 1    
   158   80   82 1    
   159   80  201 1    
   160   81  202 1    
   161   81  203 1    
   162   81  204 1    
   163   82   83 2    
   164   82   84 am   BACKBONE|DICT|INTERRES
   165   84   85 1    
   166   84  205 1    
   167   85   86 1    
   168   85   87 1    
   169   85  206 1    
   170   86  207 1    
   171   86  208 1    
   172   86  209 1    
   173   87   88 2    
   174   87   89 am   BACKBONE|DICT|INTERRES
   175   89   90 1    
   176   89  210 1    
   177   90   91 1    
   178   90   92 1    
   179   90  211 1    
   180   91  212 1    
   181   91  213 1    
   182   91  214 1    
   183   92   93 2    
   184   92   94 am   BACKBONE|DICT|INTERRES
   185   94   95 1    
   186   94  215 1    
   187   95   96 1    
   188   95   97 1    
   189   95  216 1    
   190   96  217 1    
   191   96  218 1    
   192   96  219 1    
   193   97   98 2    
   194   97   99 am   BACKBONE|DICT|INTERRES
   195   99  100 1    
   196   99  220 1    
   197  100  101 1    
   198  100  102 1    
   199  100  221 1    
   200  101  222 1    
   201  101  223 1    
   202  101  224 1    
   203  102  103 2    
   204  102  104 am   BACKBONE|DICT|INTERRES
   205  104  105 1    
   206  104  225 1    
   207  105  106 1    
   208  105  107 1    
   209  105  226 1    
   210  106  227 1    
   211  106  228 1    
   212  106  229 1    
   213  107  108 2    
   214  107  109 am   BACKBONE|DICT|INTERRES
   215  109  110 1    
   216  109  230 1    
   217  110  111 1    
   218  110  112 1    
   219  110  231 1    
   220  111  232 1    
   221  111  233 1    
   222  111  234 1    
   223  112  113 2    
   224  112  114 am   BACKBONE|DICT|INTERRES
   225  114  115 1    
   226  114  235 1    
   227  115  116 1    
   228  115  117 1    
   229  115  236 1    
   230  116  237 1    
   231  116  238 1    
   232  116  239 1    
   233  117  118 2    
   234  117  119 am   BACKBONE|DICT|INTERRES
   235  119  120 1    
   236  119  240 1    
   237  120  121 1    
   238  120  124 1    
   239  120  241 1    
   240  121  122 am   BACKBONE|DICT|INTERRES
   241  121  123 2    
   242  122  242 1    
   243  122  243 1    
   244  124  125 1    
   245  124  244 1    
   246  124  245 1    
   247  125  126 1    
   248  126  246 1    
   249  126  247 1    
@<TRIPOS>SUBSTRUCTURE
     1 UNK         1 GROUP             0       ****    0 ROOT    
