@<TRIPOS>MOLECULE
3R540
247   249    1
SMALL
USER_CHARGES


@<TRIPOS>ATOM
      1 CA         -3.3832  -11.8517  -51.4035 C.3       0 UNK        -0.1800 
      2 C          -2.4156  -12.9840  -51.0919 C.2       0 UNK         0.5000 
      3 O          -2.0392  -13.7376  -51.9900 O.2       0 UNK        -0.5000 
      4 N          -2.0098  -13.1007  -49.8226 N.am      1 UNK        -0.5000 
      5 CA         -1.0216  -14.0755  -49.3425 C.3       1 UNK         0.1400 
      6 C6         -1.1331  -14.3056  -47.8186 C.3       23 UNK        -0.0398 
      7 S7         -2.7901  -14.8249  -47.2711 S.3       23 UNK        -0.2404 
      8 C8         -2.4308  -16.4377  -46.5153 C.3       23 UNK        -0.0205 
      9 C9         -2.4555  -17.5650  -47.5330 C.ar      23 UNK        -0.0193 
     10 C10        -3.6844  -18.0656  -47.9674 C.ar      23 UNK        -0.1150 
     11 C11        -3.7381  -19.1156  -48.8836 C.ar      23 UNK        -0.0193 
     12 C12        -2.5504  -19.7111  -49.3111 C.ar      23 UNK        -0.1150 
     13 C13        -1.3103  -19.2430  -48.8678 C.ar      23 UNK        -0.0193 
     14 C14        -1.2697  -18.1338  -48.0108 C.ar      23 UNK        -0.1150 
     15 C15        -0.0528  -19.9638  -49.3562 C.3       23 UNK        -0.0205 
     16 S16         1.3692  -20.0264  -48.2046 S.3       23 UNK        -0.2404 
     17 C17         0.6547  -20.3971  -46.5639 C.3       23 UNK        -0.0398 
     18 CA          0.5135  -21.8998  -46.2441 C.3       11 UNK         0.1400 
     19 N           0.3325  -22.1209  -44.8087 N.am      11 UNK        -0.5000 
     20 C           0.4076  -23.3119  -44.1996 C.2       10 UNK         0.5000 
     21 O           0.7004  -24.3593  -44.7748 O.2       10 UNK        -0.5000 
     22 CA          0.0448  -23.3409  -42.7039 C.3       10 UNK         0.1400 
     23 CB          1.2717  -23.0115  -41.8411 C.3       10 UNK        -0.1800 
     24 N          -1.0496  -22.4221  -42.3808 N.am      10 UNK        -0.5000 
     25 C          -2.3143  -22.5996  -42.7935 C.2       9 UNK         0.5000 
     26 O          -2.6816  -23.5687  -43.4554 O.2       9 UNK        -0.5000 
     27 CA         -3.3373  -21.4995  -42.4560 C.3       9 UNK         0.1400 
     28 CB         -4.0361  -21.8068  -41.1237 C.3       9 UNK        -0.1800 
     29 N          -2.7659  -20.1547  -42.3996 N.am      9 UNK        -0.5000 
     30 C          -2.1377  -19.5318  -43.4057 C.2       8 UNK         0.5000 
     31 O          -1.9604  -20.0382  -44.5147 O.2       8 UNK        -0.5000 
     32 CA         -1.5843  -18.1212  -43.1167 C.3       8 UNK         0.1400 
     33 CB         -2.1925  -17.4583  -41.8611 C.3       8 UNK        -0.1800 
     34 N          -0.1218  -18.0920  -43.0357 N.am      8 UNK        -0.5000 
     35 C           0.6634  -18.8441  -42.2489 C.2       7 UNK         0.5000 
     36 O           0.2562  -19.7646  -41.5385 O.2       7 UNK        -0.5000 
     37 CA          2.1572  -18.4810  -42.2304 C.3       7 UNK         0.1400 
     38 CB          2.8956  -19.1048  -43.4249 C.3       7 UNK        -0.1800 
     39 N           2.3543  -17.0300  -42.2331 N.am      7 UNK        -0.5000 
     40 C           2.3114  -16.2569  -41.1380 C.2       6 UNK         0.5000 
     41 O           2.1536  -16.6976  -39.9989 O.2       6 UNK        -0.5000 
     42 CA          2.4832  -14.7368  -41.3373 C.3       6 UNK         0.1400 
     43 CB          3.9578  -14.3387  -41.1708 C.3       6 UNK        -0.1800 
     44 N           2.0133  -14.2709  -42.6420 N.am      6 UNK        -0.5000 
     45 C           0.7243  -14.1359  -42.9861 C.2       5 UNK         0.5000 
     46 O          -0.2120  -14.3126  -42.2078 O.2       5 UNK        -0.5000 
     47 CA          0.4297  -13.7644  -44.4554 C.3       5 UNK         0.1400 
     48 CB          0.2510  -12.2448  -44.5926 C.3       5 UNK        -0.1800 
     49 N           1.4640  -14.2090  -45.3960 N.am      5 UNK        -0.5000 
     50 C           1.8522  -15.4806  -45.5726 C.2       4 UNK         0.5000 
     51 O           1.3120  -16.4291  -45.0006 O.2       4 UNK        -0.5000 
     52 CA          3.0544  -15.7482  -46.5002 C.3       4 UNK         0.1400 
     53 CB          2.7224  -16.8278  -47.5343 C.3       4 UNK        -0.1800 
     54 N           3.5583  -14.5580  -47.1878 N.am      4 UNK        -0.5000 
     55 C           4.3693  -13.6429  -46.6373 C.2       3 UNK         0.5000 
     56 O           4.7463  -13.6938  -45.4660 O.2       3 UNK        -0.5000 
     57 CA          4.8238  -12.4664  -47.5270 C.3       3 UNK         0.1400 
     58 CB          6.2649  -12.6879  -48.0113 C.3       3 UNK        -0.1800 
     59 N           3.9654  -12.2292  -48.6915 N.am      3 UNK        -0.5000 
     60 C           2.6948  -11.8100  -48.6340 C.2       2 UNK         0.5000 
     61 O           2.1103  -11.5730  -47.5742 O.2       2 UNK        -0.5000 
     62 CA          1.9274  -11.6533  -49.9661 C.3       2 UNK         0.1400 
     63 CB          2.7160  -12.0911  -51.2216 C.3       2 UNK        -0.1800 
     64 N           0.6324  -12.3357  -49.8946 N.am      2 UNK        -0.5000 
     65 C           0.4253  -13.6421  -49.6626 C.2       1 UNK         0.5000 
     66 O           1.3256  -14.4813  -49.6309 O.2       1 UNK        -0.5000 
     67 C          -0.6473  -22.5298  -47.0321 C.2       11 UNK         0.5000 
     68 O          -0.4033  -23.2675  -47.9860 O.2       11 UNK        -0.5000 
     69 N          -1.8849  -22.2623  -46.5893 N.am      12 UNK        -0.5000 
     70 CA         -3.1061  -22.8057  -47.1820 C.3       12 UNK         0.1400 
     71 CB         -4.3322  -22.1808  -46.5028 C.3       12 UNK        -0.1800 
     72 C          -3.1611  -24.3434  -47.1265 C.2       12 UNK         0.5000 
     73 O          -3.5400  -24.9665  -48.1178 O.2       12 UNK        -0.5000 
     74 N          -2.7372  -24.9275  -45.9967 N.am      13 UNK        -0.5000 
     75 CA         -2.6063  -26.3715  -45.8046 C.3       13 UNK         0.1400 
     76 CB         -2.3201  -26.6743  -44.3262 C.3       13 UNK        -0.1800 
     77 C          -1.5279  -26.9999  -46.7053 C.2       13 UNK         0.5000 
     78 O          -1.7766  -28.0540  -47.2905 O.2       13 UNK        -0.5000 
     79 N          -0.3664  -26.3386  -46.8221 N.am      14 UNK        -0.5000 
     80 CA          0.7441  -26.7625  -47.6793 C.3       14 UNK         0.1400 
     81 CB          1.9924  -25.9243  -47.3643 C.3       14 UNK        -0.1800 
     82 C           0.4026  -26.6900  -49.1790 C.2       14 UNK         0.5000 
     83 O           0.7604  -27.5988  -49.9292 O.2       14 UNK        -0.5000 
     84 N          -0.3031  -25.6250  -49.5814 N.am      15 UNK        -0.5000 
     85 CA         -0.8134  -25.4238  -50.9378 C.3       15 UNK         0.1400 
     86 CB         -1.2736  -23.9639  -51.0827 C.3       15 UNK        -0.1800 
     87 C          -1.9677  -26.3778  -51.3019 C.2       15 UNK         0.5000 
     88 O          -2.1546  -26.6667  -52.4840 O.2       15 UNK        -0.5000 
     89 N          -2.7167  -26.8265  -50.2820 N.am      16 UNK        -0.5000 
     90 CA         -4.0105  -27.5137  -50.3551 C.3       16 UNK         0.1400 
     91 CB         -3.8925  -28.8829  -51.0569 C.3       16 UNK        -0.1800 
     92 C          -5.0825  -26.5857  -50.9652 C.2       16 UNK         0.5000 
     93 O          -5.8060  -26.9819  -51.8813 O.2       16 UNK        -0.5000 
     94 N          -5.1210  -25.3535  -50.4336 N.am      17 UNK        -0.5000 
     95 CA         -5.8296  -24.1583  -50.9023 C.3       17 UNK         0.1400 
     96 CB         -7.3471  -24.4047  -51.0226 C.3       17 UNK        -0.1800 
     97 C          -5.2357  -23.5790  -52.2040 C.2       17 UNK         0.5000 
     98 O          -4.5076  -24.2613  -52.9273 O.2       17 UNK        -0.5000 
     99 N          -5.5618  -22.3071  -52.4717 N.am      18 UNK        -0.5000 
    100 CA        -5.0717  -21.4998  -53.5938 C.3       18 UNK         0.1400 
    101 CB        -5.6277  -22.0272  -54.9366 C.3       18 UNK        -0.1800 
    102 C         -3.5362  -21.3247  -53.5594 C.2       18 UNK         0.5000 
    103 O         -2.9871  -21.0804  -52.4832 O.2       18 UNK        -0.5000 
    104 N         -2.8797  -21.3974  -54.7281 N.am      19 UNK        -0.5000 
    105 CA        -1.4685  -21.0936  -55.0151 C.3       19 UNK         0.1400 
    106 CB        -0.4990  -21.9545  -54.1811 C.3       19 UNK        -0.1800 
    107 C         -1.1561  -19.5894  -54.8936 C.2       19 UNK         0.5000 
    108 O         -0.6988  -18.9799  -55.8615 O.2       19 UNK        -0.5000 
    109 N         -1.4672  -19.0128  -53.7296 N.am      20 UNK        -0.5000 
    110 CA        -1.6188  -17.5782  -53.5136 C.3       20 UNK         0.1400 
    111 CB        -1.3438  -17.2889  -52.0296 C.3       20 UNK        -0.1800 
    112 C         -3.0457  -17.1396  -53.9038 C.2       20 UNK         0.5000 
    113 O         -3.8979  -17.9829  -54.1988 O.2       20 UNK        -0.5000 
    114 N         -3.3032  -15.8257  -53.8691 N.am      21 UNK        -0.5000 
    115 CA        -4.6529  -15.2711  -54.0278 C.3       21 UNK         0.1400 
    116 CB        -4.5564  -13.8146  -54.5070 C.3       21 UNK        -0.1800 
    117 C         -5.4985  -15.3998  -52.7408 C.2       21 UNK         0.5000 
    118 O         -6.7241  -15.2995  -52.8140 O.2       21 UNK        -0.5000 
    119 N         -4.8284  -15.6547  -51.6080 N.am      22 UNK        -0.5000 
    120 CA        -5.3841  -15.9034  -50.2682 C.3       22 UNK         0.1400 
    121 C         -6.0413  -14.6520  -49.6076 C.2       22 UNK         0.5000 
    122 N         -6.5396  -14.7708  -48.3835 N.am      22 UNK        -0.7600 
    123 O         -6.0888  -13.5601  -50.1682 O.2       22 UNK        -0.5000 
    124 C124       -6.3080  -17.1593  -50.2062 C.3       23 UNK        -0.0398 
    125 S125       -5.5746  -18.6854  -50.9028 S.3       23 UNK        -0.2404 
    126 C126       -5.0733  -19.6091  -49.4142 C.3       23 UNK        -0.0205 
    127 H127       -2.9894  -11.2322  -52.2092 H         1 UNK         0.0600 
    128 H128       -3.5536  -11.2139  -50.5359 H         1 UNK         0.0600 
    129 H129       -4.3449  -12.2538  -51.7195 H         1 UNK         0.0600 
    130 H130       -2.3941  -12.4845  -49.1203 H         1 UNK         0.3000 
    131 H131       -1.1992  -15.0309  -49.8388 H         1 UNK         0.0600 
    132 H132       -0.4034  -15.0528  -47.5045 H         1 UNK         0.0800 
    133 H133       -0.8832  -13.3926  -47.2769 H         1 UNK         0.0800 
    134 H134       -1.4744  -16.4063  -45.9915 H         1 UNK         0.0800 
    135 H135       -3.1877  -16.6327  -45.7546 H         1 UNK         0.0800 
    136 H136       -4.6001  -17.6220  -47.6043 H         1 UNK         0.1150 
    137 H137       -2.5932  -20.5427  -49.9998 H         1 UNK         0.1150 
    138 H138       -0.3190  -17.7462  -47.6742 H         1 UNK         0.1150 
    139 H139       -0.3013  -20.9918  -49.6244 H         1 UNK         0.0800 
    140 H140        0.2785  -19.4885  -50.2793 H         1 UNK         0.0800 
    141 H141       -0.2880  -19.8780  -46.4159 H         1 UNK         0.0800 
    142 H142        1.3348  -19.9463  -45.8427 H         1 UNK         0.0800 
    143 H143        1.4360  -22.4038  -46.5406 H         1 UNK         0.0600 
    144 H144       -0.0040  -21.3329  -44.2734 H         1 UNK         0.3000 
    145 H145       -0.2791  -24.3547  -42.4587 H         1 UNK         0.0600 
    146 H146        1.0304  -23.0534  -40.7789 H         1 UNK         0.0600 
    147 H147        2.0758  -23.7262  -42.0208 H         1 UNK         0.0600 
    148 H148        1.6644  -22.0178  -42.0567 H         1 UNK         0.0600 
    149 H149       -0.8067  -21.5753  -41.8775 H         1 UNK         0.3000 
    150 H150       -4.0919  -21.5006  -43.2445 H         1 UNK         0.0600 
    151 H151       -4.8285  -21.0870  -40.9178 H         1 UNK         0.0600 
    152 H152       -4.4949  -22.7964  -41.1427 H         1 UNK         0.0600 
    153 H153       -3.3357  -21.7854  -40.2879 H         1 UNK         0.0600 
    154 H154       -2.8309  -19.6763  -41.5132 H         1 UNK         0.3000 
    155 H155       -1.8579  -17.5080  -43.9721 H         1 UNK         0.0600 
    156 H156       -1.9026  -17.9680  -40.9415 H         1 UNK         0.0600 
    157 H157       -3.2821  -17.4429  -41.9094 H         1 UNK         0.0600 
    158 H158       -1.8646  -16.4228  -41.7746 H         1 UNK         0.0600 
    159 H159        0.3339  -17.4146  -43.6407 H         1 UNK         0.3000 
    160 H160        2.5875  -18.9014  -41.3187 H         1 UNK         0.0600 
    161 H161        2.5831  -18.6645  -44.3708 H         1 UNK         0.0600 
    162 H162        2.7149  -20.1789  -43.4839 H         1 UNK         0.0600 
    163 H163        3.9724  -18.9618  -43.3348 H         1 UNK         0.0600 
    164 H164        2.4156  -16.5866  -43.1390 H         1 UNK         0.3000 
    165 H165        1.9050  -14.2331  -40.5596 H         1 UNK         0.0600 
    166 H166        4.0841  -13.2578  -41.2356 H         1 UNK         0.0600 
    167 H167        4.3400  -14.6518  -40.1983 H         1 UNK         0.0600 
    168 H168        4.5876  -14.7967  -41.9348 H         1 UNK         0.0600 
    169 H169        2.7193  -14.0823  -43.3395 H         1 UNK         0.3000 
    170 H170       -0.5069  -14.2510  -44.7350 H         1 UNK         0.0600 
    171 H171       -0.5394  -11.8829  -43.9338 H         1 UNK         0.0600 
    172 H172        1.1655  -11.7092  -44.3347 H         1 UNK         0.0600 
    173 H173       -0.0214  -11.9632  -45.6093 H         1 UNK         0.0600 
    174 H174        1.9483  -13.4852  -45.9096 H         1 UNK         0.3000 
    175 H175        3.8535  -16.1406  -45.8679 H         1 UNK         0.0600 
    176 H176        1.8458  -16.5727  -48.1293 H         1 UNK         0.0600 
    177 H177        3.5558  -17.0040  -48.2142 H         1 UNK         0.0600 
    178 H178        2.5160  -17.7685  -47.0271 H         1 UNK         0.0600 
    179 H179        3.2528  -14.4292  -48.1439 H         1 UNK         0.3000 
    180 H180        4.8063  -11.5672  -46.9076 H         1 UNK         0.0600 
    181 H181        6.3426  -13.5656  -48.6542 H         1 UNK         0.0600 
    182 H182        6.9424  -12.8368  -47.1693 H         1 UNK         0.0600 
    183 H183        6.6304  -11.8268  -48.5710 H         1 UNK         0.0600 
    184 H184        4.3698  -12.4200  -49.5968 H         1 UNK         0.3000 
    185 H185        1.7107  -10.5890  -50.0672 H         1 UNK         0.0600 
    186 H186        3.6170  -11.4904  -51.3510 H         1 UNK         0.0600 
    187 H187        3.0158  -13.1387  -51.1808 H         1 UNK         0.0600 
    188 H188        2.1150  -11.9582  -52.1213 H         1 UNK         0.0600 
    189 H189       -0.1754  -11.7302  -49.8772 H         1 UNK         0.3000 
    190 H190       -1.9968  -21.6201  -45.8115 H         1 UNK         0.3000 
    191 H191       -3.1164  -22.5130  -48.2339 H         1 UNK         0.0600 
    192 H192       -4.3034  -21.0923  -46.5608 H         1 UNK         0.0600 
    193 H193       -5.2535  -22.5096  -46.9849 H         1 UNK         0.0600 
    194 H194       -4.3941  -22.4591  -45.4509 H         1 UNK         0.0600 
    195 H195       -2.5052  -24.3430  -45.1984 H         1 UNK         0.3000 
    196 H196       -3.5629  -26.8298  -46.0642 H         1 UNK         0.0600 
    197 H197       -2.2199  -27.7473  -44.1581 H         1 UNK         0.0600 
    198 H198       -3.1300  -26.3203  -43.6883 H         1 UNK         0.0600 
    199 H199       -1.3975  -26.2003  -43.9894 H         1 UNK         0.0600 
    200 H200       -0.2219  -25.4931  -46.2811 H         1 UNK         0.3000 
    201 H201        0.9701  -27.8043  -47.4426 H         1 UNK         0.0600 
    202 H202        2.2989  -26.0503  -46.3259 H         1 UNK         0.0600 
    203 H203        1.8186  -24.8615  -47.5350 H         1 UNK         0.0600 
    204 H204        2.8338  -26.2248  -47.9899 H         1 UNK         0.0600 
    205 H205       -0.4876  -24.8803  -48.9122 H         1 UNK         0.3000 
    206 H206        0.0011  -25.5999  -51.6434 H         1 UNK         0.0600 
    207 H207       -0.4459  -23.2705  -50.9340 H         1 UNK         0.0600 
    208 H208       -1.6824  -23.7777  -52.0765 H         1 UNK         0.0600 
    209 H209       -2.0530  -23.7139  -50.3619 H         1 UNK         0.0600 
    210 H210       -2.4665  -26.4983  -49.3580 H         1 UNK         0.3000 
    211 H211       -4.3132  -27.7001  -49.3236 H         1 UNK         0.0600 
    212 H212       -3.6643  -28.7828  -52.1181 H         1 UNK         0.0600 
    213 H213       -4.8272  -29.4388  -50.9779 H         1 UNK         0.0600 
    214 H214       -3.1120  -29.4920  -50.6009 H         1 UNK         0.0600 
    215 H215       -4.4787  -25.1808  -49.6623 H         1 UNK         0.3000 
    216 H216       -5.6738  -23.4110  -50.1225 H         1 UNK         0.0600 
    217 H217       -7.8827  -23.4694  -51.1879 H         1 UNK         0.0600 
    218 H218       -7.7487  -24.8505  -50.1126 H         1 UNK         0.0600 
    219 H219       -7.5890  -25.0643  -51.8562 H         1 UNK         0.0600 
    220 H220       -6.1417  -21.8092  -51.8120 H         1 UNK         0.3000 
    221 H221       -5.4821  -20.5000  -53.4455 H         1 UNK         0.0600 
    222 H222       -5.2029  -22.9948  -55.2059 H         1 UNK         0.0600 
    223 H223       -6.7104  -22.1447  -54.8894 H         1 UNK         0.0600 
    224 H224       -5.4214  -21.3319  -55.7510 H         1 UNK         0.0600 
    225 H225       -3.4384  -21.5898  -55.5473 H         1 UNK         0.3000 
    226 H226       -1.3181  -21.3634  -56.0616 H         1 UNK         0.0600 
    227 H227       -0.7224  -23.0158  -54.2897 H         1 UNK         0.0600 
    228 H228        0.5297  -21.8033  -54.5097 H         1 UNK         0.0600 
    229 H229       -0.5358  -21.7096  -53.1196 H         1 UNK         0.0600 
    230 H230       -1.9170  -19.6119  -53.0420 H         1 UNK         0.3000 
    231 H231       -0.8995  -17.0304  -54.1256 H         1 UNK         0.0600 
    232 H232       -2.1022  -17.7337  -51.3840 H         1 UNK         0.0600 
    233 H233       -1.3319  -16.2187  -51.8368 H         1 UNK         0.0600 
    234 H234       -0.3717  -17.6751  -51.7246 H         1 UNK         0.0600 
    235 H235       -2.5825  -15.1756  -53.5757 H         1 UNK         0.3000 
    236 H236       -5.1768  -15.8317  -54.8051 H         1 UNK         0.0600 
    237 H237       -4.1035  -13.7597  -55.4970 H         1 UNK         0.0600 
    238 H238       -5.5438  -13.3565  -54.5764 H         1 UNK         0.0600 
    239 H239       -3.9560  -13.2039  -53.8363 H         1 UNK         0.0600 
    240 H240       -3.8220  -15.6805  -51.6678 H         1 UNK         0.3000 
    241 H241       -4.5055  -16.1043  -49.6575 H         1 UNK         0.0600 
    242 H242       -6.4953  -15.6319  -47.8638 H         1 UNK         0.3800 
    243 H243       -6.9529  -13.9586  -47.9527 H         1 UNK         0.3800 
    244 H244       -6.6119  -17.3648  -49.1800 H         1 UNK         0.0800 
    245 H245       -7.2342  -16.9649  -50.7485 H         1 UNK         0.0800 
    246 H246       -4.9938  -20.6661  -49.6724 H         1 UNK         0.0800 
    247 H247       -5.8437  -19.5436  -48.6446 H         1 UNK         0.0800 
@<TRIPOS>BOND
     1    1    2 1    
     2    1  127 1    
     3    1  128 1    
     4    1  129 1    
     5    2    3 2    
     6    2    4 am   BACKBONE|DICT|INTERRES
     7    4    5 1    
     8    4  130 1    
     9    5    6 1    
    10    5   65 1    
    11    5  131 1    
    12    6    7 1    
    13    6  132 1    
    14    6  133 1    
    15    7    8 1    
    16    8    9 1    
    17    8  134 1    
    18    8  135 1    
    19    9   10 ar   
    20    9   14 ar   
    21   10   11 ar   
    22   10  136 1    
    23   11   12 ar   
    24   11  126 1    
    25   12   13 ar   
    26   12  137 1    
    27   13   14 ar   
    28   13   15 1    
    29   14  138 1    
    30   15   16 1    
    31   15  139 1    
    32   15  140 1    
    33   16   17 1    
    34   17   18 1    
    35   17  141 1    
    36   17  142 1    
    37   18   19 1    
    38   18   67 1    
    39   18  143 1    
    40   19   20 am   BACKBONE|DICT|INTERRES
    41   19  144 1    
    42   20   21 2    
    43   20   22 1    
    44   22   23 1    
    45   22   24 1    
    46   22  145 1    
    47   23  146 1    
    48   23  147 1    
    49   23  148 1    
    50   24   25 am   BACKBONE|DICT|INTERRES
    51   24  149 1    
    52   25   26 2    
    53   25   27 1    
    54   27   28 1    
    55   27   29 1    
    56   27  150 1    
    57   28  151 1    
    58   28  152 1    
    59   28  153 1    
    60   29   30 am   BACKBONE|DICT|INTERRES
    61   29  154 1    
    62   30   31 2    
    63   30   32 1    
    64   32   33 1    
    65   32   34 1    
    66   32  155 1    
    67   33  156 1    
    68   33  157 1    
    69   33  158 1    
    70   34   35 am   BACKBONE|DICT|INTERRES
    71   34  159 1    
    72   35   36 2    
    73   35   37 1    
    74   37   38 1    
    75   37   39 1    
    76   37  160 1    
    77   38  161 1    
    78   38  162 1    
    79   38  163 1    
    80   39   40 am   BACKBONE|DICT|INTERRES
    81   39  164 1    
    82   40   41 2    
    83   40   42 1    
    84   42   43 1    
    85   42   44 1    
    86   42  165 1    
    87   43  166 1    
    88   43  167 1    
    89   43  168 1    
    90   44   45 am   BACKBONE|DICT|INTERRES
    91   44  169 1    
    92   45   46 2    
    93   45   47 1    
    94   47   48 1    
    95   47   49 1    
    96   47  170 1    
    97   48  171 1    
    98   48  172 1    
    99   48  173 1    
   100   49   50 am   BACKBONE|DICT|INTERRES
   101   49  174 1    
   102   50   51 2    
   103   50   52 1    
   104   52   53 1    
   105   52   54 1    
   106   52  175 1    
   107   53  176 1    
   108   53  177 1    
   109   53  178 1    
   110   54   55 am   BACKBONE|DICT|INTERRES
   111   54  179 1    
   112   55   56 2    
   113   55   57 1    
   114   57   58 1    
   115   57   59 1    
   116   57  180 1    
   117   58  181 1    
   118   58  182 1    
   119   58  183 1    
   120   59   60 am   BACKBONE|DICT|INTERRES
   121   59  184 1    
   122   60   61 2    
   123   60   62 1    
   124   62   63 1    
   125   62   64 1    
   126   62  185 1    
   127   63  186 1    
   128   63  187 1    
   129   63  188 1    
   130   64   65 am   BACKBONE|DICT|INTERRES
   131   64  189 1    
   132   65   66 2    
   133   67   68 2    
   134   67   69 am   BACKBONE|DICT|INTERRES
   135   69   70 1    
   136   69  190 1    
   137   70   71 1    
   138   70   72 1    
   139   70  191 1    
   140   71  192 1    
   141   71  193 1    
   142   71  194 1    
   143   72   73 2    
   144   72   74 am   BACKBONE|DICT|INTERRES
   145   74   75 1    
   146   74  195 1    
   147   75   76 1    
   148   75   77 1    
   149   75  196 1    
   150   76  197 1    
   151   76  198 1    
   152   76  199 1    
   153   77   78 2    
   154   77   79 am   BACKBONE|DICT|INTERRES
   155   79   80 1    
   156   79  200 1    
   157   80   81 1    
   158   80   82 1    
   159   80  201 1    
   160   81  202 1    
   161   81  203 1    
   162   81  204 1    
   163   82   83 2    
   164   82   84 am   BACKBONE|DICT|INTERRES
   165   84   85 1    
   166   84  205 1    
   167   85   86 1    
   168   85   87 1    
   169   85  206 1    
   170   86  207 1    
   171   86  208 1    
   172   86  209 1    
   173   87   88 2    
   174   87   89 am   BACKBONE|DICT|INTERRES
   175   89   90 1    
   176   89  210 1    
   177   90   91 1    
   178   90   92 1    
   179   90  211 1    
   180   91  212 1    
   181   91  213 1    
   182   91  214 1    
   183   92   93 2    
   184   92   94 am   BACKBONE|DICT|INTERRES
   185   94   95 1    
   186   94  215 1    
   187   95   96 1    
   188   95   97 1    
   189   95  216 1    
   190   96  217 1    
   191   96  218 1    
   192   96  219 1    
   193   97   98 2    
   194   97   99 am   BACKBONE|DICT|INTERRES
   195   99  100 1    
   196   99  220 1    
   197  100  101 1    
   198  100  102 1    
   199  100  221 1    
   200  101  222 1    
   201  101  223 1    
   202  101  224 1    
   203  102  103 2    
   204  102  104 am   BACKBONE|DICT|INTERRES
   205  104  105 1    
   206  104  225 1    
   207  105  106 1    
   208  105  107 1    
   209  105  226 1    
   210  106  227 1    
   211  106  228 1    
   212  106  229 1    
   213  107  108 2    
   214  107  109 am   BACKBONE|DICT|INTERRES
   215  109  110 1    
   216  109  230 1    
   217  110  111 1    
   218  110  112 1    
   219  110  231 1    
   220  111  232 1    
   221  111  233 1    
   222  111  234 1    
   223  112  113 2    
   224  112  114 am   BACKBONE|DICT|INTERRES
   225  114  115 1    
   226  114  235 1    
   227  115  116 1    
   228  115  117 1    
   229  115  236 1    
   230  116  237 1    
   231  116  238 1    
   232  116  239 1    
   233  117  118 2    
   234  117  119 am   BACKBONE|DICT|INTERRES
   235  119  120 1    
   236  119  240 1    
   237  120  121 1    
   238  120  124 1    
   239  120  241 1    
   240  121  122 am   BACKBONE|DICT|INTERRES
   241  121  123 2    
   242  122  242 1    
   243  122  243 1    
   244  124  125 1    
   245  124  244 1    
   246  124  245 1    
   247  125  126 1    
   248  126  246 1    
   249  126  247 1    
@<TRIPOS>SUBSTRUCTURE
     1 UNK         1 GROUP             0       ****    0 ROOT    
