@<TRIPOS>MOLECULE
3R540
247   249    1
SMALL
USER_CHARGES


@<TRIPOS>ATOM
      1 CA          2.2108  -11.4562  -52.3327 C.3       0 UNK        -0.1800 
      2 C           1.9904  -11.7273  -50.8511 C.2       0 UNK         0.5000 
      3 O           2.7372  -11.2111  -50.0192 O.2       0 UNK        -0.5000 
      4 N           0.9793  -12.5394  -50.5185 N.am      1 UNK        -0.5000 
      5 CA          0.5850  -12.8718  -49.1477 C.3       1 UNK         0.1400 
      6 C6         -0.4308  -14.0368  -49.1185 C.3       23 UNK        -0.0398 
      7 S7         -0.6360  -14.7686  -47.4543 S.3       23 UNK        -0.2404 
      8 C8         -2.4090  -15.1902  -47.4402 C.3       23 UNK        -0.0205 
      9 C9         -2.8025  -16.0535  -48.6297 C.ar      23 UNK        -0.0193 
     10 C10        -3.5629  -15.5067  -49.6658 C.ar      23 UNK        -0.1150 
     11 C11        -3.8766  -16.2673  -50.7939 C.ar      23 UNK        -0.0193 
     12 C12        -3.4607  -17.5987  -50.8613 C.ar      23 UNK        -0.1150 
     13 C13        -2.7070  -18.1638  -49.8278 C.ar      23 UNK        -0.0193 
     14 C14        -2.3807  -17.3835  -48.7152 C.ar      23 UNK        -0.1150 
     15 C15        -2.2072  -19.5967  -49.9418 C.3       23 UNK        -0.0205 
     16 S16        -3.3916  -20.7885  -49.2397 S.3       23 UNK        -0.2404 
     17 C17        -2.8338  -20.8816  -47.5068 C.3       23 UNK        -0.0398 
     18 CA         -2.1184  -22.2294  -47.2048 C.3       11 UNK         0.1400 
     19 N          -0.7295  -22.0585  -46.7627 N.am      11 UNK        -0.5000 
     20 C           0.1432  -23.0627  -46.5839 C.2       10 UNK         0.5000 
     21 O          -0.1157  -24.2407  -46.8213 O.2       10 UNK        -0.5000 
     22 CA          1.5143  -22.7072  -45.9809 C.3       10 UNK         0.1400 
     23 CB          2.4632  -22.1563  -47.0547 C.3       10 UNK        -0.1800 
     24 N           1.4038  -21.7589  -44.8727 N.am      10 UNK        -0.5000 
     25 C           0.7580  -22.0091  -43.7242 C.2       9 UNK         0.5000 
     26 O           0.2560  -23.0973  -43.4448 O.2       9 UNK        -0.5000 
     27 CA          0.5856  -20.8275  -42.7542 C.3       9 UNK         0.1400 
     28 CB          1.8248  -20.6525  -41.8638 C.3       9 UNK        -0.1800 
     29 N           0.2987  -19.5785  -43.4600 N.am      9 UNK        -0.5000 
     30 C          -0.8247  -19.3414  -44.1525 C.2       8 UNK         0.5000 
     31 O          -1.7642  -20.1340  -44.2308 O.2       8 UNK        -0.5000 
     32 CA         -0.8780  -18.0190  -44.9342 C.3       8 UNK         0.1400 
     33 CB         -1.2623  -16.8565  -44.0109 C.3       8 UNK        -0.1800 
     34 N           0.3945  -17.7255  -45.5966 N.am      8 UNK        -0.5000 
     35 C           0.8697  -18.4162  -46.6449 C.2       7 UNK         0.5000 
     36 O           0.2577  -19.3414  -47.1754 O.2       7 UNK        -0.5000 
     37 CA          2.2795  -18.0629  -47.1609 C.3       7 UNK         0.1400 
     38 CB          2.2096  -17.0146  -48.2815 C.3       7 UNK        -0.1800 
     39 N           3.1807  -17.5898  -46.1110 N.am      7 UNK        -0.5000 
     40 C           3.5394  -18.2961  -45.0296 C.2       6 UNK         0.5000 
     41 O           3.2244  -19.4728  -44.8539 O.2       6 UNK        -0.5000 
     42 CA          4.3326  -17.5516  -43.9359 C.3       6 UNK         0.1400 
     43 CB          5.8270  -17.8917  -44.0334 C.3       6 UNK        -0.1800 
     44 N           4.1687  -16.0922  -43.9613 N.am      6 UNK        -0.5000 
     45 C           3.0089  -15.4396  -43.8007 C.2       5 UNK         0.5000 
     46 O           1.9247  -16.0034  -43.6370 O.2       5 UNK        -0.5000 
     47 CA          3.0705  -13.9086  -43.9442 C.3       5 UNK         0.1400 
     48 CB          3.0328  -13.5234  -45.4328 C.3       5 UNK        -0.1800 
     49 N           1.9646  -13.2351  -43.2666 N.am      5 UNK        -0.5000 
     50 C           1.7870  -13.1534  -41.9402 C.2       4 UNK         0.5000 
     51 O           2.5781  -13.6153  -41.1166 O.2       4 UNK        -0.5000 
     52 CA          0.5299  -12.4024  -41.4486 C.3       4 UNK         0.1400 
     53 CB          0.9210  -11.0612  -40.8080 C.3       4 UNK        -0.1800 
     54 N          -0.4177  -12.1383  -42.5333 N.am      4 UNK        -0.5000 
     55 C          -1.3380  -12.9972  -42.9846 C.2       3 UNK         0.5000 
     56 O          -1.6051  -14.0584  -42.4232 O.2       3 UNK        -0.5000 
     57 CA         -2.0436  -12.6451  -44.3114 C.3       3 UNK         0.1400 
     58 CB         -3.3733  -11.9082  -44.0648 C.3       3 UNK        -0.1800 
     59 N          -1.1933  -11.9333  -45.2826 N.am      3 UNK        -0.5000 
     60 C          -0.7143  -10.6794  -45.2317 C.2       2 UNK         0.5000 
     61 O          -0.9408   -9.9077  -44.2998 O.2       2 UNK        -0.5000 
     62 CA          0.2327  -10.2292  -46.3641 C.3       2 UNK         0.1400 
     63 CB          1.5148   -9.6034  -45.7868 C.3       2 UNK        -0.1800 
     64 N           0.6182  -11.3346  -47.2446 N.am      2 UNK        -0.5000 
     65 C           0.0379  -11.6289  -48.4135 C.2       1 UNK         0.5000 
     66 O          -0.8974  -10.9901  -48.9002 O.2       1 UNK        -0.5000 
     67 C          -2.9368  -23.0890  -46.2225 C.2       11 UNK         0.5000 
     68 O          -3.6532  -23.9892  -46.6609 O.2       11 UNK        -0.5000 
     69 N          -2.7903  -22.8204  -44.9173 N.am      12 UNK        -0.5000 
     70 CA         -3.4205  -23.5846  -43.8410 C.3       12 UNK         0.1400 
     71 CB         -3.1867  -22.8791  -42.4968 C.3       12 UNK        -0.1800 
     72 C          -2.9393  -25.0467  -43.7955 C.2       12 UNK         0.5000 
     73 O          -3.7693  -25.9524  -43.7131 O.2       12 UNK        -0.5000 
     74 N          -1.6189  -25.2543  -43.9040 N.am      13 UNK        -0.5000 
     75 CA         -0.9801  -26.5724  -43.9609 C.3       13 UNK         0.1400 
     76 CB          0.5452  -26.4042  -43.8963 C.3       13 UNK        -0.1800 
     77 C          -1.3851  -27.3889  -45.2037 C.2       13 UNK         0.5000 
     78 O          -1.5774  -28.6008  -45.1007 O.2       13 UNK        -0.5000 
     79 N          -1.5429  -26.7049  -46.3441 N.am      14 UNK        -0.5000 
     80 CA         -2.0198  -27.2660  -47.6087 C.3       14 UNK         0.1400 
     81 CB         -1.5906  -26.3333  -48.7542 C.3       14 UNK        -0.1800 
     82 C          -3.5449  -27.4917  -47.6522 C.2       14 UNK         0.5000 
     83 O          -4.0335  -28.0223  -48.6488 O.2       14 UNK        -0.5000 
     84 N          -4.2787  -27.0549  -46.6166 N.am      15 UNK        -0.5000 
     85 CA         -5.7419  -27.0770  -46.5008 C.3       15 UNK         0.1400 
     86 CB         -6.2563  -28.5243  -46.3564 C.3       15 UNK        -0.1800 
     87 C          -6.4328  -26.2949  -47.6399 C.2       15 UNK         0.5000 
     88 O          -7.4274  -26.7555  -48.2024 O.2       15 UNK        -0.5000 
     89 N          -5.8549  -25.1309  -47.9685 N.am      16 UNK        -0.5000 
     90 CA         -6.2358  -24.1901  -49.0248 C.3       16 UNK         0.1400 
     91 CB         -7.6681  -23.6566  -48.8179 C.3       16 UNK        -0.1800 
     92 C          -5.9968  -24.6990  -50.4623 C.2       16 UNK         0.5000 
     93 O          -6.4218  -24.0341  -51.4063 O.2       16 UNK        -0.5000 
     94 N          -5.2777  -25.8189  -50.6413 N.am      17 UNK        -0.5000 
     95 CA         -4.8893  -26.3272  -51.9646 C.3       17 UNK         0.1400 
     96 CB         -4.3696  -27.7660  -51.8362 C.3       17 UNK        -0.1800 
     97 C          -3.8441  -25.4372  -52.6698 C.2       17 UNK         0.5000 
     98 O          -3.7615  -25.4480  -53.8979 O.2       17 UNK        -0.5000 
     99 N          -3.0837  -24.6657  -51.8810 N.am      18 UNK        -0.5000 
    100 CA        -2.0731  -23.7130  -52.3412 C.3       18 UNK         0.1400 
    101 CB        -1.0078  -23.5626  -51.2421 C.3       18 UNK        -0.1800 
    102 C         -2.6541  -22.3359  -52.7247 C.2       18 UNK         0.5000 
    103 O         -1.8803  -21.4501  -53.0896 O.2       18 UNK        -0.5000 
    104 N         -3.9830  -22.1552  -52.6344 N.am      19 UNK        -0.5000 
    105 CA        -4.6872  -20.8774  -52.8132 C.3       19 UNK         0.1400 
    106 CB        -6.1899  -21.0755  -52.5716 C.3       19 UNK        -0.1800 
    107 C         -4.4482  -20.1629  -54.1586 C.2       19 UNK         0.5000 
    108 O         -4.5950  -18.9425  -54.2295 O.2       19 UNK        -0.5000 
    109 N         -4.0634  -20.9262  -55.1890 N.am      20 UNK        -0.5000 
    110 CA        -3.6908  -20.4290  -56.5119 C.3       20 UNK         0.1400 
    111 CB        -3.6066  -21.6211  -57.4779 C.3       20 UNK        -0.1800 
    112 C         -2.3742  -19.6231  -56.5355 C.2       20 UNK         0.5000 
    113 O         -2.1721  -18.8561  -57.4779 O.2       20 UNK        -0.5000 
    114 N         -1.4986  -19.8108  -55.5343 N.am      21 UNK        -0.5000 
    115 CA        -0.2221  -19.1042  -55.4165 C.3       21 UNK         0.1400 
    116 CB         0.7070  -19.8548  -54.4458 C.3       21 UNK        -0.1800 
    117 C         -0.4319  -17.6384  -54.9973 C.2       21 UNK         0.5000 
    118 O         -0.1845  -16.7350  -55.7964 O.2       21 UNK        -0.5000 
    119 N         -0.9051  -17.4377  -53.7591 N.am      22 UNK        -0.5000 
    120 CA        -1.2663  -16.1320  -53.1747 C.3       22 UNK         0.1400 
    121 C         -0.0872  -15.1290  -52.9699 C.2       22 UNK         0.5000 
    122 N          1.1655  -15.5645  -53.0256 N.am      22 UNK        -0.7600 
    123 O         -0.2988  -13.9497  -52.7037 O.2       22 UNK        -0.5000 
    124 C124       -2.5145  -15.5264  -53.8831 C.3       23 UNK        -0.0398 
    125 S125       -3.5500  -14.4391  -52.8407 S.3       23 UNK        -0.2404 
    126 C126       -4.6155  -15.6276  -51.9585 C.3       23 UNK        -0.0205 
    127 H127        3.1629  -11.8781  -52.6540 H         1 UNK         0.0600 
    128 H128        2.2323  -10.3823  -52.5184 H         1 UNK         0.0600 
    129 H129        1.4212  -11.8882  -52.9473 H         1 UNK         0.0600 
    130 H130        0.4061  -12.9400  -51.2583 H         1 UNK         0.3000 
    131 H131        1.4903  -13.2102  -48.6383 H         1 UNK         0.0600 
    132 H132       -0.0964  -14.8389  -49.7782 H         1 UNK         0.0800 
    133 H133       -1.3939  -13.7079  -49.5121 H         1 UNK         0.0800 
    134 H134       -2.9933  -14.2689  -47.4202 H         1 UNK         0.0800 
    135 H135       -2.6454  -15.7220  -46.5184 H         1 UNK         0.0800 
    136 H136       -3.8765  -14.4732  -49.6181 H         1 UNK         0.1150 
    137 H137       -3.6862  -18.1731  -51.7453 H         1 UNK         0.1150 
    138 H138       -1.7740  -17.8010  -47.9280 H         1 UNK         0.1150 
    139 H139       -2.0451  -19.8403  -50.9914 H         1 UNK         0.0800 
    140 H140       -1.2332  -19.7044  -49.4619 H         1 UNK         0.0800 
    141 H141       -3.7109  -20.7227  -46.8761 H         1 UNK         0.0800 
    142 H142       -2.1891  -20.0338  -47.2865 H         1 UNK         0.0800 
    143 H143       -2.0591  -22.8150  -48.1232 H         1 UNK         0.0600 
    144 H144       -0.4146  -21.1062  -46.6072 H         1 UNK         0.3000 
    145 H145        1.9524  -23.6253  -45.5842 H         1 UNK         0.0600 
    146 H146        3.4325  -21.8935  -46.6304 H         1 UNK         0.0600 
    147 H147        2.6379  -22.8993  -47.8337 H         1 UNK         0.0600 
    148 H148        2.0563  -21.2696  -47.5384 H         1 UNK         0.0600 
    149 H149        1.8495  -20.8542  -44.9923 H         1 UNK         0.3000 
    150 H150       -0.2658  -21.0501  -42.1076 H         1 UNK         0.0600 
    151 H151        2.0212  -21.5600  -41.2915 H         1 UNK         0.0600 
    152 H152        1.6854  -19.8416  -41.1487 H         1 UNK         0.0600 
    153 H153        2.7196  -20.4355  -42.4468 H         1 UNK         0.0600 
    154 H154        1.0327  -18.8857  -43.4811 H         1 UNK         0.3000 
    155 H155       -1.6530  -18.1108  -45.6957 H         1 UNK         0.0600 
    156 H156       -0.5834  -16.7679  -43.1622 H         1 UNK         0.0600 
    157 H157       -2.2676  -16.9920  -43.6107 H         1 UNK         0.0600 
    158 H158       -1.2475  -15.9070  -44.5440 H         1 UNK         0.0600 
    159 H159        0.9681  -17.0059  -45.1704 H         1 UNK         0.3000 
    160 H160        2.7085  -18.9746  -47.5798 H         1 UNK         0.0600 
    161 H161        1.9406  -16.0318  -47.8964 H         1 UNK         0.0600 
    162 H162        1.4695  -17.2885  -49.0352 H         1 UNK         0.0600 
    163 H163        3.1695  -16.9196  -48.7891 H         1 UNK         0.0600 
    164 H164        3.4916  -16.6329  -46.1772 H         1 UNK         0.3000 
    165 H165        3.9624  -17.9086  -42.9727 H         1 UNK         0.0600 
    166 H166        6.3876  -17.4491  -43.2099 H         1 UNK         0.0600 
    167 H167        5.9861  -18.9701  -43.9894 H         1 UNK         0.0600 
    168 H168        6.2610  -17.5337  -44.9679 H         1 UNK         0.0600 
    169 H169        5.0109  -15.5555  -44.1130 H         1 UNK         0.3000 
    170 H170        4.0067  -13.5541  -43.5078 H         1 UNK         0.0600 
    171 H171        3.8551  -13.9847  -45.9813 H         1 UNK         0.0600 
    172 H172        2.1037  -13.8430  -45.9070 H         1 UNK         0.0600 
    173 H173        3.1301  -12.4460  -45.5628 H         1 UNK         0.0600 
    174 H174        1.2347  -12.8656  -43.8536 H         1 UNK         0.3000 
    175 H175        0.0498  -13.0209  -40.6875 H         1 UNK         0.0600 
    176 H176        1.4128  -10.4016  -41.5242 H         1 UNK         0.0600 
    177 H177        0.0456  -10.5407  -40.4192 H         1 UNK         0.0600 
    178 H178        1.6066  -11.2103  -39.9729 H         1 UNK         0.0600 
    179 H179       -0.3310  -11.2511  -43.0192 H         1 UNK         0.3000 
    180 H180       -2.2883  -13.5962  -44.7863 H         1 UNK         0.0600 
    181 H181       -3.8883  -11.6998  -45.0025 H         1 UNK         0.0600 
    182 H182       -3.2284  -10.9624  -43.5424 H         1 UNK         0.0600 
    183 H183       -4.0431  -12.5145  -43.4538 H         1 UNK         0.0600 
    184 H184       -0.9219  -12.4854  -46.0840 H         1 UNK         0.3000 
    185 H185       -0.2901   -9.4603  -46.9364 H         1 UNK         0.0600 
    186 H186        2.1996   -9.3041  -46.5807 H         1 UNK         0.0600 
    187 H187        1.2882   -8.7088  -45.2054 H         1 UNK         0.0600 
    188 H188        2.0435  -10.2944  -45.1295 H         1 UNK         0.0600 
    189 H189        1.3990  -11.8948  -46.9372 H         1 UNK         0.3000 
    190 H190       -2.2164  -22.0289  -44.6423 H         1 UNK         0.3000 
    191 H191       -4.4958  -23.5964  -44.0316 H         1 UNK         0.0600 
    192 H192       -3.6909  -23.4076  -41.6869 H         1 UNK         0.0600 
    193 H193       -3.5759  -21.8608  -42.5137 H         1 UNK         0.0600 
    194 H194       -2.1280  -22.8267  -42.2443 H         1 UNK         0.0600 
    195 H195       -0.9981  -24.4490  -43.9290 H         1 UNK         0.3000 
    196 H196       -1.2979  -27.1330  -43.0795 H         1 UNK         0.0600 
    197 H197        0.9217  -25.8256  -44.7403 H         1 UNK         0.0600 
    198 H198        0.8470  -25.8947  -42.9811 H         1 UNK         0.0600 
    199 H199        1.0469  -27.3726  -43.9109 H         1 UNK         0.0600 
    200 H200       -1.2885  -25.7211  -46.3596 H         1 UNK         0.3000 
    201 H201       -1.5431  -28.2361  -47.7619 H         1 UNK         0.0600 
    202 H202       -2.0495  -25.3485  -48.6619 H         1 UNK         0.0600 
    203 H203       -1.8736  -26.7400  -49.7253 H         1 UNK         0.0600 
    204 H204       -0.5090  -26.1978  -48.7673 H         1 UNK         0.0600 
    205 H205       -3.7925  -26.6067  -45.8500 H         1 UNK         0.3000 
    206 H206       -5.9828  -26.5475  -45.5780 H         1 UNK         0.0600 
    207 H207       -5.7568  -29.0385  -45.5353 H         1 UNK         0.0600 
    208 H208       -7.3260  -28.5389  -46.1450 H         1 UNK         0.0600 
    209 H209       -6.0946  -29.1059  -47.2644 H         1 UNK         0.0600 
    210 H210       -5.0303  -24.8506  -47.4375 H         1 UNK         0.3000 
    211 H211       -5.5603  -23.3415  -48.9060 H         1 UNK         0.0600 
    212 H212       -7.8783  -22.8288  -49.4962 H         1 UNK         0.0600 
    213 H213       -7.8077  -23.2845  -47.8030 H         1 UNK         0.0600 
    214 H214       -8.4194  -24.4246  -49.0022 H         1 UNK         0.0600 
    215 H215       -4.9799  -26.3571  -49.8368 H         1 UNK         0.3000 
    216 H216       -5.7814  -26.3483  -52.5942 H         1 UNK         0.0600 
    217 H217       -3.4418  -27.8111  -51.2658 H         1 UNK         0.0600 
    218 H218       -4.1688  -28.1961  -52.8182 H         1 UNK         0.0600 
    219 H219       -5.0994  -28.4084  -51.3430 H         1 UNK         0.0600 
    220 H220       -3.2333  -24.7171  -50.8850 H         1 UNK         0.3000 
    221 H221       -1.5847  -24.1144  -53.2314 H         1 UNK         0.0600 
    222 H222       -0.5637  -24.5246  -50.9863 H         1 UNK         0.0600 
    223 H223       -1.4269  -23.1322  -50.3334 H         1 UNK         0.0600 
    224 H224       -0.1960  -22.9104  -51.5668 H         1 UNK         0.0600 
    225 H225       -4.5550  -22.9357  -52.3412 H         1 UNK         0.3000 
    226 H226       -4.3204  -20.2136  -52.0342 H         1 UNK         0.0600 
    227 H227       -6.6080  -21.8325  -53.2360 H         1 UNK         0.0600 
    228 H228       -6.3832  -21.3809  -51.5434 H         1 UNK         0.0600 
    229 H229       -6.7425  -20.1495  -52.7368 H         1 UNK         0.0600 
    230 H230       -3.9645  -21.9185  -55.0322 H         1 UNK         0.3000 
    231 H231       -4.4852  -19.7644  -56.8580 H         1 UNK         0.0600 
    232 H232       -2.8392  -22.3331  -57.1713 H         1 UNK         0.0600 
    233 H233       -3.3625  -21.2901  -58.4883 H         1 UNK         0.0600 
    234 H234       -4.5566  -22.1530  -57.5331 H         1 UNK         0.0600 
    235 H235       -1.7393  -20.4420  -54.7757 H         1 UNK         0.3000 
    236 H236        0.2615  -19.1032  -56.3959 H         1 UNK         0.0600 
    237 H237        0.8980  -20.8698  -54.7944 H         1 UNK         0.0600 
    238 H238        1.6720  -19.3532  -54.3648 H         1 UNK         0.0600 
    239 H239        0.2888  -19.9250  -53.4415 H         1 UNK         0.0600 
    240 H240       -1.0736  -18.2435  -53.1752 H         1 UNK         0.3000 
    241 H241       -1.5447  -16.3723  -52.1534 H         1 UNK         0.0600 
    242 H242        1.9241  -14.9176  -52.8857 H         1 UNK         0.3800 
    243 H243        1.3629  -16.5298  -53.2316 H         1 UNK         0.3800 
    244 H244       -3.1597  -16.3254  -54.2524 H         1 UNK         0.0800 
    245 H245       -2.2094  -14.9686  -54.7697 H         1 UNK         0.0800 
    246 H246       -5.4913  -15.1007  -51.5772 H         1 UNK         0.0800 
    247 H247       -4.9898  -16.3822  -52.6526 H         1 UNK         0.0800 
@<TRIPOS>BOND
     1    1    2 1    
     2    1  127 1    
     3    1  128 1    
     4    1  129 1    
     5    2    3 2    
     6    2    4 am   BACKBONE|DICT|INTERRES
     7    4    5 1    
     8    4  130 1    
     9    5    6 1    
    10    5   65 1    
    11    5  131 1    
    12    6    7 1    
    13    6  132 1    
    14    6  133 1    
    15    7    8 1    
    16    8    9 1    
    17    8  134 1    
    18    8  135 1    
    19    9   10 ar   
    20    9   14 ar   
    21   10   11 ar   
    22   10  136 1    
    23   11   12 ar   
    24   11  126 1    
    25   12   13 ar   
    26   12  137 1    
    27   13   14 ar   
    28   13   15 1    
    29   14  138 1    
    30   15   16 1    
    31   15  139 1    
    32   15  140 1    
    33   16   17 1    
    34   17   18 1    
    35   17  141 1    
    36   17  142 1    
    37   18   19 1    
    38   18   67 1    
    39   18  143 1    
    40   19   20 am   BACKBONE|DICT|INTERRES
    41   19  144 1    
    42   20   21 2    
    43   20   22 1    
    44   22   23 1    
    45   22   24 1    
    46   22  145 1    
    47   23  146 1    
    48   23  147 1    
    49   23  148 1    
    50   24   25 am   BACKBONE|DICT|INTERRES
    51   24  149 1    
    52   25   26 2    
    53   25   27 1    
    54   27   28 1    
    55   27   29 1    
    56   27  150 1    
    57   28  151 1    
    58   28  152 1    
    59   28  153 1    
    60   29   30 am   BACKBONE|DICT|INTERRES
    61   29  154 1    
    62   30   31 2    
    63   30   32 1    
    64   32   33 1    
    65   32   34 1    
    66   32  155 1    
    67   33  156 1    
    68   33  157 1    
    69   33  158 1    
    70   34   35 am   BACKBONE|DICT|INTERRES
    71   34  159 1    
    72   35   36 2    
    73   35   37 1    
    74   37   38 1    
    75   37   39 1    
    76   37  160 1    
    77   38  161 1    
    78   38  162 1    
    79   38  163 1    
    80   39   40 am   BACKBONE|DICT|INTERRES
    81   39  164 1    
    82   40   41 2    
    83   40   42 1    
    84   42   43 1    
    85   42   44 1    
    86   42  165 1    
    87   43  166 1    
    88   43  167 1    
    89   43  168 1    
    90   44   45 am   BACKBONE|DICT|INTERRES
    91   44  169 1    
    92   45   46 2    
    93   45   47 1    
    94   47   48 1    
    95   47   49 1    
    96   47  170 1    
    97   48  171 1    
    98   48  172 1    
    99   48  173 1    
   100   49   50 am   BACKBONE|DICT|INTERRES
   101   49  174 1    
   102   50   51 2    
   103   50   52 1    
   104   52   53 1    
   105   52   54 1    
   106   52  175 1    
   107   53  176 1    
   108   53  177 1    
   109   53  178 1    
   110   54   55 am   BACKBONE|DICT|INTERRES
   111   54  179 1    
   112   55   56 2    
   113   55   57 1    
   114   57   58 1    
   115   57   59 1    
   116   57  180 1    
   117   58  181 1    
   118   58  182 1    
   119   58  183 1    
   120   59   60 am   BACKBONE|DICT|INTERRES
   121   59  184 1    
   122   60   61 2    
   123   60   62 1    
   124   62   63 1    
   125   62   64 1    
   126   62  185 1    
   127   63  186 1    
   128   63  187 1    
   129   63  188 1    
   130   64   65 am   BACKBONE|DICT|INTERRES
   131   64  189 1    
   132   65   66 2    
   133   67   68 2    
   134   67   69 am   BACKBONE|DICT|INTERRES
   135   69   70 1    
   136   69  190 1    
   137   70   71 1    
   138   70   72 1    
   139   70  191 1    
   140   71  192 1    
   141   71  193 1    
   142   71  194 1    
   143   72   73 2    
   144   72   74 am   BACKBONE|DICT|INTERRES
   145   74   75 1    
   146   74  195 1    
   147   75   76 1    
   148   75   77 1    
   149   75  196 1    
   150   76  197 1    
   151   76  198 1    
   152   76  199 1    
   153   77   78 2    
   154   77   79 am   BACKBONE|DICT|INTERRES
   155   79   80 1    
   156   79  200 1    
   157   80   81 1    
   158   80   82 1    
   159   80  201 1    
   160   81  202 1    
   161   81  203 1    
   162   81  204 1    
   163   82   83 2    
   164   82   84 am   BACKBONE|DICT|INTERRES
   165   84   85 1    
   166   84  205 1    
   167   85   86 1    
   168   85   87 1    
   169   85  206 1    
   170   86  207 1    
   171   86  208 1    
   172   86  209 1    
   173   87   88 2    
   174   87   89 am   BACKBONE|DICT|INTERRES
   175   89   90 1    
   176   89  210 1    
   177   90   91 1    
   178   90   92 1    
   179   90  211 1    
   180   91  212 1    
   181   91  213 1    
   182   91  214 1    
   183   92   93 2    
   184   92   94 am   BACKBONE|DICT|INTERRES
   185   94   95 1    
   186   94  215 1    
   187   95   96 1    
   188   95   97 1    
   189   95  216 1    
   190   96  217 1    
   191   96  218 1    
   192   96  219 1    
   193   97   98 2    
   194   97   99 am   BACKBONE|DICT|INTERRES
   195   99  100 1    
   196   99  220 1    
   197  100  101 1    
   198  100  102 1    
   199  100  221 1    
   200  101  222 1    
   201  101  223 1    
   202  101  224 1    
   203  102  103 2    
   204  102  104 am   BACKBONE|DICT|INTERRES
   205  104  105 1    
   206  104  225 1    
   207  105  106 1    
   208  105  107 1    
   209  105  226 1    
   210  106  227 1    
   211  106  228 1    
   212  106  229 1    
   213  107  108 2    
   214  107  109 am   BACKBONE|DICT|INTERRES
   215  109  110 1    
   216  109  230 1    
   217  110  111 1    
   218  110  112 1    
   219  110  231 1    
   220  111  232 1    
   221  111  233 1    
   222  111  234 1    
   223  112  113 2    
   224  112  114 am   BACKBONE|DICT|INTERRES
   225  114  115 1    
   226  114  235 1    
   227  115  116 1    
   228  115  117 1    
   229  115  236 1    
   230  116  237 1    
   231  116  238 1    
   232  116  239 1    
   233  117  118 2    
   234  117  119 am   BACKBONE|DICT|INTERRES
   235  119  120 1    
   236  119  240 1    
   237  120  121 1    
   238  120  124 1    
   239  120  241 1    
   240  121  122 am   BACKBONE|DICT|INTERRES
   241  121  123 2    
   242  122  242 1    
   243  122  243 1    
   244  124  125 1    
   245  124  244 1    
   246  124  245 1    
   247  125  126 1    
   248  126  246 1    
   249  126  247 1    
@<TRIPOS>SUBSTRUCTURE
     1 UNK         1 GROUP             0       ****    0 ROOT    
