@<TRIPOS>MOLECULE
3R540
247   249    1
SMALL
USER_CHARGES


@<TRIPOS>ATOM
      1 CA          4.9228  -14.3780  -46.2142 C.3       0 UNK        -0.1800 
      2 C           4.3817  -14.2078  -47.6271 C.2       0 UNK         0.5000 
      3 O           4.6251  -13.1783  -48.2558 O.2       0 UNK        -0.5000 
      4 N           3.6416  -15.2130  -48.1148 N.am      1 UNK        -0.5000 
      5 CA          3.0071  -15.2822  -49.4415 C.3       1 UNK         0.1400 
      6 C6          4.0275  -15.3401  -50.6121 C.3       23 UNK        -0.0398 
      7 S7          5.1902  -16.7437  -50.4768 S.3       23 UNK        -0.2404 
      8 C8          4.5925  -17.8619  -51.7847 C.3       23 UNK        -0.0205 
      9 C9          3.4086  -18.7019  -51.3273 C.ar      23 UNK        -0.0193 
     10 C10         2.1043  -18.2090  -51.4346 C.ar      23 UNK        -0.1150 
     11 C11         1.0158  -18.9870  -51.0308 C.ar      23 UNK        -0.0193 
     12 C12         1.2380  -20.2744  -50.5331 C.ar      23 UNK        -0.1150 
     13 C13         2.5343  -20.7898  -50.4454 C.ar      23 UNK        -0.0193 
     14 C14         3.6160  -19.9937  -50.8327 C.ar      23 UNK        -0.1150 
     15 C15         2.7591  -22.2286  -49.9992 C.3       23 UNK        -0.0205 
     16 S16         3.5169  -22.3722  -48.3473 S.3       23 UNK        -0.2404 
     17 C17         2.2656  -21.6275  -47.2490 C.3       23 UNK        -0.0398 
     18 CA          1.2420  -22.6481  -46.6855 C.3       11 UNK         0.1400 
     19 N           0.6953  -22.2248  -45.3915 N.am      11 UNK        -0.5000 
     20 C          -0.1427  -22.9466  -44.6313 C.2       10 UNK         0.5000 
     21 O          -0.5022  -24.0918  -44.9050 O.2       10 UNK        -0.5000 
     22 CA         -0.7215  -22.2529  -43.3832 C.3       10 UNK         0.1400 
     23 CB          0.2924  -22.2518  -42.2297 C.3       10 UNK        -0.1800 
     24 N          -1.1583  -20.8834  -43.6579 N.am      10 UNK        -0.5000 
     25 C          -2.1475  -20.5581  -44.5034 C.2       9 UNK         0.5000 
     26 O          -2.8511  -21.3854  -45.0827 O.2       9 UNK        -0.5000 
     27 CA         -2.3431  -19.0595  -44.7974 C.3       9 UNK         0.1400 
     28 CB         -3.1914  -18.3827  -43.7110 C.3       9 UNK        -0.1800 
     29 N          -1.0714  -18.3527  -44.9404 N.am      9 UNK        -0.5000 
     30 C          -0.1788  -18.5962  -45.9107 C.2       8 UNK         0.5000 
     31 O          -0.3275  -19.4422  -46.7891 O.2       8 UNK        -0.5000 
     32 CA          1.1376  -17.8111  -45.8431 C.3       8 UNK         0.1400 
     33 CB          0.9362  -16.3909  -46.3776 C.3       8 UNK        -0.1800 
     34 N           1.6623  -17.7562  -44.4792 N.am      8 UNK        -0.5000 
     35 C           2.1317  -18.8209  -43.8120 C.2       7 UNK         0.5000 
     36 O           2.2083  -19.9491  -44.2953 O.2       7 UNK        -0.5000 
     37 CA          2.5440  -18.6001  -42.3457 C.3       7 UNK         0.1400 
     38 CB          4.0063  -18.1379  -42.2629 C.3       7 UNK        -0.1800 
     39 N           1.6920  -17.6307  -41.6577 N.am      7 UNK        -0.5000 
     40 C           0.3800  -17.7881  -41.4276 C.2       6 UNK         0.5000 
     41 O          -0.2485  -18.8035  -41.7269 O.2       6 UNK        -0.5000 
     42 CA         -0.3560  -16.5873  -40.8016 C.3       6 UNK         0.1400 
     43 CB         -0.3879  -16.7123  -39.2714 C.3       6 UNK        -0.1800 
     44 N           0.2458  -15.3012  -41.1724 N.am      6 UNK        -0.5000 
     45 C           0.2302  -14.7964  -42.4131 C.2       5 UNK         0.5000 
     46 O          -0.3340  -15.3451  -43.3613 O.2       5 UNK        -0.5000 
     47 CA          1.0380  -13.5110  -42.6439 C.3       5 UNK         0.1400 
     48 CB          2.2941  -13.8102  -43.4783 C.3       5 UNK        -0.1800 
     49 N           0.2225  -12.5299  -43.3514 N.am      5 UNK        -0.5000 
     50 C          -0.4108  -11.5039  -42.7656 C.2       4 UNK         0.5000 
     51 O          -0.3407  -11.2597  -41.5600 O.2       4 UNK        -0.5000 
     52 CA         -1.2646  -10.5835  -43.6637 C.3       4 UNK         0.1400 
     53 CB         -0.4702   -9.3274  -44.0535 C.3       4 UNK        -0.1800 
     54 N          -1.7378  -11.2373  -44.8827 N.am      4 UNK        -0.5000 
     55 C          -2.6317  -12.2335  -44.9193 C.2       3 UNK         0.5000 
     56 O          -3.2492  -12.6269  -43.9289 O.2       3 UNK        -0.5000 
     57 CA         -2.8779  -12.9144  -46.2815 C.3       3 UNK         0.1400 
     58 CB         -4.2633  -12.5341  -46.8287 C.3       3 UNK        -0.1800 
     59 N          -1.8781  -12.6515  -47.3259 N.am      3 UNK        -0.5000 
     60 C          -0.5736  -12.9478  -47.2621 C.2       2 UNK         0.5000 
     61 O           0.0006  -13.3325  -46.2412 O.2       2 UNK        -0.5000 
     62 CA          0.2355  -12.7385  -48.5463 C.3       2 UNK         0.1400 
     63 CB          0.8142  -11.3146  -48.6062 C.3       2 UNK        -0.1800 
     64 N           1.3151  -13.7163  -48.5656 N.am      2 UNK        -0.5000 
     65 C           1.9192  -14.1988  -49.6577 C.2       1 UNK         0.5000 
     66 O           1.6358  -13.8300  -50.7988 O.2       1 UNK        -0.5000 
     67 C           0.1201  -22.9283  -47.7045 C.2       11 UNK         0.5000 
     68 O           0.1098  -23.9893  -48.3263 O.2       11 UNK        -0.5000 
     69 N          -0.8201  -21.9836  -47.8288 N.am      12 UNK        -0.5000 
     70 CA         -1.9770  -22.0489  -48.7161 C.3       12 UNK         0.1400 
     71 CB         -2.7314  -20.7169  -48.6476 C.3       12 UNK        -0.1800 
     72 C          -2.9077  -23.2319  -48.4081 C.2       12 UNK         0.5000 
     73 O          -3.3313  -23.9223  -49.3348 O.2       12 UNK        -0.5000 
     74 N          -3.1685  -23.4720  -47.1159 N.am      13 UNK        -0.5000 
     75 CA         -3.9423  -24.6108  -46.6241 C.3       13 UNK         0.1400 
     76 CB         -4.2194  -24.4326  -45.1239 C.3       13 UNK        -0.1800 
     77 C          -3.2559  -25.9623  -46.8954 C.2       13 UNK         0.5000 
     78 O          -3.9347  -26.9154  -47.2788 O.2       13 UNK        -0.5000 
     79 N          -1.9289  -26.0179  -46.7105 N.am      14 UNK        -0.5000 
     80 CA         -1.1055  -27.1978  -46.9797 C.3       14 UNK         0.1400 
     81 CB          0.2880  -27.0062  -46.3613 C.3       14 UNK        -0.1800 
     82 C          -0.9999  -27.5178  -48.4823 C.2       14 UNK         0.5000 
     83 O          -1.1052  -28.6843  -48.8635 O.2       14 UNK        -0.5000 
     84 N          -0.8049  -26.4789  -49.3057 N.am      15 UNK        -0.5000 
     85 CA         -0.7336  -26.5699  -50.7644 C.3       15 UNK         0.1400 
     86 CB         -0.1796  -25.2508  -51.3233 C.3       15 UNK        -0.1800 
     87 C          -2.0900  -26.8959  -51.4149 C.2       15 UNK         0.5000 
     88 O          -2.1181  -27.5615  -52.4507 O.2       15 UNK        -0.5000 
     89 N          -3.1800  -26.4008  -50.8109 N.am      16 UNK        -0.5000 
     90 CA         -4.5959  -26.5357  -51.1748 C.3       16 UNK         0.1400 
     91 CB         -5.0374  -28.0104  -51.2075 C.3       16 UNK        -0.1800 
     92 C          -4.9887  -25.7990  -52.4694 C.2       16 UNK         0.5000 
     93 O          -6.0037  -25.1043  -52.4853 O.2       16 UNK        -0.5000 
     94 N          -4.1731  -25.9225  -53.5229 N.am      17 UNK        -0.5000 
     95 CA         -4.3399  -25.2298  -54.8029 C.3       17 UNK         0.1400 
     96 CB         -3.3943  -25.8599  -55.8363 C.3       17 UNK        -0.1800 
     97 C          -4.0927  -23.7115  -54.7012 C.2       17 UNK         0.5000 
     98 O          -4.6626  -22.9465  -55.4792 O.2       17 UNK        -0.5000 
     99 N          -3.2622  -23.3039  -53.7321 N.am      18 UNK        -0.5000 
    100 CA        -2.8981  -21.9129  -53.4591 C.3       18 UNK         0.1400 
    101 CB        -1.4486  -21.8777  -52.9482 C.3       18 UNK        -0.1800 
    102 C         -3.8650  -21.2120  -52.4798 C.2       18 UNK         0.5000 
    103 O         -3.6009  -20.0751  -52.0926 O.2       18 UNK        -0.5000 
    104 N         -4.9682  -21.8772  -52.1023 N.am      19 UNK        -0.5000 
    105 CA        -6.0061  -21.3688  -51.1964 C.3       19 UNK         0.1400 
    106 CB        -6.7991  -22.5561  -50.6283 C.3       19 UNK        -0.1800 
    107 C         -6.9459  -20.3145  -51.8227 C.2       19 UNK         0.5000 
    108 O         -7.8677  -19.8524  -51.1480 O.2       19 UNK        -0.5000 
    109 N         -6.7129  -19.9426  -53.0888 N.am      20 UNK        -0.5000 
    110 CA        -7.3141  -18.7843  -53.7453 C.3       20 UNK         0.1400 
    111 CB        -7.1115  -18.9121  -55.2649 C.3       20 UNK        -0.1800 
    112 C         -6.6773  -17.5002  -53.1782 C.2       20 UNK         0.5000 
    113 O         -5.6027  -17.1009  -53.6311 O.2       20 UNK        -0.5000 
    114 N         -7.3262  -16.9281  -52.1541 N.am      21 UNK        -0.5000 
    115 CA        -6.8130  -15.8863  -51.2574 C.3       21 UNK         0.1400 
    116 CB        -6.5242  -14.5694  -52.0142 C.3       21 UNK        -0.1800 
    117 C         -5.6299  -16.4235  -50.4206 C.2       21 UNK         0.5000 
    118 O         -5.6926  -17.5699  -49.9731 O.2       21 UNK        -0.5000 
    119 N         -4.5924  -15.6033  -50.1994 N.am      22 UNK        -0.5000 
    120 CA        -3.3491  -15.9646  -49.4872 C.3       22 UNK         0.1400 
    121 C         -3.5017  -16.1873  -47.9476 C.2       22 UNK         0.5000 
    122 N         -4.6738  -15.9972  -47.3541 N.am      22 UNK        -0.7600 
    123 O         -2.5317  -16.4838  -47.2615 O.2       22 UNK        -0.5000 
    124 C124       -2.6137  -17.1363  -50.1985 C.3       23 UNK        -0.0398 
    125 S125       -0.8030  -17.1666  -49.9748 S.3       23 UNK        -0.2404 
    126 C126       -0.4029  -18.4624  -51.1852 C.3       23 UNK        -0.0205 
    127 H127        6.0119  -14.4146  -46.2319 H         1 UNK         0.0600 
    128 H128        4.5580  -15.2924  -45.7455 H         1 UNK         0.0600 
    129 H129        4.6191  -13.5355  -45.5929 H         1 UNK         0.0600 
    130 H130        3.5213  -16.0394  -47.5481 H         1 UNK         0.3000 
    131 H131        2.4591  -16.2250  -49.4455 H         1 UNK         0.0600 
    132 H132        3.5140  -15.4036  -51.5720 H         1 UNK         0.0800 
    133 H133        4.6107  -14.4193  -50.6532 H         1 UNK         0.0800 
    134 H134        5.4146  -18.5169  -52.0773 H         1 UNK         0.0800 
    135 H135        4.3341  -17.2951  -52.6802 H         1 UNK         0.0800 
    136 H136        1.9310  -17.2208  -51.8362 H         1 UNK         0.1150 
    137 H137        0.3976  -20.8867  -50.2410 H         1 UNK         0.1150 
    138 H138        4.6196  -20.3903  -50.7670 H         1 UNK         0.1150 
    139 H139        1.8263  -22.7915  -50.0279 H         1 UNK         0.0800 
    140 H140        3.4162  -22.7178  -50.7196 H         1 UNK         0.0800 
    141 H141        1.7815  -20.7808  -47.7367 H         1 UNK         0.0800 
    142 H142        2.8360  -21.1954  -46.4278 H         1 UNK         0.0800 
    143 H143        1.7609  -23.5912  -46.5013 H         1 UNK         0.0600 
    144 H144        0.9730  -21.3038  -45.0671 H         1 UNK         0.3000 
    145 H145       -1.5968  -22.8221  -43.0634 H         1 UNK         0.0600 
    146 H146        1.1929  -21.6924  -42.4823 H         1 UNK         0.0600 
    147 H147       -0.1346  -21.8077  -41.3303 H         1 UNK         0.0600 
    148 H148        0.5974  -23.2684  -41.9787 H         1 UNK         0.0600 
    149 H149       -0.6648  -20.1373  -43.1782 H         1 UNK         0.3000 
    150 H150       -2.8764  -18.9723  -45.7464 H         1 UNK         0.0600 
    151 H151       -4.1662  -18.8640  -43.6240 H         1 UNK         0.0600 
    152 H152       -3.3659  -17.3326  -43.9470 H         1 UNK         0.0600 
    153 H153       -2.7132  -18.4315  -42.7328 H         1 UNK         0.0600 
    154 H154       -0.8686  -17.6272  -44.2666 H         1 UNK         0.3000 
    155 H155        1.8743  -18.3152  -46.4725 H         1 UNK         0.0600 
    156 H156        0.0890  -15.9020  -45.8971 H         1 UNK         0.0600 
    157 H157        1.8144  -15.7716  -46.2111 H         1 UNK         0.0600 
    158 H158        0.7292  -16.4076  -47.4474 H         1 UNK         0.0600 
    159 H159        1.5698  -16.8766  -43.9931 H         1 UNK         0.3000 
    160 H160        2.4546  -19.5564  -41.8262 H         1 UNK         0.0600 
    161 H161        4.6693  -18.8532  -42.7516 H         1 UNK         0.0600 
    162 H162        4.1528  -17.1712  -42.7464 H         1 UNK         0.0600 
    163 H163        4.3340  -18.0490  -41.2270 H         1 UNK         0.0600 
    164 H164        2.1282  -16.7694  -41.3652 H         1 UNK         0.3000 
    165 H165       -1.3846  -16.6027  -41.1685 H         1 UNK         0.0600 
    166 H166       -0.9672  -15.9056  -38.8218 H         1 UNK         0.0600 
    167 H167       -0.8510  -17.6519  -38.9669 H         1 UNK         0.0600 
    168 H168        0.6148  -16.6864  -38.8428 H         1 UNK         0.0600 
    169 H169        0.7222  -14.7964  -40.4385 H         1 UNK         0.3000 
    170 H170        1.3637  -13.1139  -41.6802 H         1 UNK         0.0600 
    171 H171        2.9190  -14.5635  -42.9971 H         1 UNK         0.0600 
    172 H172        2.0389  -14.1773  -44.4723 H         1 UNK         0.0600 
    173 H173        2.9026  -12.9145  -43.6035 H         1 UNK         0.0600 
    174 H174        0.0639  -12.7182  -44.3375 H         1 UNK         0.3000 
    175 H175       -2.1359  -10.2721  -43.0837 H         1 UNK         0.0600 
    176 H176        0.4068   -9.5764  -44.6526 H         1 UNK         0.0600 
    177 H177       -1.0845   -8.6337  -44.6279 H         1 UNK         0.0600 
    178 H178       -0.1222   -8.7945  -43.1676 H         1 UNK         0.0600 
    179 H179       -1.2752  -10.9854  -45.7431 H         1 UNK         0.3000 
    180 H180       -2.8662  -13.9879  -46.0880 H         1 UNK         0.0600 
    181 H181       -4.3301  -11.4668  -47.0431 H         1 UNK         0.0600 
    182 H182       -5.0482  -12.7751  -46.1107 H         1 UNK         0.0600 
    183 H183       -4.4906  -13.0762  -47.7466 H         1 UNK         0.0600 
    184 H184       -2.2436  -12.2850  -48.1927 H         1 UNK         0.3000 
    185 H185       -0.4204  -12.9067  -49.4033 H         1 UNK         0.0600 
    186 H186        1.3782  -11.1557  -49.5255 H         1 UNK         0.0600 
    187 H187        0.0212  -10.5665  -48.5786 H         1 UNK         0.0600 
    188 H188        1.4830  -11.1189  -47.7669 H         1 UNK         0.0600 
    189 H189        1.5660  -14.0734  -47.6529 H         1 UNK         0.3000 
    190 H190       -0.7091  -21.1162  -47.3045 H         1 UNK         0.3000 
    191 H191       -1.6011  -22.1773  -49.7304 H         1 UNK         0.0600 
    192 H192       -3.1934  -20.5587  -47.6733 H         1 UNK         0.0600 
    193 H193       -3.5176  -20.6739  -49.3971 H         1 UNK         0.0600 
    194 H194       -2.0585  -19.8812  -48.8338 H         1 UNK         0.0600 
    195 H195       -2.8190  -22.8226  -46.4166 H         1 UNK         0.3000 
    196 H196       -4.9001  -24.6141  -47.1486 H         1 UNK         0.0600 
    197 H197       -4.8060  -25.2645  -44.7322 H         1 UNK         0.0600 
    198 H198       -4.7829  -23.5189  -44.9339 H         1 UNK         0.0600 
    199 H199       -3.2952  -24.3801  -44.5473 H         1 UNK         0.0600 
    200 H200       -1.4474  -25.1998  -46.3513 H         1 UNK         0.3000 
    201 H201       -1.5746  -28.0541  -46.4906 H         1 UNK         0.0600 
    202 H202        0.2228  -26.8617  -45.2828 H         1 UNK         0.0600 
    203 H203        0.8023  -26.1419  -46.7824 H         1 UNK         0.0600 
    204 H204        0.9166  -27.8802  -46.5355 H         1 UNK         0.0600 
    205 H205       -0.6567  -25.5565  -48.9004 H         1 UNK         0.3000 
    206 H206       -0.0392  -27.3713  -51.0250 H         1 UNK         0.0600 
    207 H207        0.8301  -25.0629  -50.9578 H         1 UNK         0.0600 
    208 H208       -0.1342  -25.2687  -52.4130 H         1 UNK         0.0600 
    209 H209       -0.8016  -24.4056  -51.0295 H         1 UNK         0.0600 
    210 H210       -3.0232  -25.7789  -50.0237 H         1 UNK         0.3000 
    211 H211       -5.1448  -26.0514  -50.3652 H         1 UNK         0.0600 
    212 H212       -4.5515  -28.5670  -52.0090 H         1 UNK         0.0600 
    213 H213       -6.1138  -28.0889  -51.3640 H         1 UNK         0.0600 
    214 H214       -4.8081  -28.5086  -50.2653 H         1 UNK         0.0600 
    215 H215       -3.3657  -26.5318  -53.4198 H         1 UNK         0.3000 
    216 H216       -5.3676  -25.3769  -55.1413 H         1 UNK         0.0600 
    217 H217       -3.5049  -25.3822  -56.8107 H         1 UNK         0.0600 
    218 H218       -3.6068  -26.9209  -55.9692 H         1 UNK         0.0600 
    219 H219       -2.3497  -25.7619  -55.5379 H         1 UNK         0.0600 
    220 H220       -2.8603  -24.0039  -53.1266 H         1 UNK         0.3000 
    221 H221       -2.9303  -21.3469  -54.3924 H         1 UNK         0.0600 
    222 H222       -1.3527  -22.3545  -51.9754 H         1 UNK         0.0600 
    223 H223       -0.7736  -22.3854  -53.6375 H         1 UNK         0.0600 
    224 H224       -1.0918  -20.8526  -52.8519 H         1 UNK         0.0600 
    225 H225       -5.1195  -22.8065  -52.4705 H         1 UNK         0.3000 
    226 H226       -5.5156  -20.8724  -50.3592 H         1 UNK         0.0600 
    227 H227       -6.1371  -23.2888  -50.1655 H         1 UNK         0.0600 
    228 H228       -7.5027  -22.2282  -49.8622 H         1 UNK         0.0600 
    229 H229       -7.3737  -23.0612  -51.4051 H         1 UNK         0.0600 
    230 H230       -5.9262  -20.3626  -53.5601 H         1 UNK         0.3000 
    231 H231       -8.3878  -18.7705  -53.5463 H         1 UNK         0.0600 
    232 H232       -7.5291  -18.0500  -55.7863 H         1 UNK         0.0600 
    233 H233       -7.6092  -19.8005  -55.6540 H         1 UNK         0.0600 
    234 H234       -6.0557  -18.9781  -55.5310 H         1 UNK         0.0600 
    235 H235       -8.1545  -17.4008  -51.8175 H         1 UNK         0.3000 
    236 H236       -7.6145  -15.6832  -50.5460 H         1 UNK         0.0600 
    237 H237       -6.3357  -13.7496  -51.3202 H         1 UNK         0.0600 
    238 H238       -7.3777  -14.2764  -52.6256 H         1 UNK         0.0600 
    239 H239       -5.6590  -14.6513  -52.6727 H         1 UNK         0.0600 
    240 H240       -4.6265  -14.6693  -50.5816 H         1 UNK         0.3000 
    241 H241       -2.7181  -15.0798  -49.5770 H         1 UNK         0.0600 
    242 H242       -5.4914  -15.7702  -47.8945 H         1 UNK         0.3800 
    243 H243       -4.7485  -16.1364  -46.3601 H         1 UNK         0.3800 
    244 H244       -3.0341  -18.0933  -49.8898 H         1 UNK         0.0800 
    245 H245       -2.7916  -17.0778  -51.2737 H         1 UNK         0.0800 
    246 H246       -1.1172  -19.2791  -51.0734 H         1 UNK         0.0800 
    247 H247       -0.5405  -18.0707  -52.1939 H         1 UNK         0.0800 
@<TRIPOS>BOND
     1    1    2 1    
     2    1  127 1    
     3    1  128 1    
     4    1  129 1    
     5    2    3 2    
     6    2    4 am   BACKBONE|DICT|INTERRES
     7    4    5 1    
     8    4  130 1    
     9    5    6 1    
    10    5   65 1    
    11    5  131 1    
    12    6    7 1    
    13    6  132 1    
    14    6  133 1    
    15    7    8 1    
    16    8    9 1    
    17    8  134 1    
    18    8  135 1    
    19    9   10 ar   
    20    9   14 ar   
    21   10   11 ar   
    22   10  136 1    
    23   11   12 ar   
    24   11  126 1    
    25   12   13 ar   
    26   12  137 1    
    27   13   14 ar   
    28   13   15 1    
    29   14  138 1    
    30   15   16 1    
    31   15  139 1    
    32   15  140 1    
    33   16   17 1    
    34   17   18 1    
    35   17  141 1    
    36   17  142 1    
    37   18   19 1    
    38   18   67 1    
    39   18  143 1    
    40   19   20 am   BACKBONE|DICT|INTERRES
    41   19  144 1    
    42   20   21 2    
    43   20   22 1    
    44   22   23 1    
    45   22   24 1    
    46   22  145 1    
    47   23  146 1    
    48   23  147 1    
    49   23  148 1    
    50   24   25 am   BACKBONE|DICT|INTERRES
    51   24  149 1    
    52   25   26 2    
    53   25   27 1    
    54   27   28 1    
    55   27   29 1    
    56   27  150 1    
    57   28  151 1    
    58   28  152 1    
    59   28  153 1    
    60   29   30 am   BACKBONE|DICT|INTERRES
    61   29  154 1    
    62   30   31 2    
    63   30   32 1    
    64   32   33 1    
    65   32   34 1    
    66   32  155 1    
    67   33  156 1    
    68   33  157 1    
    69   33  158 1    
    70   34   35 am   BACKBONE|DICT|INTERRES
    71   34  159 1    
    72   35   36 2    
    73   35   37 1    
    74   37   38 1    
    75   37   39 1    
    76   37  160 1    
    77   38  161 1    
    78   38  162 1    
    79   38  163 1    
    80   39   40 am   BACKBONE|DICT|INTERRES
    81   39  164 1    
    82   40   41 2    
    83   40   42 1    
    84   42   43 1    
    85   42   44 1    
    86   42  165 1    
    87   43  166 1    
    88   43  167 1    
    89   43  168 1    
    90   44   45 am   BACKBONE|DICT|INTERRES
    91   44  169 1    
    92   45   46 2    
    93   45   47 1    
    94   47   48 1    
    95   47   49 1    
    96   47  170 1    
    97   48  171 1    
    98   48  172 1    
    99   48  173 1    
   100   49   50 am   BACKBONE|DICT|INTERRES
   101   49  174 1    
   102   50   51 2    
   103   50   52 1    
   104   52   53 1    
   105   52   54 1    
   106   52  175 1    
   107   53  176 1    
   108   53  177 1    
   109   53  178 1    
   110   54   55 am   BACKBONE|DICT|INTERRES
   111   54  179 1    
   112   55   56 2    
   113   55   57 1    
   114   57   58 1    
   115   57   59 1    
   116   57  180 1    
   117   58  181 1    
   118   58  182 1    
   119   58  183 1    
   120   59   60 am   BACKBONE|DICT|INTERRES
   121   59  184 1    
   122   60   61 2    
   123   60   62 1    
   124   62   63 1    
   125   62   64 1    
   126   62  185 1    
   127   63  186 1    
   128   63  187 1    
   129   63  188 1    
   130   64   65 am   BACKBONE|DICT|INTERRES
   131   64  189 1    
   132   65   66 2    
   133   67   68 2    
   134   67   69 am   BACKBONE|DICT|INTERRES
   135   69   70 1    
   136   69  190 1    
   137   70   71 1    
   138   70   72 1    
   139   70  191 1    
   140   71  192 1    
   141   71  193 1    
   142   71  194 1    
   143   72   73 2    
   144   72   74 am   BACKBONE|DICT|INTERRES
   145   74   75 1    
   146   74  195 1    
   147   75   76 1    
   148   75   77 1    
   149   75  196 1    
   150   76  197 1    
   151   76  198 1    
   152   76  199 1    
   153   77   78 2    
   154   77   79 am   BACKBONE|DICT|INTERRES
   155   79   80 1    
   156   79  200 1    
   157   80   81 1    
   158   80   82 1    
   159   80  201 1    
   160   81  202 1    
   161   81  203 1    
   162   81  204 1    
   163   82   83 2    
   164   82   84 am   BACKBONE|DICT|INTERRES
   165   84   85 1    
   166   84  205 1    
   167   85   86 1    
   168   85   87 1    
   169   85  206 1    
   170   86  207 1    
   171   86  208 1    
   172   86  209 1    
   173   87   88 2    
   174   87   89 am   BACKBONE|DICT|INTERRES
   175   89   90 1    
   176   89  210 1    
   177   90   91 1    
   178   90   92 1    
   179   90  211 1    
   180   91  212 1    
   181   91  213 1    
   182   91  214 1    
   183   92   93 2    
   184   92   94 am   BACKBONE|DICT|INTERRES
   185   94   95 1    
   186   94  215 1    
   187   95   96 1    
   188   95   97 1    
   189   95  216 1    
   190   96  217 1    
   191   96  218 1    
   192   96  219 1    
   193   97   98 2    
   194   97   99 am   BACKBONE|DICT|INTERRES
   195   99  100 1    
   196   99  220 1    
   197  100  101 1    
   198  100  102 1    
   199  100  221 1    
   200  101  222 1    
   201  101  223 1    
   202  101  224 1    
   203  102  103 2    
   204  102  104 am   BACKBONE|DICT|INTERRES
   205  104  105 1    
   206  104  225 1    
   207  105  106 1    
   208  105  107 1    
   209  105  226 1    
   210  106  227 1    
   211  106  228 1    
   212  106  229 1    
   213  107  108 2    
   214  107  109 am   BACKBONE|DICT|INTERRES
   215  109  110 1    
   216  109  230 1    
   217  110  111 1    
   218  110  112 1    
   219  110  231 1    
   220  111  232 1    
   221  111  233 1    
   222  111  234 1    
   223  112  113 2    
   224  112  114 am   BACKBONE|DICT|INTERRES
   225  114  115 1    
   226  114  235 1    
   227  115  116 1    
   228  115  117 1    
   229  115  236 1    
   230  116  237 1    
   231  116  238 1    
   232  116  239 1    
   233  117  118 2    
   234  117  119 am   BACKBONE|DICT|INTERRES
   235  119  120 1    
   236  119  240 1    
   237  120  121 1    
   238  120  124 1    
   239  120  241 1    
   240  121  122 am   BACKBONE|DICT|INTERRES
   241  121  123 2    
   242  122  242 1    
   243  122  243 1    
   244  124  125 1    
   245  124  244 1    
   246  124  245 1    
   247  125  126 1    
   248  126  246 1    
   249  126  247 1    
@<TRIPOS>SUBSTRUCTURE
     1 UNK         1 GROUP             0       ****    0 ROOT    
