@<TRIPOS>MOLECULE
3R540
247   249    1
SMALL
USER_CHARGES


@<TRIPOS>ATOM
      1 CA         -8.8373  -15.0983  -48.4738 C.3       0 UNK        -0.1800 
      2 C          -7.6707  -14.1750  -48.7973 C.2       0 UNK         0.5000 
      3 O          -7.8173  -12.9542  -48.7283 O.2       0 UNK        -0.5000 
      4 N          -6.5177  -14.7523  -49.1570 N.am      1 UNK        -0.5000 
      5 CA         -5.2694  -14.0351  -49.4321 C.3       1 UNK         0.1400 
      6 C6         -4.2663  -14.9436  -50.1872 C.3       23 UNK        -0.0398 
      7 S7         -3.0633  -14.0085  -51.1946 S.3       23 UNK        -0.2404 
      8 C8         -1.5448  -14.0960  -50.1925 C.3       23 UNK        -0.0205 
      9 C9         -0.9025  -15.4741  -50.2240 C.ar      23 UNK        -0.0193 
     10 C10        -0.0611  -15.8366  -51.2787 C.ar      23 UNK        -0.1150 
     11 C11         0.5458  -17.1002  -51.3110 C.ar      23 UNK        -0.0193 
     12 C12         0.2947  -17.9975  -50.2662 C.ar      23 UNK        -0.1150 
     13 C13        -0.5443  -17.6454  -49.2061 C.ar      23 UNK        -0.0193 
     14 C14        -1.1335  -16.3807  -49.1888 C.ar      23 UNK        -0.1150 
     15 C15        -0.8073  -18.6146  -48.0671 C.3       23 UNK        -0.0205 
     16 S16        -2.4430  -19.3924  -48.2063 S.3       23 UNK        -0.2404 
     17 C17        -2.6761  -20.0469  -46.5181 C.3       23 UNK        -0.0398 
     18 CA         -2.3413  -21.5578  -46.4122 C.3       11 UNK         0.1400 
     19 N          -0.9518  -21.8104  -46.0180 N.am      11 UNK        -0.5000 
     20 C          -0.3683  -23.0179  -46.0108 C.2       10 UNK         0.5000 
     21 O          -0.9234  -24.0453  -46.3960 O.2       10 UNK        -0.5000 
     22 CA          1.0452  -23.1087  -45.4091 C.3       10 UNK         0.1400 
     23 CB          2.1074  -22.6091  -46.4003 C.3       10 UNK        -0.1800 
     24 N           1.1512  -22.3832  -44.1419 N.am      10 UNK        -0.5000 
     25 C           0.4873  -22.7184  -43.0255 C.2       9 UNK         0.5000 
     26 O          -0.2380  -23.7090  -42.9342 O.2       9 UNK        -0.5000 
     27 CA          0.6135  -21.7642  -41.8242 C.3       9 UNK         0.1400 
     28 CB          1.8711  -22.0761  -40.9994 C.3       9 UNK        -0.1800 
     29 N           0.6210  -20.3590  -42.2322 N.am      9 UNK        -0.5000 
     30 C          -0.4476  -19.7146  -42.7227 C.2       8 UNK         0.5000 
     31 O          -1.5584  -20.2289  -42.8460 O.2       8 UNK        -0.5000 
     32 CA         -0.2272  -18.2722  -43.2145 C.3       8 UNK         0.1400 
     33 CB         -0.3252  -17.2770  -42.0494 C.3       8 UNK        -0.1800 
     34 N           1.0483  -18.0834  -43.9087 N.am      8 UNK        -0.5000 
     35 C           1.4306  -18.7610  -44.9998 C.2       7 UNK         0.5000 
     36 O           0.7247  -19.5979  -45.5565 O.2       7 UNK        -0.5000 
     37 CA          2.8584  -18.5167  -45.5161 C.3       7 UNK         0.1400 
     38 CB          2.9076  -17.2822  -46.4283 C.3       7 UNK        -0.1800 
     39 N           3.8247  -18.3773  -44.4252 N.am      7 UNK        -0.5000 
     40 C           4.1110  -19.3315  -43.5286 C.2       6 UNK         0.5000 
     41 O           3.6288  -20.4638  -43.5761 O.2       6 UNK        -0.5000 
     42 CA          5.0315  -18.9573  -42.3474 C.3       6 UNK         0.1400 
     43 CB          6.5160  -19.1680  -42.7012 C.3       6 UNK        -0.1800 
     44 N           4.7761  -17.6185  -41.7907 N.am      6 UNK        -0.5000 
     45 C           5.0051  -16.4244  -42.3530 C.2       5 UNK         0.5000 
     46 O           5.5745  -16.2692  -43.4362 O.2       5 UNK        -0.5000 
     47 CA          4.4515  -15.1964  -41.6020 C.3       5 UNK         0.1400 
     48 CB          5.5555  -14.5287  -40.7688 C.3       5 UNK        -0.1800 
     49 N           3.8821  -14.2108  -42.5256 N.am      5 UNK        -0.5000 
     50 C           2.8811  -14.4593  -43.3814 C.2       4 UNK         0.5000 
     51 O           2.2478  -15.5191  -43.3913 O.2       4 UNK        -0.5000 
     52 CA          2.5785  -13.3579  -44.4180 C.3       4 UNK         0.1400 
     53 CB          3.8052  -13.0915  -45.3087 C.3       4 UNK        -0.1800 
     54 N           1.4675  -13.7414  -45.2871 N.am      4 UNK        -0.5000 
     55 C           0.1726  -13.5584  -45.0122 C.2       3 UNK         0.5000 
     56 O          -0.2490  -12.9497  -44.0253 O.2       3 UNK        -0.5000 
     57 CA         -0.8131  -14.2114  -45.9994 C.3       3 UNK         0.1400 
     58 CB         -1.2495  -15.5863  -45.4742 C.3       3 UNK        -0.1800 
     59 N          -2.0054  -13.4039  -46.2449 N.am      3 UNK        -0.5000 
     60 C          -2.0248  -12.1970  -46.8216 C.2       2 UNK         0.5000 
     61 O          -1.0158  -11.6083  -47.2146 O.2       2 UNK        -0.5000 
     62 CA         -3.4229  -11.5956  -47.0706 C.3       2 UNK         0.1400 
     63 CB         -3.3702  -10.0873  -47.3723 C.3       2 UNK        -0.1800 
     64 N          -4.0923  -12.2737  -48.1831 N.am      2 UNK        -0.5000 
     65 C          -4.6667  -13.4820  -48.1216 C.2       1 UNK         0.5000 
     66 O          -4.7150  -14.1610  -47.0918 O.2       1 UNK        -0.5000 
     67 C          -3.3422  -22.2908  -45.4973 C.2       11 UNK         0.5000 
     68 O          -4.2966  -22.8671  -46.0153 O.2       11 UNK        -0.5000 
     69 N          -3.1098  -22.2984  -44.1770 N.am      12 UNK        -0.5000 
     70 CA         -3.9374  -23.0273  -43.2117 C.3       12 UNK         0.1400 
     71 CB         -3.5061  -22.6820  -41.7787 C.3       12 UNK        -0.1800 
     72 C          -3.9198  -24.5506  -43.4403 C.2       12 UNK         0.5000 
     73 O          -4.9792  -25.1779  -43.4148 O.2       12 UNK        -0.5000 
     74 N          -2.7290  -25.1082  -43.6999 N.am      13 UNK        -0.5000 
     75 CA         -2.5266  -26.5227  -44.0173 C.3       13 UNK         0.1400 
     76 CB         -1.0241  -26.8415  -43.9808 C.3       13 UNK        -0.1800 
     77 C          -3.1366  -26.9288  -45.3727 C.2       13 UNK         0.5000 
     78 O          -3.7370  -27.9993  -45.4737 O.2       13 UNK        -0.5000 
     79 N          -2.9814  -26.0651  -46.3843 N.am      14 UNK        -0.5000 
     80 CA         -3.4678  -26.2754  -47.7492 C.3       14 UNK         0.1400 
     81 CB         -2.6393  -25.3985  -48.7011 C.3       14 UNK        -0.1800 
     82 C          -4.9696  -25.9825  -47.9355 C.2       14 UNK         0.5000 
     83 O          -5.4950  -26.2582  -49.0134 O.2       14 UNK        -0.5000 
     84 N          -5.6231  -25.3954  -46.9220 N.am      15 UNK        -0.5000 
     85 CA         -7.0006  -24.8866  -46.9367 C.3       15 UNK         0.1400 
     86 CB         -8.0200  -26.0357  -47.0826 C.3       15 UNK        -0.1800 
     87 C          -7.1809  -23.7658  -47.9843 C.2       15 UNK         0.5000 
     88 O          -8.0973  -23.8093  -48.8059 O.2       15 UNK        -0.5000 
     89 N          -6.2520  -22.8012  -47.9398 N.am      16 UNK        -0.5000 
     90 CA         -6.0918  -21.6127  -48.7845 C.3       16 UNK         0.1400 
     91 CB         -7.3556  -20.7302  -48.7688 C.3       16 UNK        -0.1800 
     92 C          -5.6037  -21.8929  -50.2199 C.2       16 UNK         0.5000 
     93 O          -5.3359  -20.9380  -50.9489 O.2       16 UNK        -0.5000 
     94 N          -5.4417  -23.1675  -50.6072 N.am      17 UNK        -0.5000 
     95 CA         -5.0094  -23.5754  -51.9494 C.3       17 UNK         0.1400 
     96 CB         -5.1883  -25.0914  -52.1113 C.3       17 UNK        -0.1800 
     97 C          -3.5672  -23.1570  -52.2988 C.2       17 UNK         0.5000 
     98 O          -3.2469  -23.0301  -53.4804 O.2       17 UNK        -0.5000 
     99 N          -2.7353  -22.9047  -51.2765 N.am      18 UNK        -0.5000 
    100 CA        -1.3672  -22.3972  -51.4137 C.3       18 UNK         0.1400 
    101 CB        -0.6657  -22.4263  -50.0469 C.3       18 UNK        -0.1800 
    102 C         -1.2893  -20.9869  -52.0324 C.2       18 UNK         0.5000 
    103 O         -0.2551  -20.6449  -52.6049 O.2       18 UNK        -0.5000 
    104 N         -2.3827  -20.2108  -51.9555 N.am      19 UNK        -0.5000 
    105 CA        -2.5049  -18.8839  -52.5628 C.3       19 UNK         0.1400 
    106 CB        -3.8104  -18.2234  -52.1011 C.3       19 UNK        -0.1800 
    107 C         -2.4111  -18.8965  -54.1004 C.2       19 UNK         0.5000 
    108 O         -1.9944  -17.8967  -54.6853 O.2       19 UNK        -0.5000 
    109 N         -2.7527  -20.0325  -54.7293 N.am      20 UNK        -0.5000 
    110 CA        -2.6753  -20.2437  -56.1768 C.3       20 UNK         0.1400 
    111 CB        -3.3160  -21.5938  -56.5292 C.3       20 UNK        -0.1800 
    112 C         -1.2408  -20.1661  -56.7351 C.2       20 UNK         0.5000 
    113 O         -1.0648  -19.7727  -57.8889 O.2       20 UNK        -0.5000 
    114 N         -0.2379  -20.4860  -55.9022 N.am      21 UNK        -0.5000 
    115 CA         1.1872  -20.3771  -56.2315 C.3       21 UNK         0.1400 
    116 CB         2.0107  -21.0638  -55.1314 C.3       21 UNK        -0.1800 
    117 C          1.6612  -18.9219  -56.4281 C.2       21 UNK         0.5000 
    118 O          2.6793  -18.7010  -57.0849 O.2       21 UNK        -0.5000 
    119 N          0.9088  -17.9664  -55.8713 N.am      22 UNK        -0.5000 
    120 CA         1.1126  -16.5190  -56.0101 C.3       22 UNK         0.1400 
    121 C          0.2271  -15.8873  -57.1264 C.2       22 UNK         0.5000 
    122 N         -0.5311  -16.6541  -57.9036 N.am      22 UNK        -0.7600 
    123 O          0.2434  -14.6734  -57.3116 O.2       22 UNK        -0.5000 
    124 C124        0.9245  -15.8041  -54.6465 C.3       23 UNK        -0.0398 
    125 S125        2.2313  -16.2458  -53.4461 S.3       23 UNK        -0.2404 
    126 C126        1.4325  -17.5657  -52.4671 C.3       23 UNK        -0.0205 
    127 H127       -8.5689  -16.1485  -48.5920 H         1 UNK         0.0600 
    128 H128       -9.6784  -14.8861  -49.1340 H         1 UNK         0.0600 
    129 H129       -9.1628  -14.9446  -47.4448 H         1 UNK         0.0600 
    130 H130       -6.4539  -15.7599  -49.1579 H         1 UNK         0.3000 
    131 H131       -5.5242  -13.1916  -50.0783 H         1 UNK         0.0600 
    132 H132       -4.8106  -15.5724  -50.8928 H         1 UNK         0.0800 
    133 H133       -3.7662  -15.6381  -49.5126 H         1 UNK         0.0800 
    134 H134       -1.7661  -13.8064  -49.1671 H         1 UNK         0.0800 
    135 H135       -0.8347  -13.3571  -50.5666 H         1 UNK         0.0800 
    136 H136        0.1059  -15.1241  -52.0716 H         1 UNK         0.1150 
    137 H137        0.7427  -18.9813  -50.2867 H         1 UNK         0.1150 
    138 H138       -1.7823  -16.1067  -48.3710 H         1 UNK         0.1150 
    139 H139       -0.0445  -19.3939  -48.0424 H         1 UNK         0.0800 
    140 H140       -0.7378  -18.0719  -47.1250 H         1 UNK         0.0800 
    141 H141       -3.7228  -19.8522  -46.2754 H         1 UNK         0.0800 
    142 H142       -2.1031  -19.4649  -45.7950 H         1 UNK         0.0800 
    143 H143       -2.4754  -22.0089  -47.3969 H         1 UNK         0.0600 
    144 H144       -0.4017  -21.0060  -45.7220 H         1 UNK         0.3000 
    145 H145        1.2499  -24.1616  -45.2039 H         1 UNK         0.0600 
    146 H146        3.1086  -22.6797  -45.9748 H         1 UNK         0.0600 
    147 H147        2.0967  -23.2087  -47.3113 H         1 UNK         0.0600 
    148 H148        1.9411  -21.5736  -46.6941 H         1 UNK         0.0600 
    149 H149        1.7354  -21.5563  -44.1325 H         1 UNK         0.3000 
    150 H150       -0.2543  -21.9237  -41.1809 H         1 UNK         0.0600 
    151 H151        1.8499  -23.1043  -40.6361 H         1 UNK         0.0600 
    152 H152        1.9432  -21.4256  -40.1277 H         1 UNK         0.0600 
    153 H153        2.7829  -21.9571  -41.5841 H         1 UNK         0.0600 
    154 H154        1.5103  -19.8824  -42.2172 H         1 UNK         0.3000 
    155 H155       -1.0275  -18.0497  -43.9219 H         1 UNK         0.0600 
    156 H156        0.4834  -17.4174  -41.3313 H         1 UNK         0.0600 
    157 H157       -1.2682  -17.3923  -41.5134 H         1 UNK         0.0600 
    158 H158       -0.2789  -16.2478  -42.4063 H         1 UNK         0.0600 
    159 H159        1.6511  -17.3422  -43.5610 H         1 UNK         0.3000 
    160 H160        3.1486  -19.3871  -46.1079 H         1 UNK         0.0600 
    161 H161        2.6488  -16.3718  -45.8901 H         1 UNK         0.0600 
    162 H162        2.2077  -17.3827  -47.2594 H         1 UNK         0.0600 
    163 H163        3.9017  -17.1472  -46.8547 H         1 UNK         0.0600 
    164 H164        4.2757  -17.4753  -44.3119 H         1 UNK         0.3000 
    165 H165        4.7930  -19.6540  -41.5421 H         1 UNK         0.0600 
    166 H166        6.8297  -18.5551  -43.5462 H         1 UNK         0.0600 
    167 H167        7.1609  -18.9307  -41.8551 H         1 UNK         0.0600 
    168 H168        6.7034  -20.2079  -42.9714 H         1 UNK         0.0600 
    169 H169        4.2894  -17.6252  -40.9048 H         1 UNK         0.3000 
    170 H170        3.6540  -15.5213  -40.9305 H         1 UNK         0.0600 
    171 H171        6.3691  -14.1646  -41.3976 H         1 UNK         0.0600 
    172 H172        5.1657  -13.6842  -40.2002 H         1 UNK         0.0600 
    173 H173        5.9836  -15.2315  -40.0528 H         1 UNK         0.0600 
    174 H174        4.3727  -13.3316  -42.5940 H         1 UNK         0.3000 
    175 H175        2.3253  -12.4412  -43.8814 H         1 UNK         0.0600 
    176 H176        4.1401  -13.9986  -45.8141 H         1 UNK         0.0600 
    177 H177        3.5828  -12.3458  -46.0724 H         1 UNK         0.0600 
    178 H178        4.6462  -12.7111  -44.7281 H         1 UNK         0.0600 
    179 H179        1.7174  -14.2823  -46.1009 H         1 UNK         0.3000 
    180 H180       -0.3124  -14.3508  -46.9599 H         1 UNK         0.0600 
    181 H181       -1.9987  -16.0503  -46.1146 H         1 UNK         0.0600 
    182 H182       -1.6715  -15.5173  -44.4707 H         1 UNK         0.0600 
    183 H183       -0.3947  -16.2595  -45.4292 H         1 UNK         0.0600 
    184 H184       -2.8959  -13.8286  -46.0153 H         1 UNK         0.3000 
    185 H185       -4.0130  -11.7320  -46.1616 H         1 UNK         0.0600 
    186 H186       -4.3728   -9.6712  -47.4732 H         1 UNK         0.0600 
    187 H187       -2.8742   -9.5455  -46.5660 H         1 UNK         0.0600 
    188 H188       -2.8260   -9.8764  -48.2939 H         1 UNK         0.0600 
    189 H189       -4.0650  -11.7940  -49.0715 H         1 UNK         0.3000 
    190 H190       -2.3426  -21.7506  -43.7992 H         1 UNK         0.3000 
    191 H191       -4.9676  -22.6884  -43.3403 H         1 UNK         0.0600 
    192 H192       -4.1293  -23.1996  -41.0485 H         1 UNK         0.0600 
    193 H193       -3.6001  -21.6134  -41.5853 H         1 UNK         0.0600 
    194 H194       -2.4722  -22.9678  -41.5875 H         1 UNK         0.0600 
    195 H195       -1.8969  -24.5266  -43.6608 H         1 UNK         0.3000 
    196 H196       -3.0169  -27.1147  -43.2418 H         1 UNK         0.0600 
    197 H197       -0.4697  -26.2533  -44.7130 H         1 UNK         0.0600 
    198 H198       -0.6016  -26.6329  -42.9978 H         1 UNK         0.0600 
    199 H199       -0.8417  -27.8947  -44.1975 H         1 UNK         0.0600 
    200 H200       -2.4154  -25.2337  -46.2334 H         1 UNK         0.3000 
    201 H201       -3.3038  -27.3199  -48.0217 H         1 UNK         0.0600 
    202 H202       -2.9125  -25.5733  -49.7413 H         1 UNK         0.0600 
    203 H203       -2.7842  -24.3382  -48.4920 H         1 UNK         0.0600 
    204 H204       -1.5750  -25.6161  -48.6100 H         1 UNK         0.0600 
    205 H205       -5.0835  -25.1652  -46.0978 H         1 UNK         0.3000 
    206 H206       -7.1647  -24.4247  -45.9620 H         1 UNK         0.0600 
    207 H207       -7.8646  -26.7979  -46.3191 H         1 UNK         0.0600 
    208 H208       -9.0397  -25.6659  -46.9697 H         1 UNK         0.0600 
    209 H209       -7.9561  -26.5194  -48.0575 H         1 UNK         0.0600 
    210 H210       -5.5367  -22.8957  -47.2172 H         1 UNK         0.3000 
    211 H211       -5.2934  -21.0362  -48.3152 H         1 UNK         0.0600 
    212 H212       -7.1703  -19.7764  -49.2644 H         1 UNK         0.0600 
    213 H213       -7.6698  -20.5087  -47.7489 H         1 UNK         0.0600 
    214 H214       -8.1908  -21.2047  -49.2841 H         1 UNK         0.0600 
    215 H215       -5.6962  -23.9066  -49.9660 H         1 UNK         0.3000 
    216 H216       -5.6681  -23.0831  -52.6680 H         1 UNK         0.0600 
    217 H217       -4.5222  -25.6502  -51.4551 H         1 UNK         0.0600 
    218 H218       -4.9717  -25.4013  -53.1344 H         1 UNK         0.0600 
    219 H219       -6.2113  -25.3960  -51.8893 H         1 UNK         0.0600 
    220 H220       -3.0875  -23.0198  -50.3392 H         1 UNK         0.3000 
    221 H221       -0.8301  -23.0717  -52.0837 H         1 UNK         0.0600 
    222 H222       -0.6310  -23.4351  -49.6367 H         1 UNK         0.0600 
    223 H223       -1.1667  -21.7850  -49.3245 H         1 UNK         0.0600 
    224 H224        0.3644  -22.0771  -50.1292 H         1 UNK         0.0600 
    225 H225       -3.2065  -20.5647  -51.4848 H         1 UNK         0.3000 
    226 H226       -1.6815  -18.2744  -52.1984 H         1 UNK         0.0600 
    227 H227       -4.6851  -18.7774  -52.4427 H         1 UNK         0.0600 
    228 H228       -3.8544  -18.1566  -51.0137 H         1 UNK         0.0600 
    229 H229       -3.8892  -17.2091  -52.4940 H         1 UNK         0.0600 
    230 H230       -3.0499  -20.8248  -54.1738 H         1 UNK         0.3000 
    231 H231       -3.2571  -19.4541  -56.6568 H         1 UNK         0.0600 
    232 H232       -2.7623  -22.4267  -56.0943 H         1 UNK         0.0600 
    233 H233       -3.3388  -21.7445  -57.6092 H         1 UNK         0.0600 
    234 H234       -4.3441  -21.6506  -56.1710 H         1 UNK         0.0600 
    235 H235       -0.4608  -20.7604  -54.9539 H         1 UNK         0.3000 
    236 H236        1.3570  -20.9091  -57.1698 H         1 UNK         0.0600 
    237 H237        1.9160  -20.5461  -54.1763 H         1 UNK         0.0600 
    238 H238        1.6971  -22.0978  -54.9867 H         1 UNK         0.0600 
    239 H239        3.0702  -21.0782  -55.3901 H         1 UNK         0.0600 
    240 H240        0.0603  -18.2354  -55.3894 H         1 UNK         0.3000 
    241 H241        2.1390  -16.3347  -56.3322 H         1 UNK         0.0600 
    242 H242       -1.0885  -16.2236  -58.6244 H         1 UNK         0.3800 
    243 H243       -0.5505  -17.6591  -57.7922 H         1 UNK         0.3800 
    244 H244       -0.0607  -16.0233  -54.2327 H         1 UNK         0.0800 
    245 H245        0.9662  -14.7207  -54.7691 H         1 UNK         0.0800 
    246 H246        0.8427  -18.2037  -53.1248 H         1 UNK         0.0800 
    247 H247        2.2276  -18.1980  -52.0692 H         1 UNK         0.0800 
@<TRIPOS>BOND
     1    1    2 1    
     2    1  127 1    
     3    1  128 1    
     4    1  129 1    
     5    2    3 2    
     6    2    4 am   BACKBONE|DICT|INTERRES
     7    4    5 1    
     8    4  130 1    
     9    5    6 1    
    10    5   65 1    
    11    5  131 1    
    12    6    7 1    
    13    6  132 1    
    14    6  133 1    
    15    7    8 1    
    16    8    9 1    
    17    8  134 1    
    18    8  135 1    
    19    9   10 ar   
    20    9   14 ar   
    21   10   11 ar   
    22   10  136 1    
    23   11   12 ar   
    24   11  126 1    
    25   12   13 ar   
    26   12  137 1    
    27   13   14 ar   
    28   13   15 1    
    29   14  138 1    
    30   15   16 1    
    31   15  139 1    
    32   15  140 1    
    33   16   17 1    
    34   17   18 1    
    35   17  141 1    
    36   17  142 1    
    37   18   19 1    
    38   18   67 1    
    39   18  143 1    
    40   19   20 am   BACKBONE|DICT|INTERRES
    41   19  144 1    
    42   20   21 2    
    43   20   22 1    
    44   22   23 1    
    45   22   24 1    
    46   22  145 1    
    47   23  146 1    
    48   23  147 1    
    49   23  148 1    
    50   24   25 am   BACKBONE|DICT|INTERRES
    51   24  149 1    
    52   25   26 2    
    53   25   27 1    
    54   27   28 1    
    55   27   29 1    
    56   27  150 1    
    57   28  151 1    
    58   28  152 1    
    59   28  153 1    
    60   29   30 am   BACKBONE|DICT|INTERRES
    61   29  154 1    
    62   30   31 2    
    63   30   32 1    
    64   32   33 1    
    65   32   34 1    
    66   32  155 1    
    67   33  156 1    
    68   33  157 1    
    69   33  158 1    
    70   34   35 am   BACKBONE|DICT|INTERRES
    71   34  159 1    
    72   35   36 2    
    73   35   37 1    
    74   37   38 1    
    75   37   39 1    
    76   37  160 1    
    77   38  161 1    
    78   38  162 1    
    79   38  163 1    
    80   39   40 am   BACKBONE|DICT|INTERRES
    81   39  164 1    
    82   40   41 2    
    83   40   42 1    
    84   42   43 1    
    85   42   44 1    
    86   42  165 1    
    87   43  166 1    
    88   43  167 1    
    89   43  168 1    
    90   44   45 am   BACKBONE|DICT|INTERRES
    91   44  169 1    
    92   45   46 2    
    93   45   47 1    
    94   47   48 1    
    95   47   49 1    
    96   47  170 1    
    97   48  171 1    
    98   48  172 1    
    99   48  173 1    
   100   49   50 am   BACKBONE|DICT|INTERRES
   101   49  174 1    
   102   50   51 2    
   103   50   52 1    
   104   52   53 1    
   105   52   54 1    
   106   52  175 1    
   107   53  176 1    
   108   53  177 1    
   109   53  178 1    
   110   54   55 am   BACKBONE|DICT|INTERRES
   111   54  179 1    
   112   55   56 2    
   113   55   57 1    
   114   57   58 1    
   115   57   59 1    
   116   57  180 1    
   117   58  181 1    
   118   58  182 1    
   119   58  183 1    
   120   59   60 am   BACKBONE|DICT|INTERRES
   121   59  184 1    
   122   60   61 2    
   123   60   62 1    
   124   62   63 1    
   125   62   64 1    
   126   62  185 1    
   127   63  186 1    
   128   63  187 1    
   129   63  188 1    
   130   64   65 am   BACKBONE|DICT|INTERRES
   131   64  189 1    
   132   65   66 2    
   133   67   68 2    
   134   67   69 am   BACKBONE|DICT|INTERRES
   135   69   70 1    
   136   69  190 1    
   137   70   71 1    
   138   70   72 1    
   139   70  191 1    
   140   71  192 1    
   141   71  193 1    
   142   71  194 1    
   143   72   73 2    
   144   72   74 am   BACKBONE|DICT|INTERRES
   145   74   75 1    
   146   74  195 1    
   147   75   76 1    
   148   75   77 1    
   149   75  196 1    
   150   76  197 1    
   151   76  198 1    
   152   76  199 1    
   153   77   78 2    
   154   77   79 am   BACKBONE|DICT|INTERRES
   155   79   80 1    
   156   79  200 1    
   157   80   81 1    
   158   80   82 1    
   159   80  201 1    
   160   81  202 1    
   161   81  203 1    
   162   81  204 1    
   163   82   83 2    
   164   82   84 am   BACKBONE|DICT|INTERRES
   165   84   85 1    
   166   84  205 1    
   167   85   86 1    
   168   85   87 1    
   169   85  206 1    
   170   86  207 1    
   171   86  208 1    
   172   86  209 1    
   173   87   88 2    
   174   87   89 am   BACKBONE|DICT|INTERRES
   175   89   90 1    
   176   89  210 1    
   177   90   91 1    
   178   90   92 1    
   179   90  211 1    
   180   91  212 1    
   181   91  213 1    
   182   91  214 1    
   183   92   93 2    
   184   92   94 am   BACKBONE|DICT|INTERRES
   185   94   95 1    
   186   94  215 1    
   187   95   96 1    
   188   95   97 1    
   189   95  216 1    
   190   96  217 1    
   191   96  218 1    
   192   96  219 1    
   193   97   98 2    
   194   97   99 am   BACKBONE|DICT|INTERRES
   195   99  100 1    
   196   99  220 1    
   197  100  101 1    
   198  100  102 1    
   199  100  221 1    
   200  101  222 1    
   201  101  223 1    
   202  101  224 1    
   203  102  103 2    
   204  102  104 am   BACKBONE|DICT|INTERRES
   205  104  105 1    
   206  104  225 1    
   207  105  106 1    
   208  105  107 1    
   209  105  226 1    
   210  106  227 1    
   211  106  228 1    
   212  106  229 1    
   213  107  108 2    
   214  107  109 am   BACKBONE|DICT|INTERRES
   215  109  110 1    
   216  109  230 1    
   217  110  111 1    
   218  110  112 1    
   219  110  231 1    
   220  111  232 1    
   221  111  233 1    
   222  111  234 1    
   223  112  113 2    
   224  112  114 am   BACKBONE|DICT|INTERRES
   225  114  115 1    
   226  114  235 1    
   227  115  116 1    
   228  115  117 1    
   229  115  236 1    
   230  116  237 1    
   231  116  238 1    
   232  116  239 1    
   233  117  118 2    
   234  117  119 am   BACKBONE|DICT|INTERRES
   235  119  120 1    
   236  119  240 1    
   237  120  121 1    
   238  120  124 1    
   239  120  241 1    
   240  121  122 am   BACKBONE|DICT|INTERRES
   241  121  123 2    
   242  122  242 1    
   243  122  243 1    
   244  124  125 1    
   245  124  244 1    
   246  124  245 1    
   247  125  126 1    
   248  126  246 1    
   249  126  247 1    
@<TRIPOS>SUBSTRUCTURE
     1 UNK         1 GROUP             0       ****    0 ROOT    
