@<TRIPOS>MOLECULE
3R540
247   249    1
SMALL
USER_CHARGES


@<TRIPOS>ATOM
      1 CA          8.0916  -13.8543  -44.9850 C.3       0 UNK        -0.1800 
      2 C           6.5885  -14.0391  -45.1302 C.2       0 UNK         0.5000 
      3 O           5.8469  -13.8161  -44.1747 O.2       0 UNK        -0.5000 
      4 N           6.1320  -14.4365  -46.3229 N.am      1 UNK        -0.5000 
      5 CA          4.7329  -14.6886  -46.6927 C.3       1 UNK         0.1400 
      6 C6          4.6153  -15.7148  -47.8534 C.3       23 UNK        -0.0398 
      7 S7          5.7632  -15.4236  -49.2495 S.3       23 UNK        -0.2404 
      8 C8          4.6344  -14.9005  -50.5860 C.3       23 UNK        -0.0205 
      9 C9          3.6053  -15.9392  -51.0356 C.ar      23 UNK        -0.0193 
     10 C10         2.4609  -15.4950  -51.7024 C.ar      23 UNK        -0.1150 
     11 C11         1.4925  -16.3937  -52.1596 C.ar      23 UNK        -0.0193 
     12 C12         1.6760  -17.7643  -51.9352 C.ar      23 UNK        -0.1150 
     13 C13         2.8129  -18.2275  -51.2649 C.ar      23 UNK        -0.0193 
     14 C14         3.7773  -17.3136  -50.8326 C.ar      23 UNK        -0.1150 
     15 C15         3.0211  -19.7144  -51.0142 C.3       23 UNK        -0.0205 
     16 S16         2.7816  -20.1400  -49.2582 S.3       23 UNK        -0.2404 
     17 C17         0.9663  -20.0788  -49.1114 C.3       23 UNK        -0.0398 
     18 CA          0.4020  -21.3461  -48.4246 C.3       11 UNK         0.1400 
     19 N           0.6872  -21.3950  -46.9846 N.am      11 UNK        -0.5000 
     20 C           0.4212  -22.4479  -46.1959 C.2       10 UNK         0.5000 
     21 O          -0.0284  -23.5154  -46.6113 O.2       10 UNK        -0.5000 
     22 CA          0.6311  -22.2659  -44.6821 C.3       10 UNK         0.1400 
     23 CB          2.1118  -22.4224  -44.3062 C.3       10 UNK        -0.1800 
     24 N           0.1246  -20.9823  -44.1970 N.am      10 UNK        -0.5000 
     25 C          -1.1622  -20.6071  -44.2296 C.2       9 UNK         0.5000 
     26 O          -2.0746  -21.3372  -44.6135 O.2       9 UNK        -0.5000 
     27 CA         -1.4783  -19.1547  -43.8238 C.3       9 UNK         0.1400 
     28 CB         -1.6088  -19.0214  -42.2999 C.3       9 UNK        -0.1800 
     29 N          -0.4823  -18.2062  -44.3271 N.am      9 UNK        -0.5000 
     30 C          -0.2585  -17.9762  -45.6297 C.2       8 UNK         0.5000 
     31 O          -0.9120  -18.4932  -46.5356 O.2       8 UNK        -0.5000 
     32 CA          0.9249  -17.0602  -45.9827 C.3       8 UNK         0.1400 
     33 CB          0.4943  -15.5896  -45.9835 C.3       8 UNK        -0.1800 
     34 N           2.0583  -17.2565  -45.0758 N.am      8 UNK        -0.5000 
     35 C           2.8360  -18.3494  -45.1013 C.2       7 UNK         0.5000 
     36 O           2.7025  -19.2543  -45.9239 O.2       7 UNK        -0.5000 
     37 CA          3.9000  -18.4859  -43.9950 C.3       7 UNK         0.1400 
     38 CB          5.1846  -17.7255  -44.3548 C.3       7 UNK        -0.1800 
     39 N           3.4215  -18.0365  -42.6876 N.am      7 UNK        -0.5000 
     40 C           2.4436  -18.6351  -41.9936 C.2       6 UNK         0.5000 
     41 O           1.8751  -19.6579  -42.3698 O.2       6 UNK        -0.5000 
     42 CA          1.9989  -17.9659  -40.6790 C.3       6 UNK         0.1400 
     43 CB          2.7279  -18.5968  -39.4837 C.3       6 UNK        -0.1800 
     44 N           2.2050  -16.5160  -40.6584 N.am      6 UNK        -0.5000 
     45 C           1.6060  -15.6414  -41.4773 C.2       5 UNK         0.5000 
     46 O           0.8113  -15.9656  -42.3647 O.2       5 UNK        -0.5000 
     47 CA          2.0432  -14.1780  -41.3075 C.3       5 UNK         0.1400 
     48 CB          3.3672  -13.9372  -42.0493 C.3       5 UNK        -0.1800 
     49 N           1.0383  -13.2412  -41.8061 N.am      5 UNK        -0.5000 
     50 C          -0.0090  -12.8068  -41.0917 C.2       4 UNK         0.5000 
     51 O          -0.2510  -13.1971  -39.9481 O.2       4 UNK        -0.5000 
     52 CA         -0.9218  -11.7292  -41.7152 C.3       4 UNK         0.1400 
     53 CB         -0.7472  -10.3913  -40.9774 C.3       4 UNK        -0.1800 
     54 N          -0.6698  -11.5021  -43.1385 N.am      4 UNK        -0.5000 
     55 C          -1.2694  -12.1653  -44.1344 C.2       3 UNK         0.5000 
     56 O          -2.1381  -13.0205  -43.9601 O.2       3 UNK        -0.5000 
     57 CA         -0.8252  -11.8220  -45.5734 C.3       3 UNK         0.1400 
     58 CB         -1.7937  -10.8080  -46.2017 C.3       3 UNK        -0.1800 
     59 N           0.5492  -11.3196  -45.7212 N.am      3 UNK        -0.5000 
     60 C           1.6499  -11.9637  -45.3143 C.2       2 UNK         0.5000 
     61 O           1.6228  -12.9691  -44.6051 O.2       2 UNK        -0.5000 
     62 CA          3.0120  -11.3929  -45.7483 C.3       2 UNK         0.1400 
     63 CB          3.5512  -10.4230  -44.6869 C.3       2 UNK        -0.1800 
     64 N           3.9675  -12.4869  -45.9201 N.am      2 UNK        -0.5000 
     65 C           3.9123  -13.3936  -46.9037 C.2       1 UNK         0.5000 
     66 O           3.2177  -13.2475  -47.9102 O.2       1 UNK        -0.5000 
     67 C          -1.1038  -21.4893  -48.7183 C.2       11 UNK         0.5000 
     68 O          -1.4672  -22.2068  -49.6507 O.2       11 UNK        -0.5000 
     69 N          -1.9581  -20.8205  -47.9308 N.am      12 UNK        -0.5000 
     70 CA         -3.4139  -20.9299  -48.0292 C.3       12 UNK         0.1400 
     71 CB         -4.0886  -19.8694  -47.1482 C.3       12 UNK        -0.1800 
     72 C          -3.9150  -22.3423  -47.6864 C.2       12 UNK         0.5000 
     73 O          -4.7200  -22.8917  -48.4380 O.2       12 UNK        -0.5000 
     74 N          -3.4033  -22.9198  -46.5910 N.am      13 UNK        -0.5000 
     75 CA         -3.7056  -24.2793  -46.1404 C.3       13 UNK         0.1400 
     76 CB         -3.0484  -24.5314  -44.7755 C.3       13 UNK        -0.1800 
     77 C          -3.2865  -25.3546  -47.1585 C.2       13 UNK         0.5000 
     78 O          -4.0798  -26.2500  -47.4515 O.2       13 UNK        -0.5000 
     79 N          -2.0778  -25.2165  -47.7232 N.am      14 UNK        -0.5000 
     80 CA         -1.5419  -26.0797  -48.7809 C.3       14 UNK         0.1400 
     81 CB         -0.0803  -25.6973  -49.0575 C.3       14 UNK        -0.1800 
     82 C          -2.3657  -26.0319  -50.0827 C.2       14 UNK         0.5000 
     83 O          -2.4583  -27.0402  -50.7830 O.2       14 UNK        -0.5000 
     84 N          -2.9800  -24.8752  -50.3564 N.am      15 UNK        -0.5000 
     85 CA         -3.8923  -24.6375  -51.4725 C.3       15 UNK         0.1400 
     86 CB         -3.7409  -23.1773  -51.9174 C.3       15 UNK        -0.1800 
     87 C          -5.3617  -24.9795  -51.1441 C.2       15 UNK         0.5000 
     88 O          -6.2463  -24.5919  -51.9086 O.2       15 UNK        -0.5000 
     89 N          -5.6095  -25.6838  -50.0287 N.am      16 UNK        -0.5000 
     90 CA         -6.9151  -26.1429  -49.5425 C.3       16 UNK         0.1400 
     91 CB         -7.5326  -27.1714  -50.5140 C.3       16 UNK        -0.1800 
     92 C          -7.8608  -24.9714  -49.2108 C.2       16 UNK         0.5000 
     93 O          -8.9827  -24.9118  -49.7154 O.2       16 UNK        -0.5000 
     94 N          -7.3590  -24.0521  -48.3746 N.am      17 UNK        -0.5000 
     95 CA         -7.9719  -22.7838  -47.9649 C.3       17 UNK         0.1400 
     96 CB         -9.3154  -23.0030  -47.2370 C.3       17 UNK        -0.1800 
     97 C          -8.0545  -21.7877  -49.1386 C.2       17 UNK         0.5000 
     98 O          -9.0804  -21.1329  -49.3310 O.2       17 UNK        -0.5000 
     99 N          -6.9497  -21.7046  -49.8956 N.am      18 UNK        -0.5000 
    100 CA        -6.7363  -20.8583  -51.0748 C.3       18 UNK         0.1400 
    101 CB        -6.6533  -19.3730  -50.6673 C.3       18 UNK        -0.1800 
    102 C         -7.7454  -21.1265  -52.2134 C.2       18 UNK         0.5000 
    103 O         -8.2085  -20.1908  -52.8694 O.2       18 UNK        -0.5000 
    104 N         -8.0762  -22.4072  -52.4199 N.am      19 UNK        -0.5000 
    105 CA        -8.9248  -22.8786  -53.5100 C.3       19 UNK         0.1400 
    106 CB        -9.6758  -24.1414  -53.0604 C.3       19 UNK        -0.1800 
    107 C         -8.0801  -23.1584  -54.7625 C.2       19 UNK         0.5000 
    108 O         -8.4271  -22.7025  -55.8530 O.2       19 UNK        -0.5000 
    109 N         -6.9647  -23.8763  -54.5806 N.am      20 UNK        -0.5000 
    110 CA        -5.9983  -24.2223  -55.6207 C.3       20 UNK         0.1400 
    111 CB        -5.3636  -25.5802  -55.2714 C.3       20 UNK        -0.1800 
    112 C         -4.9596  -23.0957  -55.7816 C.2       20 UNK         0.5000 
    113 O         -3.7743  -23.3026  -55.5160 O.2       20 UNK        -0.5000 
    114 N         -5.4445  -21.9152  -56.1912 N.am      21 UNK        -0.5000 
    115 CA        -4.7213  -20.6428  -56.2884 C.3       21 UNK         0.1400 
    116 CB        -3.5952  -20.7192  -57.3447 C.3       21 UNK        -0.1800 
    117 C         -4.2566  -20.1391  -54.9030 C.2       21 UNK         0.5000 
    118 O         -4.9381  -20.3945  -53.9086 O.2       21 UNK        -0.5000 
    119 N         -3.1435  -19.3964  -54.8570 N.am      22 UNK        -0.5000 
    120 CA        -2.5451  -18.8815  -53.6181 C.3       22 UNK         0.1400 
    121 C         -1.9262  -20.0189  -52.7616 C.2       22 UNK         0.5000 
    122 N         -2.3258  -20.1405  -51.5051 N.am      22 UNK        -0.7600 
    123 O         -1.0681  -20.7666  -53.2241 O.2       22 UNK        -0.5000 
    124 C124       -1.5147  -17.7649  -53.9145 C.3       23 UNK        -0.0398 
    125 S125       -1.2950  -16.6396  -52.4947 S.3       23 UNK        -0.2404 
    126 C126        0.2894  -15.8502  -52.9274 C.3       23 UNK        -0.0205 
    127 H127        8.6196  -14.0842  -45.9108 H         1 UNK         0.0600 
    128 H128        8.4751  -14.5091  -44.2026 H         1 UNK         0.0600 
    129 H129        8.3176  -12.8240  -44.7105 H         1 UNK         0.0600 
    130 H130        6.7897  -14.5736  -47.0782 H         1 UNK         0.3000 
    131 H131        4.2510  -15.1596  -45.8346 H         1 UNK         0.0600 
    132 H132        3.5872  -15.7953  -48.2108 H         1 UNK         0.0800 
    133 H133        4.8496  -16.7067  -47.4654 H         1 UNK         0.0800 
    134 H134        5.2382  -14.6262  -51.4517 H         1 UNK         0.0800 
    135 H135        4.1249  -13.9897  -50.2696 H         1 UNK         0.0800 
    136 H136        2.3305  -14.4360  -51.8782 H         1 UNK         0.1150 
    137 H137        0.9386  -18.4727  -52.2845 H         1 UNK         0.1150 
    138 H138        4.6585  -17.6869  -50.3315 H         1 UNK         0.1150 
    139 H139        2.3580  -20.3162  -51.6380 H         1 UNK         0.0800 
    140 H140        4.0374  -19.9849  -51.3041 H         1 UNK         0.0800 
    141 H141        0.5433  -19.9633  -50.1114 H         1 UNK         0.0800 
    142 H142        0.6876  -19.1780  -48.5646 H         1 UNK         0.0800 
    143 H143        0.8836  -22.2163  -48.8762 H         1 UNK         0.0600 
    144 H144        1.1081  -20.5685  -46.5758 H         1 UNK         0.3000 
    145 H145        0.0716  -23.0535  -44.1736 H         1 UNK         0.0600 
    146 H146        2.2523  -22.3634  -43.2268 H         1 UNK         0.0600 
    147 H147        2.7308  -21.6524  -44.7658 H         1 UNK         0.0600 
    148 H148        2.4961  -23.3897  -44.6321 H         1 UNK         0.0600 
    149 H149        0.8060  -20.3508  -43.7856 H         1 UNK         0.3000 
    150 H150       -2.4394  -18.8871  -44.2675 H         1 UNK         0.0600 
    151 H151       -2.4367  -19.6273  -41.9299 H         1 UNK         0.0600 
    152 H152       -1.8025  -17.9895  -42.0060 H         1 UNK         0.0600 
    153 H153       -0.7092  -19.3557  -41.7853 H         1 UNK         0.0600 
    154 H154        0.0779  -17.7145  -43.6424 H         1 UNK         0.3000 
    155 H155        1.2471  -17.3104  -46.9960 H         1 UNK         0.0600 
    156 H156       -0.3625  -15.4323  -46.6396 H         1 UNK         0.0600 
    157 H157        1.2980  -14.9505  -46.3462 H         1 UNK         0.0600 
    158 H158        0.2108  -15.2499  -44.9865 H         1 UNK         0.0600 
    159 H159        2.1680  -16.5837  -44.3300 H         1 UNK         0.3000 
    160 H160        4.1493  -19.5465  -43.9167 H         1 UNK         0.0600 
    161 H161        5.0439  -16.6473  -44.2955 H         1 UNK         0.0600 
    162 H162        5.5186  -17.9657  -45.3649 H         1 UNK         0.0600 
    163 H163        5.9958  -17.9883  -43.6757 H         1 UNK         0.0600 
    164 H164        3.8446  -17.2050  -42.3039 H         1 UNK         0.3000 
    165 H165        0.9297  -18.1490  -40.5607 H         1 UNK         0.0600 
    166 H166        2.3615  -18.1933  -38.5396 H         1 UNK         0.0600 
    167 H167        2.5708  -19.6761  -39.4563 H         1 UNK         0.0600 
    168 H168        3.8036  -18.4228  -39.5299 H         1 UNK         0.0600 
    169 H169        2.8551  -16.1694  -39.9675 H         1 UNK         0.3000 
    170 H170        2.2097  -13.9832  -40.2458 H         1 UNK         0.0600 
    171 H171        3.3038  -14.2298  -43.0977 H         1 UNK         0.0600 
    172 H172        3.6600  -12.8879  -42.0125 H         1 UNK         0.0600 
    173 H173        4.1787  -14.5134  -41.6039 H         1 UNK         0.0600 
    174 H174        1.1278  -12.9754  -42.7831 H         1 UNK         0.3000 
    175 H175       -1.9539  -12.0573  -41.5749 H         1 UNK         0.0600 
    176 H176        0.2714  -10.0118  -41.0679 H         1 UNK         0.0600 
    177 H177       -1.4247   -9.6330  -41.3704 H         1 UNK         0.0600 
    178 H178       -0.9646  -10.4977  -39.9138 H         1 UNK         0.0600 
    179 H179        0.0403  -10.8244  -43.3733 H         1 UNK         0.3000 
    180 H180       -0.8873  -12.7479  -46.1488 H         1 UNK         0.0600 
    181 H181       -1.7445   -9.8418  -45.6981 H         1 UNK         0.0600 
    182 H182       -2.8248  -11.1589  -46.1386 H         1 UNK         0.0600 
    183 H183       -1.5716  -10.6499  -47.2571 H         1 UNK         0.0600 
    184 H184        0.6557  -10.4820  -46.2751 H         1 UNK         0.3000 
    185 H185        2.8991  -10.8637  -46.6967 H         1 UNK         0.0600 
    186 H186        2.8728   -9.5809  -44.5448 H         1 UNK         0.0600 
    187 H187        3.6751  -10.9128  -43.7200 H         1 UNK         0.0600 
    188 H188        4.5184  -10.0152  -44.9814 H         1 UNK         0.0600 
    189 H189        4.5375  -12.7212  -45.1129 H         1 UNK         0.3000 
    190 H190       -1.5890  -20.1871  -47.2272 H         1 UNK         0.3000 
    191 H191       -3.6969  -20.7270  -49.0634 H         1 UNK         0.0600 
    192 H192       -3.7709  -18.8652  -47.4295 H         1 UNK         0.0600 
    193 H193       -3.8563  -20.0090  -46.0929 H         1 UNK         0.0600 
    194 H194       -5.1736  -19.9097  -47.2537 H         1 UNK         0.0600 
    195 H195       -2.7756  -22.3771  -46.0020 H         1 UNK         0.3000 
    196 H196       -4.7876  -24.3498  -46.0120 H         1 UNK         0.0600 
    197 H197       -3.4062  -23.8215  -44.0296 H         1 UNK         0.0600 
    198 H198       -1.9633  -24.4411  -44.8279 H         1 UNK         0.0600 
    199 H199       -3.2785  -25.5326  -44.4093 H         1 UNK         0.0600 
    200 H200       -1.4663  -24.4720  -47.3961 H         1 UNK         0.3000 
    201 H201       -1.5639  -27.1078  -48.4142 H         1 UNK         0.0600 
    202 H202        0.5332  -25.8120  -48.1637 H         1 UNK         0.0600 
    203 H203        0.0064  -24.6630  -49.3926 H         1 UNK         0.0600 
    204 H204        0.3517  -26.3321  -49.8321 H         1 UNK         0.0600 
    205 H205       -2.8262  -24.0909  -49.7347 H         1 UNK         0.3000 
    206 H206       -3.6018  -25.2709  -52.3121 H         1 UNK         0.0600 
    207 H207       -2.7281  -22.9842  -52.2704 H         1 UNK         0.0600 
    208 H208       -3.9437  -22.4900  -51.0973 H         1 UNK         0.0600 
    209 H209       -4.4155  -22.9290  -52.7370 H         1 UNK         0.0600 
    210 H210       -4.8255  -25.9138  -49.4297 H         1 UNK         0.3000 
    211 H211       -6.7261  -26.6592  -48.6002 H         1 UNK         0.0600 
    212 H212       -7.7825  -26.7270  -51.4775 H         1 UNK         0.0600 
    213 H213       -8.4506  -27.5922  -50.1024 H         1 UNK         0.0600 
    214 H214       -6.8486  -28.0003  -50.6954 H         1 UNK         0.0600 
    215 H215       -6.3861  -24.1507  -48.1100 H         1 UNK         0.3000 
    216 H216       -7.2856  -22.3391  -47.2428 H         1 UNK         0.0600 
    217 H217       -9.6768  -22.0700  -46.8032 H         1 UNK         0.0600 
    218 H218       -9.2106  -23.7200  -46.4229 H         1 UNK         0.0600 
    219 H219      -10.0918  -23.3681  -47.9094 H         1 UNK         0.0600 
    220 H220       -6.1619  -22.2821  -49.6180 H         1 UNK         0.3000 
    221 H221       -5.7617  -21.1340  -51.4737 H         1 UNK         0.0600 
    222 H222       -7.6104  -18.9995  -50.3025 H         1 UNK         0.0600 
    223 H223       -5.9113  -19.2198  -49.8839 H         1 UNK         0.0600 
    224 H224       -6.3602  -18.7536  -51.5159 H         1 UNK         0.0600 
    225 H225       -7.6136  -23.1245  -51.8715 H         1 UNK         0.3000 
    226 H226       -9.6660  -22.1164  -53.7591 H         1 UNK         0.0600 
    227 H227      -10.3099  -23.9336  -52.1982 H         1 UNK         0.0600 
    228 H228      -10.3192  -24.5183  -53.8563 H         1 UNK         0.0600 
    229 H229       -8.9912  -24.9431  -52.7812 H         1 UNK         0.0600 
    230 H230       -6.7271  -24.1667  -53.6345 H         1 UNK         0.3000 
    231 H231       -6.5132  -24.3354  -56.5771 H         1 UNK         0.0600 
    232 H232       -4.6508  -25.8873  -56.0376 H         1 UNK         0.0600 
    233 H233       -6.1206  -26.3612  -55.1996 H         1 UNK         0.0600 
    234 H234       -4.8314  -25.5443  -54.3215 H         1 UNK         0.0600 
    235 H235       -6.4473  -21.8563  -56.3231 H         1 UNK         0.3000 
    236 H236       -5.4518  -19.9136  -56.6410 H         1 UNK         0.0600 
    237 H237       -2.7582  -21.3313  -57.0069 H         1 UNK         0.0600 
    238 H238       -3.9627  -21.1464  -58.2778 H         1 UNK         0.0600 
    239 H239       -3.2067  -19.7285  -57.5825 H         1 UNK         0.0600 
    240 H240       -2.6172  -19.2544  -55.7060 H         1 UNK         0.3000 
    241 H241       -3.3641  -18.4316  -53.0519 H         1 UNK         0.0600 
    242 H242       -1.9617  -20.9096  -50.9528 H         1 UNK         0.3800 
    243 H243       -3.0091  -19.5140  -51.1143 H         1 UNK         0.3800 
    244 H244       -1.8575  -17.1507  -54.7485 H         1 UNK         0.0800 
    245 H245       -0.5544  -18.1825  -54.2232 H         1 UNK         0.0800 
    246 H246        0.1788  -14.7820  -52.7342 H         1 UNK         0.0800 
    247 H247        0.4795  -15.9422  -53.9974 H         1 UNK         0.0800 
@<TRIPOS>BOND
     1    1    2 1    
     2    1  127 1    
     3    1  128 1    
     4    1  129 1    
     5    2    3 2    
     6    2    4 am   BACKBONE|DICT|INTERRES
     7    4    5 1    
     8    4  130 1    
     9    5    6 1    
    10    5   65 1    
    11    5  131 1    
    12    6    7 1    
    13    6  132 1    
    14    6  133 1    
    15    7    8 1    
    16    8    9 1    
    17    8  134 1    
    18    8  135 1    
    19    9   10 ar   
    20    9   14 ar   
    21   10   11 ar   
    22   10  136 1    
    23   11   12 ar   
    24   11  126 1    
    25   12   13 ar   
    26   12  137 1    
    27   13   14 ar   
    28   13   15 1    
    29   14  138 1    
    30   15   16 1    
    31   15  139 1    
    32   15  140 1    
    33   16   17 1    
    34   17   18 1    
    35   17  141 1    
    36   17  142 1    
    37   18   19 1    
    38   18   67 1    
    39   18  143 1    
    40   19   20 am   BACKBONE|DICT|INTERRES
    41   19  144 1    
    42   20   21 2    
    43   20   22 1    
    44   22   23 1    
    45   22   24 1    
    46   22  145 1    
    47   23  146 1    
    48   23  147 1    
    49   23  148 1    
    50   24   25 am   BACKBONE|DICT|INTERRES
    51   24  149 1    
    52   25   26 2    
    53   25   27 1    
    54   27   28 1    
    55   27   29 1    
    56   27  150 1    
    57   28  151 1    
    58   28  152 1    
    59   28  153 1    
    60   29   30 am   BACKBONE|DICT|INTERRES
    61   29  154 1    
    62   30   31 2    
    63   30   32 1    
    64   32   33 1    
    65   32   34 1    
    66   32  155 1    
    67   33  156 1    
    68   33  157 1    
    69   33  158 1    
    70   34   35 am   BACKBONE|DICT|INTERRES
    71   34  159 1    
    72   35   36 2    
    73   35   37 1    
    74   37   38 1    
    75   37   39 1    
    76   37  160 1    
    77   38  161 1    
    78   38  162 1    
    79   38  163 1    
    80   39   40 am   BACKBONE|DICT|INTERRES
    81   39  164 1    
    82   40   41 2    
    83   40   42 1    
    84   42   43 1    
    85   42   44 1    
    86   42  165 1    
    87   43  166 1    
    88   43  167 1    
    89   43  168 1    
    90   44   45 am   BACKBONE|DICT|INTERRES
    91   44  169 1    
    92   45   46 2    
    93   45   47 1    
    94   47   48 1    
    95   47   49 1    
    96   47  170 1    
    97   48  171 1    
    98   48  172 1    
    99   48  173 1    
   100   49   50 am   BACKBONE|DICT|INTERRES
   101   49  174 1    
   102   50   51 2    
   103   50   52 1    
   104   52   53 1    
   105   52   54 1    
   106   52  175 1    
   107   53  176 1    
   108   53  177 1    
   109   53  178 1    
   110   54   55 am   BACKBONE|DICT|INTERRES
   111   54  179 1    
   112   55   56 2    
   113   55   57 1    
   114   57   58 1    
   115   57   59 1    
   116   57  180 1    
   117   58  181 1    
   118   58  182 1    
   119   58  183 1    
   120   59   60 am   BACKBONE|DICT|INTERRES
   121   59  184 1    
   122   60   61 2    
   123   60   62 1    
   124   62   63 1    
   125   62   64 1    
   126   62  185 1    
   127   63  186 1    
   128   63  187 1    
   129   63  188 1    
   130   64   65 am   BACKBONE|DICT|INTERRES
   131   64  189 1    
   132   65   66 2    
   133   67   68 2    
   134   67   69 am   BACKBONE|DICT|INTERRES
   135   69   70 1    
   136   69  190 1    
   137   70   71 1    
   138   70   72 1    
   139   70  191 1    
   140   71  192 1    
   141   71  193 1    
   142   71  194 1    
   143   72   73 2    
   144   72   74 am   BACKBONE|DICT|INTERRES
   145   74   75 1    
   146   74  195 1    
   147   75   76 1    
   148   75   77 1    
   149   75  196 1    
   150   76  197 1    
   151   76  198 1    
   152   76  199 1    
   153   77   78 2    
   154   77   79 am   BACKBONE|DICT|INTERRES
   155   79   80 1    
   156   79  200 1    
   157   80   81 1    
   158   80   82 1    
   159   80  201 1    
   160   81  202 1    
   161   81  203 1    
   162   81  204 1    
   163   82   83 2    
   164   82   84 am   BACKBONE|DICT|INTERRES
   165   84   85 1    
   166   84  205 1    
   167   85   86 1    
   168   85   87 1    
   169   85  206 1    
   170   86  207 1    
   171   86  208 1    
   172   86  209 1    
   173   87   88 2    
   174   87   89 am   BACKBONE|DICT|INTERRES
   175   89   90 1    
   176   89  210 1    
   177   90   91 1    
   178   90   92 1    
   179   90  211 1    
   180   91  212 1    
   181   91  213 1    
   182   91  214 1    
   183   92   93 2    
   184   92   94 am   BACKBONE|DICT|INTERRES
   185   94   95 1    
   186   94  215 1    
   187   95   96 1    
   188   95   97 1    
   189   95  216 1    
   190   96  217 1    
   191   96  218 1    
   192   96  219 1    
   193   97   98 2    
   194   97   99 am   BACKBONE|DICT|INTERRES
   195   99  100 1    
   196   99  220 1    
   197  100  101 1    
   198  100  102 1    
   199  100  221 1    
   200  101  222 1    
   201  101  223 1    
   202  101  224 1    
   203  102  103 2    
   204  102  104 am   BACKBONE|DICT|INTERRES
   205  104  105 1    
   206  104  225 1    
   207  105  106 1    
   208  105  107 1    
   209  105  226 1    
   210  106  227 1    
   211  106  228 1    
   212  106  229 1    
   213  107  108 2    
   214  107  109 am   BACKBONE|DICT|INTERRES
   215  109  110 1    
   216  109  230 1    
   217  110  111 1    
   218  110  112 1    
   219  110  231 1    
   220  111  232 1    
   221  111  233 1    
   222  111  234 1    
   223  112  113 2    
   224  112  114 am   BACKBONE|DICT|INTERRES
   225  114  115 1    
   226  114  235 1    
   227  115  116 1    
   228  115  117 1    
   229  115  236 1    
   230  116  237 1    
   231  116  238 1    
   232  116  239 1    
   233  117  118 2    
   234  117  119 am   BACKBONE|DICT|INTERRES
   235  119  120 1    
   236  119  240 1    
   237  120  121 1    
   238  120  124 1    
   239  120  241 1    
   240  121  122 am   BACKBONE|DICT|INTERRES
   241  121  123 2    
   242  122  242 1    
   243  122  243 1    
   244  124  125 1    
   245  124  244 1    
   246  124  245 1    
   247  125  126 1    
   248  126  246 1    
   249  126  247 1    
@<TRIPOS>SUBSTRUCTURE
     1 UNK         1 GROUP             0       ****    0 ROOT    
