@<TRIPOS>MOLECULE
3R540
247   249    1
SMALL
USER_CHARGES


@<TRIPOS>ATOM
      1 CA         -3.3979  -12.1787  -45.7440 C.3       0 UNK        -0.1800 
      2 C          -2.3831  -11.7467  -46.7929 C.2       0 UNK         0.5000 
      3 O          -2.4655  -10.6307  -47.3053 O.2       0 UNK        -0.5000 
      4 N          -1.4314  -12.6316  -47.1154 N.am      1 UNK        -0.5000 
      5 CA         -0.3761  -12.4309  -48.1184 C.3       1 UNK         0.1400 
      6 C6          0.3860  -13.7463  -48.4511 C.3       23 UNK        -0.0398 
      7 S7         -0.6125  -15.2772  -48.5210 S.3       23 UNK        -0.2404 
      8 C8         -1.9904  -14.8367  -49.6204 C.3       23 UNK        -0.0205 
      9 C9         -3.0489  -15.9275  -49.6218 C.ar      23 UNK        -0.0193 
     10 C10        -3.2176  -16.7467  -50.7390 C.ar      23 UNK        -0.1150 
     11 C11        -4.2220  -17.7184  -50.7642 C.ar      23 UNK        -0.0193 
     12 C12        -5.0523  -17.8799  -49.6503 C.ar      23 UNK        -0.1150 
     13 C13        -4.8812  -17.0782  -48.5162 C.ar      23 UNK        -0.0193 
     14 C14        -3.8802  -16.1016  -48.5114 C.ar      23 UNK        -0.1150 
     15 C15        -5.7970  -17.2351  -47.3081 C.3       23 UNK        -0.0205 
     16 S16        -5.6747  -18.8735  -46.5177 S.3       23 UNK        -0.2404 
     17 C17        -3.9168  -18.9480  -46.0278 C.3       23 UNK        -0.0398 
     18 CA         -3.1139  -19.9464  -46.8957 C.3       11 UNK         0.1400 
     19 N          -1.6748  -19.6794  -46.8503 N.am      11 UNK        -0.5000 
     20 C          -0.7800  -20.2398  -47.6757 C.2       10 UNK         0.5000 
     21 O          -1.0819  -21.0067  -48.5895 O.2       10 UNK        -0.5000 
     22 CA          0.7041  -19.9355  -47.4088 C.3       10 UNK         0.1400 
     23 CB          1.0920  -18.5689  -47.9875 C.3       10 UNK        -0.1800 
     24 N           1.0493  -19.9851  -45.9874 N.am      10 UNK        -0.5000 
     25 C           0.9801  -21.0854  -45.2250 C.2       9 UNK         0.5000 
     26 O           0.6518  -22.1904  -45.6540 O.2       9 UNK        -0.5000 
     27 CA          1.2829  -20.9189  -43.7236 C.3       9 UNK         0.1400 
     28 CB          2.7960  -20.8585  -43.4691 C.3       9 UNK        -0.1800 
     29 N           0.6386  -19.7397  -43.1448 N.am      9 UNK        -0.5000 
     30 C          -0.6879  -19.5511  -43.0832 C.2       8 UNK         0.5000 
     31 O          -1.5195  -20.3720  -43.4677 O.2       8 UNK        -0.5000 
     32 CA         -1.1639  -18.1835  -42.5688 C.3       8 UNK         0.1400 
     33 CB         -1.1488  -18.1263  -41.0338 C.3       8 UNK        -0.1800 
     34 N          -0.3562  -17.0965  -43.1190 N.am      8 UNK        -0.5000 
     35 C          -0.3464  -16.7560  -44.4151 C.2       7 UNK         0.5000 
     36 O          -1.0563  -17.2883  -45.2677 O.2       7 UNK        -0.5000 
     37 CA          0.6482  -15.6615  -44.8290 C.3       7 UNK         0.1400 
     38 CB          0.0651  -14.2784  -44.5256 C.3       7 UNK        -0.1800 
     39 N           1.9443  -15.7995  -44.1663 N.am      7 UNK        -0.5000 
     40 C           2.8076  -16.7976  -44.4093 C.2       6 UNK         0.5000 
     41 O           2.6120  -17.6739  -45.2491 O.2       6 UNK        -0.5000 
     42 CA          4.0821  -16.8617  -43.5445 C.3       6 UNK         0.1400 
     43 CB          5.2265  -16.0937  -44.2220 C.3       6 UNK        -0.1800 
     44 N           3.8922  -16.3388  -42.1921 N.am      6 UNK        -0.5000 
     45 C           3.0000  -16.7924  -41.3005 C.2       5 UNK         0.5000 
     46 O           2.2965  -17.7860  -41.4889 O.2       5 UNK        -0.5000 
     47 CA          2.8237  -15.9660  -40.0094 C.3       5 UNK         0.1400 
     48 CB          3.5265  -16.6576  -38.8320 C.3       5 UNK        -0.1800 
     49 N           3.3035  -14.5796  -40.1077 N.am      5 UNK        -0.5000 
     50 C           2.8260  -13.6486  -40.9459 C.2       4 UNK         0.5000 
     51 O           1.9266  -13.8598  -41.7629 O.2       4 UNK        -0.5000 
     52 CA          3.5180  -12.2799  -40.9084 C.3       4 UNK         0.1400 
     53 CB          4.8492  -12.3281  -41.6823 C.3       4 UNK        -0.1800 
     54 N           2.6422  -11.2738  -41.5012 N.am      4 UNK        -0.5000 
     55 C           2.7083   -9.9568  -41.2777 C.2       3 UNK         0.5000 
     56 O           3.5318   -9.4404  -40.5195 O.2       3 UNK        -0.5000 
     57 CA          1.7117   -9.0735  -42.0595 C.3       3 UNK         0.1400 
     58 CB          1.8376   -7.5789  -41.7105 C.3       3 UNK        -0.1800 
     59 N           1.8919   -9.2343  -43.5041 N.am      3 UNK        -0.5000 
     60 C           1.3418  -10.2084  -44.2356 C.2       2 UNK         0.5000 
     61 O           0.5748  -11.0559  -43.7692 O.2       2 UNK        -0.5000 
     62 CA          1.7441  -10.2726  -45.7170 C.3       2 UNK         0.1400 
     63 CB          3.1892  -10.7882  -45.8650 C.3       2 UNK        -0.1800 
     64 N           0.8206  -11.1780  -46.3866 N.am      2 UNK        -0.5000 
     65 C           0.6376  -11.3401  -47.7014 C.2       1 UNK         0.5000 
     66 O           1.2332  -10.6936  -48.5640 O.2       1 UNK        -0.5000 
     67 C          -3.4336  -21.4170  -46.5420 C.2       11 UNK         0.5000 
     68 O          -4.2343  -22.0478  -47.2321 O.2       11 UNK        -0.5000 
     69 N          -2.7677  -21.9589  -45.5113 N.am      12 UNK        -0.5000 
     70 CA         -2.8764  -23.3613  -45.1033 C.3       12 UNK         0.1400 
     71 CB         -2.1457  -23.5716  -43.7687 C.3       12 UNK        -0.1800 
     72 C          -2.3591  -24.3446  -46.1703 C.2       12 UNK         0.5000 
     73 O          -2.9378  -25.4190  -46.3258 O.2       12 UNK        -0.5000 
     74 N          -1.3009  -23.9572  -46.8961 N.am      13 UNK        -0.5000 
     75 CA         -0.7653  -24.6979  -48.0380 C.3       13 UNK         0.1400 
     76 CB          0.6233  -24.1519  -48.4058 C.3       13 UNK        -0.1800 
     77 C          -1.7061  -24.6644  -49.2567 C.2       13 UNK         0.5000 
     78 O          -1.8326  -25.6784  -49.9416 O.2       13 UNK        -0.5000 
     79 N          -2.3465  -23.5109  -49.4974 N.am      14 UNK        -0.5000 
     80 CA         -3.3197  -23.3061  -50.5707 C.3       14 UNK         0.1400 
     81 CB         -3.6231  -21.8061  -50.7081 C.3       14 UNK        -0.1800 
     82 C          -4.6254  -24.0970  -50.3633 C.2       14 UNK         0.5000 
     83 O          -5.1997  -24.6002  -51.3300 O.2       14 UNK        -0.5000 
     84 N          -5.0876  -24.1673  -49.1085 N.am      15 UNK        -0.5000 
     85 CA         -6.3097  -24.8547  -48.7015 C.3       15 UNK         0.1400 
     86 CB         -6.6158  -24.5053  -47.2366 C.3       15 UNK        -0.1800 
     87 C          -6.2198  -26.3814  -48.8904 C.2       15 UNK         0.5000 
     88 O          -5.2789  -27.0044  -48.3957 O.2       15 UNK        -0.5000 
     89 N          -7.2284  -26.9489  -49.5693 N.am      16 UNK        -0.5000 
     90 CA         -7.4585  -28.3844  -49.7898 C.3       16 UNK         0.1400 
     91 CB         -7.8375  -29.0731  -48.4613 C.3       16 UNK        -0.1800 
     92 C          -6.3168  -29.1154  -50.5341 C.2       16 UNK         0.5000 
     93 O          -6.1087  -30.3113  -50.3185 O.2       16 UNK        -0.5000 
     94 N          -5.6064  -28.3945  -51.4074 N.am      17 UNK        -0.5000 
     95 CA         -4.4935  -28.8899  -52.2130 C.3       17 UNK         0.1400 
     96 CB         -3.2095  -28.9468  -51.3567 C.3       17 UNK        -0.1800 
     97 C          -4.3562  -28.0078  -53.4670 C.2       17 UNK         0.5000 
     98 O          -5.3448  -27.4120  -53.9048 O.2       17 UNK        -0.5000 
     99 N          -3.1412  -27.9312  -54.0271 N.am      18 UNK        -0.5000 
    100 CA        -2.7672  -26.9760  -55.0723 C.3       18 UNK         0.1400 
    101 CB        -1.3558  -27.3138  -55.5769 C.3       18 UNK        -0.1800 
    102 C         -2.8216  -25.5301  -54.5421 C.2       18 UNK         0.5000 
    103 O         -2.5875  -25.3131  -53.3538 O.2       18 UNK        -0.5000 
    104 N         -3.1194  -24.5745  -55.4315 N.am      19 UNK        -0.5000 
    105 CA        -3.4324  -23.1785  -55.1025 C.3       19 UNK         0.1400 
    106 CB        -3.8830  -22.4633  -56.3847 C.3       19 UNK        -0.1800 
    107 C         -2.3134  -22.3795  -54.4024 C.2       19 UNK         0.5000 
    108 O         -2.6183  -21.3710  -53.7647 O.2       19 UNK        -0.5000 
    109 N         -1.0557  -22.8317  -54.5249 N.am      20 UNK        -0.5000 
    110 CA         0.1452  -22.2832  -53.8854 C.3       20 UNK         0.1400 
    111 CB         0.1333  -22.6036  -52.3720 C.3       20 UNK        -0.1800 
    112 C          0.3266  -20.7857  -54.2120 C.2       20 UNK         0.5000 
    113 O          0.5536  -20.4495  -55.3758 O.2       20 UNK        -0.5000 
    114 N          0.1711  -19.9130  -53.2069 N.am      21 UNK        -0.5000 
    115 CA         0.2154  -18.4530  -53.3292 C.3       21 UNK         0.1400 
    116 CB         0.1556  -17.8383  -51.9221 C.3       21 UNK        -0.1800 
    117 C         -0.8788  -17.8538  -54.2396 C.2       21 UNK         0.5000 
    118 O         -0.6891  -16.7517  -54.7558 O.2       21 UNK        -0.5000 
    119 N         -1.9800  -18.5881  -54.4402 N.am      22 UNK        -0.5000 
    120 CA        -3.0524  -18.2642  -55.3937 C.3       22 UNK         0.1400 
    121 C         -2.8200  -18.8731  -56.8094 C.2       22 UNK         0.5000 
    122 N         -1.7327  -19.5904  -57.0723 N.am      22 UNK        -0.7600 
    123 O         -3.6391  -18.6761  -57.7027 O.2       22 UNK        -0.5000 
    124 C124       -4.4489  -18.6394  -54.8270 C.3       23 UNK        -0.0398 
    125 S125       -4.9288  -17.5751  -53.4267 S.3       23 UNK        -0.2404 
    126 C126       -4.4017  -18.5802  -52.0033 C.3       23 UNK        -0.0205 
    127 H127       -3.2954  -11.5647  -44.8492 H         1 UNK         0.0600 
    128 H128       -3.2678  -13.2228  -45.4582 H         1 UNK         0.0600 
    129 H129       -4.4105  -12.0577  -46.1288 H         1 UNK         0.0600 
    130 H130       -1.4452  -13.5479  -46.6927 H         1 UNK         0.3000 
    131 H131       -0.8620  -12.0823  -49.0320 H         1 UNK         0.0600 
    132 H132        1.1647  -13.9347  -47.7090 H         1 UNK         0.0800 
    133 H133        0.9082  -13.6385  -49.4032 H         1 UNK         0.0800 
    134 H134       -2.4565  -13.9048  -49.3019 H         1 UNK         0.0800 
    135 H135       -1.6054  -14.6641  -50.6265 H         1 UNK         0.0800 
    136 H136       -2.5841  -16.6141  -51.6047 H         1 UNK         0.1150 
    137 H137       -5.8322  -18.6283  -49.6619 H         1 UNK         0.1150 
    138 H138       -3.7473  -15.4686  -47.6454 H         1 UNK         0.1150 
    139 H139       -5.5892  -16.4681  -46.5603 H         1 UNK         0.0800 
    140 H140       -6.8280  -17.0768  -47.6269 H         1 UNK         0.0800 
    141 H141       -3.8461  -19.1997  -44.9682 H         1 UNK         0.0800 
    142 H142       -3.4931  -17.9476  -46.1217 H         1 UNK         0.0800 
    143 H143       -3.4136  -19.7947  -47.9352 H         1 UNK         0.0600 
    144 H144       -1.3543  -19.0110  -46.1557 H         1 UNK         0.3000 
    145 H145        1.2926  -20.6986  -47.9223 H         1 UNK         0.0600 
    146 H146        2.1703  -18.4146  -47.9479 H         1 UNK         0.0600 
    147 H147        0.7859  -18.4816  -49.0294 H         1 UNK         0.0600 
    148 H148        0.6186  -17.7562  -47.4379 H         1 UNK         0.0600 
    149 H149        1.3907  -19.1207  -45.5766 H         1 UNK         0.3000 
    150 H150        0.8885  -21.7959  -43.2063 H         1 UNK         0.0600 
    151 H151        3.2867  -21.7634  -43.8295 H         1 UNK         0.0600 
    152 H152        3.0149  -20.7700  -42.4047 H         1 UNK         0.0600 
    153 H153        3.2576  -20.0125  -43.9773 H         1 UNK         0.0600 
    154 H154        1.2466  -19.0174  -42.7736 H         1 UNK         0.3000 
    155 H155       -2.1944  -18.0414  -42.9019 H         1 UNK         0.0600 
    156 H156       -1.5174  -17.1666  -40.6714 H         1 UNK         0.0600 
    157 H157       -1.7902  -18.9010  -40.6119 H         1 UNK         0.0600 
    158 H158       -0.1483  -18.2761  -40.6285 H         1 UNK         0.0600 
    159 H159        0.2901  -16.6418  -42.4908 H         1 UNK         0.3000 
    160 H160        0.8054  -15.7420  -45.9057 H         1 UNK         0.0600 
    161 H161       -0.0581  -14.1136  -43.4552 H         1 UNK         0.0600 
    162 H162       -0.9180  -14.1630  -44.9783 H         1 UNK         0.0600 
    163 H163        0.7135  -13.4952  -44.9128 H         1 UNK         0.0600 
    164 H164        2.1499  -15.1320  -43.4312 H         1 UNK         0.3000 
    165 H165        4.3735  -17.9099  -43.4576 H         1 UNK         0.0600 
    166 H166        6.1568  -16.1966  -43.6631 H         1 UNK         0.0600 
    167 H167        5.4095  -16.4737  -45.2280 H         1 UNK         0.0600 
    168 H168        5.0016  -15.0297  -44.3086 H         1 UNK         0.0600 
    169 H169        4.4296  -15.5218  -41.9455 H         1 UNK         0.3000 
    170 H170        1.7533  -15.9314  -39.7964 H         1 UNK         0.0600 
    171 H171        3.1718  -17.6823  -38.7118 H         1 UNK         0.0600 
    172 H172        4.6068  -16.6991  -38.9766 H         1 UNK         0.0600 
    173 H173        3.3317  -16.1368  -37.8943 H         1 UNK         0.0600 
    174 H174        4.0551  -14.3275  -39.4815 H         1 UNK         0.3000 
    175 H175        3.7075  -12.0230  -39.8641 H         1 UNK         0.0600 
    176 H176        5.5231  -13.0777  -41.2661 H         1 UNK         0.0600 
    177 H177        4.6920  -12.5729  -42.7338 H         1 UNK         0.0600 
    178 H178        5.3689  -11.3710  -41.6380 H         1 UNK         0.0600 
    179 H179        1.9212  -11.6416  -42.1151 H         1 UNK         0.3000 
    180 H180        0.7057   -9.3924  -41.7780 H         1 UNK         0.0600 
    181 H181        2.8223   -7.1853  -41.9659 H         1 UNK         0.0600 
    182 H182        1.6818   -7.4116  -40.6440 H         1 UNK         0.0600 
    183 H183        1.0923   -6.9870  -42.2421 H         1 UNK         0.0600 
    184 H184        2.5413   -8.5981  -43.9442 H         1 UNK         0.3000 
    185 H185        1.6511   -9.2759  -46.1524 H         1 UNK         0.0600 
    186 H186        3.4930  -10.8324  -46.9107 H         1 UNK         0.0600 
    187 H187        3.8968  -10.1342  -45.3543 H         1 UNK         0.0600 
    188 H188        3.3022  -11.7875  -45.4419 H         1 UNK         0.0600 
    189 H189        0.2438  -11.7032  -45.7403 H         1 UNK         0.3000 
    190 H190       -2.1532  -21.3724  -44.9523 H         1 UNK         0.3000 
    191 H191       -3.9352  -23.5771  -44.9452 H         1 UNK         0.0600 
    192 H192       -1.0840  -23.3382  -43.8500 H         1 UNK         0.0600 
    193 H193       -2.2303  -24.6066  -43.4356 H         1 UNK         0.0600 
    194 H194       -2.5678  -22.9425  -42.9850 H         1 UNK         0.0600 
    195 H195       -0.8246  -23.0968  -46.6448 H         1 UNK         0.3000 
    196 H196       -0.6471  -25.7412  -47.7379 H         1 UNK         0.0600 
    197 H197        1.0543  -24.7121  -49.2365 H         1 UNK         0.0600 
    198 H198        1.3135  -24.2313  -47.5658 H         1 UNK         0.0600 
    199 H199        0.5805  -23.1050  -48.7056 H         1 UNK         0.0600 
    200 H200       -2.1278  -22.7036  -48.9230 H         1 UNK         0.3000 
    201 H201       -2.8623  -23.6392  -51.5012 H         1 UNK         0.0600 
    202 H202       -2.7173  -21.2305  -50.8966 H         1 UNK         0.0600 
    203 H203       -4.0958  -21.4000  -49.8143 H         1 UNK         0.0600 
    204 H204       -4.2991  -21.6300  -51.5450 H         1 UNK         0.0600 
    205 H205       -4.5780  -23.6781  -48.3800 H         1 UNK         0.3000 
    206 H206       -7.1250  -24.4686  -49.3168 H         1 UNK         0.0600 
    207 H207       -6.7532  -23.4315  -47.1072 H         1 UNK         0.0600 
    208 H208       -7.5305  -24.9946  -46.8998 H         1 UNK         0.0600 
    209 H209       -5.8093  -24.8208  -46.5732 H         1 UNK         0.0600 
    210 H210       -7.9380  -26.3412  -49.9548 H         1 UNK         0.3000 
    211 H211       -8.3259  -28.4509  -50.4478 H         1 UNK         0.0600 
    212 H212       -6.9974  -29.0987  -47.7665 H         1 UNK         0.0600 
    213 H213       -8.1560  -30.1027  -48.6280 H         1 UNK         0.0600 
    214 H214       -8.6627  -28.5571  -47.9706 H         1 UNK         0.0600 
    215 H215       -5.8563  -27.4274  -51.5720 H         1 UNK         0.3000 
    216 H216       -4.7303  -29.8968  -52.5624 H         1 UNK         0.0600 
    217 H217       -2.8863  -27.9479  -51.0606 H         1 UNK         0.0600 
    218 H218       -2.3877  -29.4204  -51.8939 H         1 UNK         0.0600 
    219 H219       -3.3635  -29.5257  -50.4461 H         1 UNK         0.0600 
    220 H220       -2.3803  -28.4253  -53.5853 H         1 UNK         0.3000 
    221 H221       -3.4732  -27.0774  -55.8993 H         1 UNK         0.0600 
    222 H222       -1.3100  -28.3289  -55.9718 H         1 UNK         0.0600 
    223 H223       -0.6133  -27.2281  -54.7823 H         1 UNK         0.0600 
    224 H224       -1.0556  -26.6401  -56.3804 H         1 UNK         0.0600 
    225 H225       -3.2625  -24.8413  -56.3949 H         1 UNK         0.3000 
    226 H226       -4.2783  -23.1963  -54.4118 H         1 UNK         0.0600 
    227 H227       -4.7239  -22.9765  -56.8514 H         1 UNK         0.0600 
    228 H228       -4.2098  -21.4461  -56.1715 H         1 UNK         0.0600 
    229 H229       -3.0760  -22.4029  -57.1159 H         1 UNK         0.0600 
    230 H230       -0.9126  -23.6515  -55.0957 H         1 UNK         0.3000 
    231 H231        0.9989  -22.7994  -54.3264 H         1 UNK         0.0600 
    232 H232       -0.7076  -22.1414  -51.8555 H         1 UNK         0.0600 
    233 H233        1.0497  -22.2640  -51.8879 H         1 UNK         0.0600 
    234 H234        0.0618  -23.6786  -52.2037 H         1 UNK         0.0600 
    235 H235       -0.0511  -20.2790  -52.2928 H         1 UNK         0.3000 
    236 H236        1.1764  -18.1878  -53.7743 H         1 UNK         0.0600 
    237 H237        1.0443  -18.0999  -51.3485 H         1 UNK         0.0600 
    238 H238        0.1099  -16.7491  -51.9641 H         1 UNK         0.0600 
    239 H239       -0.7167  -18.1845  -51.3667 H         1 UNK         0.0600 
    240 H240       -2.0472  -19.5055  -54.0094 H         1 UNK         0.3000 
    241 H241       -3.0564  -17.1851  -55.5578 H         1 UNK         0.0600 
    242 H242       -1.6037  -19.9569  -58.0016 H         1 UNK         0.3800 
    243 H243       -1.0189  -19.7555  -56.3710 H         1 UNK         0.3800 
    244 H244       -4.4878  -19.6866  -54.5269 H         1 UNK         0.0800 
    245 H245       -5.2209  -18.5165  -55.5883 H         1 UNK         0.0800 
    246 H246       -5.1397  -19.3645  -51.8316 H         1 UNK         0.0800 
    247 H247       -3.4582  -19.0813  -52.2190 H         1 UNK         0.0800 
@<TRIPOS>BOND
     1    1    2 1    
     2    1  127 1    
     3    1  128 1    
     4    1  129 1    
     5    2    3 2    
     6    2    4 am   BACKBONE|DICT|INTERRES
     7    4    5 1    
     8    4  130 1    
     9    5    6 1    
    10    5   65 1    
    11    5  131 1    
    12    6    7 1    
    13    6  132 1    
    14    6  133 1    
    15    7    8 1    
    16    8    9 1    
    17    8  134 1    
    18    8  135 1    
    19    9   10 ar   
    20    9   14 ar   
    21   10   11 ar   
    22   10  136 1    
    23   11   12 ar   
    24   11  126 1    
    25   12   13 ar   
    26   12  137 1    
    27   13   14 ar   
    28   13   15 1    
    29   14  138 1    
    30   15   16 1    
    31   15  139 1    
    32   15  140 1    
    33   16   17 1    
    34   17   18 1    
    35   17  141 1    
    36   17  142 1    
    37   18   19 1    
    38   18   67 1    
    39   18  143 1    
    40   19   20 am   BACKBONE|DICT|INTERRES
    41   19  144 1    
    42   20   21 2    
    43   20   22 1    
    44   22   23 1    
    45   22   24 1    
    46   22  145 1    
    47   23  146 1    
    48   23  147 1    
    49   23  148 1    
    50   24   25 am   BACKBONE|DICT|INTERRES
    51   24  149 1    
    52   25   26 2    
    53   25   27 1    
    54   27   28 1    
    55   27   29 1    
    56   27  150 1    
    57   28  151 1    
    58   28  152 1    
    59   28  153 1    
    60   29   30 am   BACKBONE|DICT|INTERRES
    61   29  154 1    
    62   30   31 2    
    63   30   32 1    
    64   32   33 1    
    65   32   34 1    
    66   32  155 1    
    67   33  156 1    
    68   33  157 1    
    69   33  158 1    
    70   34   35 am   BACKBONE|DICT|INTERRES
    71   34  159 1    
    72   35   36 2    
    73   35   37 1    
    74   37   38 1    
    75   37   39 1    
    76   37  160 1    
    77   38  161 1    
    78   38  162 1    
    79   38  163 1    
    80   39   40 am   BACKBONE|DICT|INTERRES
    81   39  164 1    
    82   40   41 2    
    83   40   42 1    
    84   42   43 1    
    85   42   44 1    
    86   42  165 1    
    87   43  166 1    
    88   43  167 1    
    89   43  168 1    
    90   44   45 am   BACKBONE|DICT|INTERRES
    91   44  169 1    
    92   45   46 2    
    93   45   47 1    
    94   47   48 1    
    95   47   49 1    
    96   47  170 1    
    97   48  171 1    
    98   48  172 1    
    99   48  173 1    
   100   49   50 am   BACKBONE|DICT|INTERRES
   101   49  174 1    
   102   50   51 2    
   103   50   52 1    
   104   52   53 1    
   105   52   54 1    
   106   52  175 1    
   107   53  176 1    
   108   53  177 1    
   109   53  178 1    
   110   54   55 am   BACKBONE|DICT|INTERRES
   111   54  179 1    
   112   55   56 2    
   113   55   57 1    
   114   57   58 1    
   115   57   59 1    
   116   57  180 1    
   117   58  181 1    
   118   58  182 1    
   119   58  183 1    
   120   59   60 am   BACKBONE|DICT|INTERRES
   121   59  184 1    
   122   60   61 2    
   123   60   62 1    
   124   62   63 1    
   125   62   64 1    
   126   62  185 1    
   127   63  186 1    
   128   63  187 1    
   129   63  188 1    
   130   64   65 am   BACKBONE|DICT|INTERRES
   131   64  189 1    
   132   65   66 2    
   133   67   68 2    
   134   67   69 am   BACKBONE|DICT|INTERRES
   135   69   70 1    
   136   69  190 1    
   137   70   71 1    
   138   70   72 1    
   139   70  191 1    
   140   71  192 1    
   141   71  193 1    
   142   71  194 1    
   143   72   73 2    
   144   72   74 am   BACKBONE|DICT|INTERRES
   145   74   75 1    
   146   74  195 1    
   147   75   76 1    
   148   75   77 1    
   149   75  196 1    
   150   76  197 1    
   151   76  198 1    
   152   76  199 1    
   153   77   78 2    
   154   77   79 am   BACKBONE|DICT|INTERRES
   155   79   80 1    
   156   79  200 1    
   157   80   81 1    
   158   80   82 1    
   159   80  201 1    
   160   81  202 1    
   161   81  203 1    
   162   81  204 1    
   163   82   83 2    
   164   82   84 am   BACKBONE|DICT|INTERRES
   165   84   85 1    
   166   84  205 1    
   167   85   86 1    
   168   85   87 1    
   169   85  206 1    
   170   86  207 1    
   171   86  208 1    
   172   86  209 1    
   173   87   88 2    
   174   87   89 am   BACKBONE|DICT|INTERRES
   175   89   90 1    
   176   89  210 1    
   177   90   91 1    
   178   90   92 1    
   179   90  211 1    
   180   91  212 1    
   181   91  213 1    
   182   91  214 1    
   183   92   93 2    
   184   92   94 am   BACKBONE|DICT|INTERRES
   185   94   95 1    
   186   94  215 1    
   187   95   96 1    
   188   95   97 1    
   189   95  216 1    
   190   96  217 1    
   191   96  218 1    
   192   96  219 1    
   193   97   98 2    
   194   97   99 am   BACKBONE|DICT|INTERRES
   195   99  100 1    
   196   99  220 1    
   197  100  101 1    
   198  100  102 1    
   199  100  221 1    
   200  101  222 1    
   201  101  223 1    
   202  101  224 1    
   203  102  103 2    
   204  102  104 am   BACKBONE|DICT|INTERRES
   205  104  105 1    
   206  104  225 1    
   207  105  106 1    
   208  105  107 1    
   209  105  226 1    
   210  106  227 1    
   211  106  228 1    
   212  106  229 1    
   213  107  108 2    
   214  107  109 am   BACKBONE|DICT|INTERRES
   215  109  110 1    
   216  109  230 1    
   217  110  111 1    
   218  110  112 1    
   219  110  231 1    
   220  111  232 1    
   221  111  233 1    
   222  111  234 1    
   223  112  113 2    
   224  112  114 am   BACKBONE|DICT|INTERRES
   225  114  115 1    
   226  114  235 1    
   227  115  116 1    
   228  115  117 1    
   229  115  236 1    
   230  116  237 1    
   231  116  238 1    
   232  116  239 1    
   233  117  118 2    
   234  117  119 am   BACKBONE|DICT|INTERRES
   235  119  120 1    
   236  119  240 1    
   237  120  121 1    
   238  120  124 1    
   239  120  241 1    
   240  121  122 am   BACKBONE|DICT|INTERRES
   241  121  123 2    
   242  122  242 1    
   243  122  243 1    
   244  124  125 1    
   245  124  244 1    
   246  124  245 1    
   247  125  126 1    
   248  126  246 1    
   249  126  247 1    
@<TRIPOS>SUBSTRUCTURE
     1 UNK         1 GROUP             0       ****    0 ROOT    
