@<TRIPOS>MOLECULE
3R540
247   249    1
SMALL
USER_CHARGES


@<TRIPOS>ATOM
      1 CA         -2.1236   -9.5068  -49.6898 C.3       0 UNK        -0.1800 
      2 C          -1.1866  -10.4816  -48.9919 C.2       0 UNK         0.5000 
      3 O          -0.4248  -10.0768  -48.1138 O.2       0 UNK        -0.5000 
      4 N          -1.2499  -11.7672  -49.3668 N.am      1 UNK        -0.5000 
      5 CA         -0.4022  -12.8575  -48.8544 C.3       1 UNK         0.1400 
      6 C6         -0.6524  -14.1973  -49.5953 C.3       23 UNK        -0.0398 
      7 S7         -0.5726  -14.0346  -51.4136 S.3       23 UNK        -0.2404 
      8 C8         -1.2849  -15.6193  -51.9606 C.3       23 UNK        -0.0205 
      9 C9         -0.2133  -16.6848  -52.1295 C.ar      23 UNK        -0.0193 
     10 C10         0.3904  -16.8792  -53.3754 C.ar      23 UNK        -0.1150 
     11 C11         1.3897  -17.8429  -53.5404 C.ar      23 UNK        -0.0193 
     12 C12         1.7872  -18.6145  -52.4446 C.ar      23 UNK        -0.1150 
     13 C13         1.1802  -18.4388  -51.1982 C.ar      23 UNK        -0.0193 
     14 C14         0.1789  -17.4749  -51.0461 C.ar      23 UNK        -0.1150 
     15 C15         1.6189  -19.2692  -50.0057 C.3       23 UNK        -0.0205 
     16 S16         0.5272  -20.7039  -49.7536 S.3       23 UNK        -0.2404 
     17 C17         0.5022  -20.7504  -47.9330 C.3       23 UNK        -0.0398 
     18 CA          0.2278  -22.1462  -47.3285 C.3       11 UNK         0.1400 
     19 N           0.6033  -22.1870  -45.9153 N.am      11 UNK        -0.5000 
     20 C           0.5801  -23.2669  -45.1242 C.2       10 UNK         0.5000 
     21 O           0.2845  -24.3971  -45.5119 O.2       10 UNK        -0.5000 
     22 CA          0.8901  -23.0252  -43.6357 C.3       10 UNK         0.1400 
     23 CB          2.4047  -22.9481  -43.3920 C.3       10 UNK        -0.1800 
     24 N           0.2498  -21.8092  -43.1295 N.am      10 UNK        -0.5000 
     25 C          -1.0759  -21.6528  -43.0028 C.2       9 UNK         0.5000 
     26 O          -1.8963  -22.5339  -43.2616 O.2       9 UNK        -0.5000 
     27 CA         -1.5679  -20.2644  -42.5535 C.3       9 UNK         0.1400 
     28 CB         -1.3868  -20.0859  -41.0387 C.3       9 UNK        -0.1800 
     29 N          -0.8976  -19.1706  -43.2585 N.am      9 UNK        -0.5000 
     30 C          -0.9707  -18.9627  -44.5808 C.2       8 UNK         0.5000 
     31 O          -1.6512  -19.6458  -45.3428 O.2       8 UNK        -0.5000 
     32 CA         -0.1006  -17.8382  -45.1658 C.3       8 UNK         0.1400 
     33 CB         -0.8054  -16.4826  -45.0323 C.3       8 UNK        -0.1800 
     34 N           1.2271  -17.7666  -44.5582 N.am      8 UNK        -0.5000 
     35 C           2.1410  -18.7466  -44.5771 C.2       7 UNK         0.5000 
     36 O           1.9640  -19.8380  -45.1145 O.2       7 UNK        -0.5000 
     37 CA          3.4566  -18.4778  -43.8322 C.3       7 UNK         0.1400 
     38 CB          4.4102  -17.6305  -44.6881 C.3       7 UNK        -0.1800 
     39 N           3.2121  -17.8129  -42.5544 N.am      7 UNK        -0.5000 
     40 C           2.7220  -18.4280  -41.4697 C.2       6 UNK         0.5000 
     41 O           2.4806  -19.6349  -41.4164 O.2       6 UNK        -0.5000 
     42 CA          2.4227  -17.5352  -40.2508 C.3       6 UNK         0.1400 
     43 CB          3.6909  -17.3206  -39.4112 C.3       6 UNK        -0.1800 
     44 N           1.8595  -16.2342  -40.6206 N.am      6 UNK        -0.5000 
     45 C           0.6503  -16.0696  -41.1740 C.2       5 UNK         0.5000 
     46 O          -0.1145  -16.9991  -41.4318 O.2       5 UNK        -0.5000 
     47 CA          0.2355  -14.6295  -41.5292 C.3       5 UNK         0.1400 
     48 CB         -0.3327  -13.9163  -40.2933 C.3       5 UNK        -0.1800 
     49 N           1.2864  -13.7964  -42.1245 N.am      5 UNK        -0.5000 
     50 C           2.0439  -14.1114  -43.1845 C.2       4 UNK         0.5000 
     51 O           2.0708  -15.2296  -43.6968 O.2       4 UNK        -0.5000 
     52 CA          2.8559  -12.9599  -43.8020 C.3       4 UNK         0.1400 
     53 CB          3.7704  -13.4268  -44.9488 C.3       4 UNK        -0.1800 
     54 N           1.9167  -11.9703  -44.3225 N.am      4 UNK        -0.5000 
     55 C           1.5398  -10.8521  -43.6872 C.2       3 UNK         0.5000 
     56 O           2.0421  -10.4660  -42.6313 O.2       3 UNK        -0.5000 
     57 CA          0.3699  -10.0581  -44.3050 C.3       3 UNK         0.1400 
     58 CB          0.8979   -8.9672  -45.2477 C.3       3 UNK        -0.1800 
     59 N          -0.5769  -10.9099  -45.0301 N.am      3 UNK        -0.5000 
     60 C          -1.3218  -11.8719  -44.4620 C.2       2 UNK         0.5000 
     61 O          -1.3820  -12.0480  -43.2452 O.2       2 UNK        -0.5000 
     62 CA         -2.1182  -12.8156  -45.3873 C.3       2 UNK         0.1400 
     63 CB         -3.6251  -12.5397  -45.2699 C.3       2 UNK        -0.1800 
     64 N          -1.7429  -12.7603  -46.8019 N.am      2 UNK        -0.5000 
     65 C          -0.5454  -13.0587  -47.3287 C.2       1 UNK         0.5000 
     66 O           0.4240  -13.4244  -46.6637 O.2       1 UNK        -0.5000 
     67 C          -1.2332  -22.5906  -47.5353 C.2       11 UNK         0.5000 
     68 O          -1.4800  -23.4849  -48.3400 O.2       11 UNK        -0.5000 
     69 N          -2.1675  -22.0065  -46.7716 N.am      12 UNK        -0.5000 
     70 CA         -3.5917  -22.3412  -46.8005 C.3       12 UNK         0.1400 
     71 CB         -4.3758  -21.3413  -45.9395 C.3       12 UNK        -0.1800 
     72 C          -3.8896  -23.7866  -46.3680 C.2       12 UNK         0.5000 
     73 O          -4.7993  -24.3986  -46.9220 O.2       12 UNK        -0.5000 
     74 N          -3.1138  -24.3222  -45.4160 N.am      13 UNK        -0.5000 
     75 CA         -3.1900  -25.7243  -45.0065 C.3       13 UNK         0.1400 
     76 CB         -2.3947  -25.9311  -43.7084 C.3       13 UNK        -0.1800 
     77 C          -2.7081  -26.6825  -46.1134 C.2       13 UNK         0.5000 
     78 O          -3.3656  -27.6913  -46.3718 O.2       13 UNK        -0.5000 
     79 N          -1.5801  -26.3453  -46.7531 N.am      14 UNK        -0.5000 
     80 CA         -0.9643  -27.1317  -47.8218 C.3       14 UNK         0.1400 
     81 CB          0.4805  -26.6521  -48.0319 C.3       14 UNK        -0.1800 
     82 C          -1.7490  -27.0795  -49.1460 C.2       14 UNK         0.5000 
     83 O          -1.9526  -28.1185  -49.7745 O.2       14 UNK        -0.5000 
     84 N          -2.1699  -25.8743  -49.5462 N.am      15 UNK        -0.5000 
     85 CA         -2.8066  -25.5739  -50.8295 C.3       15 UNK         0.1400 
     86 CB         -2.1759  -24.2905  -51.3996 C.3       15 UNK        -0.1800 
     87 C          -4.3384  -25.4526  -50.7163 C.2       15 UNK         0.5000 
     88 O          -4.9487  -24.7530  -51.5283 O.2       15 UNK        -0.5000 
     89 N          -4.9327  -26.1054  -49.7058 N.am      16 UNK        -0.5000 
     90 CA         -6.3641  -26.2440  -49.3813 C.3       16 UNK         0.1400 
     91 CB         -7.1077  -26.9896  -50.5051 C.3       16 UNK        -0.1800 
     92 C          -7.1046  -24.9403  -49.0097 C.2       16 UNK         0.5000 
     93 O          -7.9464  -24.9563  -48.1100 O.2       16 UNK        -0.5000 
     94 N          -6.7785  -23.8456  -49.6974 N.am      17 UNK        -0.5000 
     95 CA         -7.2575  -22.4884  -49.4550 C.3       17 UNK         0.1400 
     96 CB         -8.5747  -22.2618  -50.2170 C.3       17 UNK        -0.1800 
     97 C          -6.2103  -21.4258  -49.8380 C.2       17 UNK         0.5000 
     98 O          -6.3503  -20.2823  -49.4036 O.2       17 UNK        -0.5000 
     99 N          -5.1919  -21.8015  -50.6320 N.am      18 UNK        -0.5000 
    100 CA        -4.1677  -20.9273  -51.2123 C.3       18 UNK         0.1400 
    101 CB        -3.2274  -20.3504  -50.1299 C.3       18 UNK        -0.1800 
    102 C         -4.7944  -19.8759  -52.1524 C.2       18 UNK         0.5000 
    103 O         -5.5434  -20.2631  -53.0531 O.2       18 UNK        -0.5000 
    104 N         -4.4763  -18.5894  -51.9432 N.am      19 UNK        -0.5000 
    105 CA        -4.9034  -17.4208  -52.7183 C.3       19 UNK         0.1400 
    106 CB        -6.4216  -17.1801  -52.5685 C.3       19 UNK        -0.1800 
    107 C         -4.4370  -17.5012  -54.1851 C.2       19 UNK         0.5000 
    108 O         -3.3428  -17.0324  -54.4976 O.2       19 UNK        -0.5000 
    109 N         -5.2644  -18.0981  -55.0522 N.am      20 UNK        -0.5000 
    110 CA        -4.9350  -18.3890  -56.4469 C.3       20 UNK         0.1400 
    111 CB        -6.2321  -18.6805  -57.2169 C.3       20 UNK        -0.1800 
    112 C         -3.9456  -19.5627  -56.5882 C.2       20 UNK         0.5000 
    113 O         -3.1778  -19.5895  -57.5510 O.2       20 UNK        -0.5000 
    114 N         -3.9798  -20.5058  -55.6373 N.am      21 UNK        -0.5000 
    115 CA        -3.0401  -21.6194  -55.5424 C.3       21 UNK         0.1400 
    116 CB        -3.7657  -22.8347  -54.9426 C.3       21 UNK        -0.1800 
    117 C         -1.8386  -21.2196  -54.6705 C.2       21 UNK         0.5000 
    118 O         -2.0149  -20.5014  -53.6853 O.2       21 UNK        -0.5000 
    119 N         -0.6524  -21.7193  -55.0302 N.am      22 UNK        -0.5000 
    120 CA         0.6117  -21.4750  -54.3106 C.3       22 UNK         0.1400 
    121 C          1.1821  -22.7471  -53.6181 C.2       22 UNK         0.5000 
    122 N          0.5340  -23.9031  -53.7021 N.am      22 UNK        -0.7600 
    123 O          2.2341  -22.6872  -52.9879 O.2       22 UNK        -0.5000 
    124 C124        1.6782  -20.8212  -55.2299 C.3       23 UNK        -0.0398 
    125 S125        1.1473  -19.2225  -55.9378 S.3       23 UNK        -0.2404 
    126 C126        2.0501  -18.0303  -54.8982 C.3       23 UNK        -0.0205 
    127 H127       -1.5484   -8.7266  -50.1883 H         1 UNK         0.0600 
    128 H128       -2.7426  -10.0037  -50.4372 H         1 UNK         0.0600 
    129 H129       -2.7823   -9.0338  -48.9615 H         1 UNK         0.0600 
    130 H130       -1.8836  -12.0313  -50.1082 H         1 UNK         0.3000 
    131 H131        0.6333  -12.5633  -49.0378 H         1 UNK         0.0600 
    132 H132       -1.6315  -14.5995  -49.3286 H         1 UNK         0.0800 
    133 H133        0.0834  -14.9422  -49.2867 H         1 UNK         0.0800 
    134 H134       -1.7935  -15.4576  -52.9119 H         1 UNK         0.0800 
    135 H135       -2.0525  -15.9571  -51.2633 H         1 UNK         0.0800 
    136 H136        0.0837  -16.2761  -54.2186 H         1 UNK         0.1150 
    137 H137        2.5638  -19.3571  -52.5620 H         1 UNK         0.1150 
    138 H138       -0.2884  -17.3355  -50.0816 H         1 UNK         0.1150 
    139 H139        2.6446  -19.6182  -50.1342 H         1 UNK         0.0800 
    140 H140        1.6222  -18.6320  -49.1198 H         1 UNK         0.0800 
    141 H141       -0.2186  -20.0145  -47.5766 H         1 UNK         0.0800 
    142 H142        1.4796  -20.4087  -47.5914 H         1 UNK         0.0800 
    143 H143        0.8666  -22.8690  -47.8404 H         1 UNK         0.0600 
    144 H144        0.9181  -21.3074  -45.5124 H         1 UNK         0.3000 
    145 H145        0.4980  -23.8742  -43.0719 H         1 UNK         0.0600 
    146 H146        2.6272  -22.8353  -42.3308 H         1 UNK         0.0600 
    147 H147        2.9009  -23.8570  -43.7346 H         1 UNK         0.0600 
    148 H148        2.8585  -22.1079  -43.9183 H         1 UNK         0.0600 
    149 H149        0.8558  -21.0298  -42.9113 H         1 UNK         0.3000 
    150 H150       -2.6346  -20.2025  -42.7787 H         1 UNK         0.0600 
    151 H151       -1.8711  -20.8932  -40.4880 H         1 UNK         0.0600 
    152 H152       -1.8289  -19.1494  -40.6981 H         1 UNK         0.0600 
    153 H153       -0.3331  -20.0787  -40.7567 H         1 UNK         0.0600 
    154 H154       -0.3650  -18.5193  -42.6897 H         1 UNK         0.3000 
    155 H155        0.0406  -18.0402  -46.2288 H         1 UNK         0.0600 
    156 H156       -1.0196  -16.2416  -43.9918 H         1 UNK         0.0600 
    157 H157       -1.7526  -16.4798  -45.5728 H         1 UNK         0.0600 
    158 H158       -0.1918  -15.6815  -45.4420 H         1 UNK         0.0600 
    159 H159        1.4819  -16.8797  -44.1271 H         1 UNK         0.3000 
    160 H160        3.9383  -19.4392  -43.6403 H         1 UNK         0.0600 
    161 H161        5.3552  -17.4584  -44.1727 H         1 UNK         0.0600 
    162 H162        3.9814  -16.6593  -44.9356 H         1 UNK         0.0600 
    163 H163        4.6390  -18.1349  -45.6277 H         1 UNK         0.0600 
    164 H164        3.2985  -16.8060  -42.5449 H         1 UNK         0.3000 
    165 H165        1.6894  -18.0572  -39.6320 H         1 UNK         0.0600 
    166 H166        3.4720  -16.7590  -38.5029 H         1 UNK         0.0600 
    167 H167        4.1226  -18.2748  -39.1060 H         1 UNK         0.0600 
    168 H168        4.4559  -16.7768  -39.9669 H         1 UNK         0.0600 
    169 H169        2.4300  -15.4187  -40.4523 H         1 UNK         0.3000 
    170 H170       -0.5645  -14.6979  -42.2680 H         1 UNK         0.0600 
    171 H171       -1.1338  -14.5000  -39.8377 H         1 UNK         0.0600 
    172 H172        0.4325  -13.7566  -39.5328 H         1 UNK         0.0600 
    173 H173       -0.7519  -12.9451  -40.5576 H         1 UNK         0.0600 
    174 H174        1.3275  -12.8431  -41.7920 H         1 UNK         0.3000 
    175 H175        3.4845  -12.5307  -43.0193 H         1 UNK         0.0600 
    176 H176        3.2006  -13.8812  -45.7609 H         1 UNK         0.0600 
    177 H177        4.3358  -12.5928  -45.3643 H         1 UNK         0.0600 
    178 H178        4.4913  -14.1656  -44.5971 H         1 UNK         0.0600 
    179 H179        1.4064  -12.2507  -45.1532 H         1 UNK         0.3000 
    180 H180       -0.1703   -9.5739  -43.4889 H         1 UNK         0.0600 
    181 H181        1.4454   -9.3943  -46.0890 H         1 UNK         0.0600 
    182 H182        1.5749   -8.2914  -44.7235 H         1 UNK         0.0600 
    183 H183        0.0833   -8.3647  -45.6501 H         1 UNK         0.0600 
    184 H184       -0.5897  -10.8118  -46.0386 H         1 UNK         0.3000 
    185 H185       -1.9304  -13.8313  -45.0367 H         1 UNK         0.0600 
    186 H186       -3.9577  -12.6095  -44.2332 H         1 UNK         0.0600 
    187 H187       -3.8794  -11.5420  -45.6297 H         1 UNK         0.0600 
    188 H188       -4.2053  -13.2631  -45.8431 H         1 UNK         0.0600 
    189 H189       -2.4588  -12.4353  -47.4354 H         1 UNK         0.3000 
    190 H190       -1.8969  -21.2511  -46.1443 H         1 UNK         0.3000 
    191 H191       -3.9356  -22.2394  -47.8310 H         1 UNK         0.0600 
    192 H192       -4.0451  -21.3615  -44.9003 H         1 UNK         0.0600 
    193 H193       -5.4431  -21.5657  -45.9529 H         1 UNK         0.0600 
    194 H194       -4.2536  -20.3238  -46.3112 H         1 UNK         0.0600 
    195 H195       -2.4195  -23.7422  -44.9593 H         1 UNK         0.3000 
    196 H196       -4.2359  -25.9585  -44.7971 H         1 UNK         0.0600 
    197 H197       -2.4662  -26.9649  -43.3684 H         1 UNK         0.0600 
    198 H198       -2.7773  -25.2977  -42.9078 H         1 UNK         0.0600 
    199 H199       -1.3374  -25.7014  -43.8380 H         1 UNK         0.0600 
    200 H200       -1.0810  -25.5114  -46.4577 H         1 UNK         0.3000 
    201 H201       -0.9280  -28.1741  -47.4983 H         1 UNK         0.0600 
    202 H202        1.0698  -26.7693  -47.1222 H         1 UNK         0.0600 
    203 H203        0.5179  -25.6003  -48.3189 H         1 UNK         0.0600 
    204 H204        0.9744  -27.2262  -48.8168 H         1 UNK         0.0600 
    205 H205       -1.9512  -25.0619  -48.9684 H         1 UNK         0.3000 
    206 H206       -2.6065  -26.3807  -51.5372 H         1 UNK         0.0600 
    207 H207       -1.0890  -24.3641  -51.4262 H         1 UNK         0.0600 
    208 H208       -2.5141  -24.0998  -52.4180 H         1 UNK         0.0600 
    209 H209       -2.4307  -23.4179  -50.7990 H         1 UNK         0.0600 
    210 H210       -4.3131  -26.5781  -49.0623 H         1 UNK         0.3000 
    211 H211       -6.3964  -26.8755  -48.4920 H         1 UNK         0.0600 
    212 H212       -7.1175  -26.4193  -51.4345 H         1 UNK         0.0600 
    213 H213       -8.1458  -27.1769  -50.2275 H         1 UNK         0.0600 
    214 H214       -6.6468  -27.9561  -50.7091 H         1 UNK         0.0600 
    215 H215       -6.1061  -23.9816  -50.4466 H         1 UNK         0.3000 
    216 H216       -7.4447  -22.3683  -48.3857 H         1 UNK         0.0600 
    217 H217       -8.9562  -21.2538  -50.0497 H         1 UNK         0.0600 
    218 H218       -9.3464  -22.9587  -49.8896 H         1 UNK         0.0600 
    219 H219       -8.4406  -22.3894  -51.2918 H         1 UNK         0.0600 
    220 H220       -5.1773  -22.7467  -50.9906 H         1 UNK         0.3000 
    221 H221       -3.5612  -21.5681  -51.8508 H         1 UNK         0.0600 
    222 H222       -2.4243  -19.7634  -50.5780 H         1 UNK         0.0600 
    223 H223       -3.7491  -19.7165  -49.4128 H         1 UNK         0.0600 
    224 H224       -2.7467  -21.1538  -49.5761 H         1 UNK         0.0600 
    225 H225       -3.8303  -18.3939  -51.1926 H         1 UNK         0.3000 
    226 H226       -4.3963  -16.5597  -52.2807 H         1 UNK         0.0600 
    227 H227       -6.6823  -16.9932  -51.5267 H         1 UNK         0.0600 
    228 H228       -6.7359  -16.3068  -53.1414 H         1 UNK         0.0600 
    229 H229       -7.0182  -18.0273  -52.9066 H         1 UNK         0.0600 
    230 H230       -6.1195  -18.4987  -54.6928 H         1 UNK         0.3000 
    231 H231       -4.4685  -17.5047  -56.8864 H         1 UNK         0.0600 
    232 H232       -6.9146  -17.8314  -57.1759 H         1 UNK         0.0600 
    233 H233       -6.7525  -19.5505  -56.8143 H         1 UNK         0.0600 
    234 H234       -6.0247  -18.8795  -58.2692 H         1 UNK         0.0600 
    235 H235       -4.5944  -20.3726  -54.8407 H         1 UNK         0.3000 
    236 H236       -2.6852  -21.8908  -56.5389 H         1 UNK         0.0600 
    237 H237       -3.0979  -23.6937  -54.8705 H         1 UNK         0.0600 
    238 H238       -4.1468  -22.6294  -53.9420 H         1 UNK         0.0600 
    239 H239       -4.6104  -23.1330  -55.5637 H         1 UNK         0.0600 
    240 H240       -0.5851  -22.2985  -55.8545 H         1 UNK         0.3000 
    241 H241        0.4285  -20.7833  -53.4877 H         1 UNK         0.0600 
    242 H242        0.9217  -24.7160  -53.2505 H         1 UNK         0.3800 
    243 H243       -0.3363  -23.9746  -54.2015 H         1 UNK         0.3800 
    244 H244        1.9164  -21.4900  -56.0583 H         1 UNK         0.0800 
    245 H245        2.6155  -20.6726  -54.6918 H         1 UNK         0.0800 
    246 H246        3.0886  -18.3434  -54.7813 H         1 UNK         0.0800 
    247 H247        2.0847  -17.0728  -55.4201 H         1 UNK         0.0800 
@<TRIPOS>BOND
     1    1    2 1    
     2    1  127 1    
     3    1  128 1    
     4    1  129 1    
     5    2    3 2    
     6    2    4 am   BACKBONE|DICT|INTERRES
     7    4    5 1    
     8    4  130 1    
     9    5    6 1    
    10    5   65 1    
    11    5  131 1    
    12    6    7 1    
    13    6  132 1    
    14    6  133 1    
    15    7    8 1    
    16    8    9 1    
    17    8  134 1    
    18    8  135 1    
    19    9   10 ar   
    20    9   14 ar   
    21   10   11 ar   
    22   10  136 1    
    23   11   12 ar   
    24   11  126 1    
    25   12   13 ar   
    26   12  137 1    
    27   13   14 ar   
    28   13   15 1    
    29   14  138 1    
    30   15   16 1    
    31   15  139 1    
    32   15  140 1    
    33   16   17 1    
    34   17   18 1    
    35   17  141 1    
    36   17  142 1    
    37   18   19 1    
    38   18   67 1    
    39   18  143 1    
    40   19   20 am   BACKBONE|DICT|INTERRES
    41   19  144 1    
    42   20   21 2    
    43   20   22 1    
    44   22   23 1    
    45   22   24 1    
    46   22  145 1    
    47   23  146 1    
    48   23  147 1    
    49   23  148 1    
    50   24   25 am   BACKBONE|DICT|INTERRES
    51   24  149 1    
    52   25   26 2    
    53   25   27 1    
    54   27   28 1    
    55   27   29 1    
    56   27  150 1    
    57   28  151 1    
    58   28  152 1    
    59   28  153 1    
    60   29   30 am   BACKBONE|DICT|INTERRES
    61   29  154 1    
    62   30   31 2    
    63   30   32 1    
    64   32   33 1    
    65   32   34 1    
    66   32  155 1    
    67   33  156 1    
    68   33  157 1    
    69   33  158 1    
    70   34   35 am   BACKBONE|DICT|INTERRES
    71   34  159 1    
    72   35   36 2    
    73   35   37 1    
    74   37   38 1    
    75   37   39 1    
    76   37  160 1    
    77   38  161 1    
    78   38  162 1    
    79   38  163 1    
    80   39   40 am   BACKBONE|DICT|INTERRES
    81   39  164 1    
    82   40   41 2    
    83   40   42 1    
    84   42   43 1    
    85   42   44 1    
    86   42  165 1    
    87   43  166 1    
    88   43  167 1    
    89   43  168 1    
    90   44   45 am   BACKBONE|DICT|INTERRES
    91   44  169 1    
    92   45   46 2    
    93   45   47 1    
    94   47   48 1    
    95   47   49 1    
    96   47  170 1    
    97   48  171 1    
    98   48  172 1    
    99   48  173 1    
   100   49   50 am   BACKBONE|DICT|INTERRES
   101   49  174 1    
   102   50   51 2    
   103   50   52 1    
   104   52   53 1    
   105   52   54 1    
   106   52  175 1    
   107   53  176 1    
   108   53  177 1    
   109   53  178 1    
   110   54   55 am   BACKBONE|DICT|INTERRES
   111   54  179 1    
   112   55   56 2    
   113   55   57 1    
   114   57   58 1    
   115   57   59 1    
   116   57  180 1    
   117   58  181 1    
   118   58  182 1    
   119   58  183 1    
   120   59   60 am   BACKBONE|DICT|INTERRES
   121   59  184 1    
   122   60   61 2    
   123   60   62 1    
   124   62   63 1    
   125   62   64 1    
   126   62  185 1    
   127   63  186 1    
   128   63  187 1    
   129   63  188 1    
   130   64   65 am   BACKBONE|DICT|INTERRES
   131   64  189 1    
   132   65   66 2    
   133   67   68 2    
   134   67   69 am   BACKBONE|DICT|INTERRES
   135   69   70 1    
   136   69  190 1    
   137   70   71 1    
   138   70   72 1    
   139   70  191 1    
   140   71  192 1    
   141   71  193 1    
   142   71  194 1    
   143   72   73 2    
   144   72   74 am   BACKBONE|DICT|INTERRES
   145   74   75 1    
   146   74  195 1    
   147   75   76 1    
   148   75   77 1    
   149   75  196 1    
   150   76  197 1    
   151   76  198 1    
   152   76  199 1    
   153   77   78 2    
   154   77   79 am   BACKBONE|DICT|INTERRES
   155   79   80 1    
   156   79  200 1    
   157   80   81 1    
   158   80   82 1    
   159   80  201 1    
   160   81  202 1    
   161   81  203 1    
   162   81  204 1    
   163   82   83 2    
   164   82   84 am   BACKBONE|DICT|INTERRES
   165   84   85 1    
   166   84  205 1    
   167   85   86 1    
   168   85   87 1    
   169   85  206 1    
   170   86  207 1    
   171   86  208 1    
   172   86  209 1    
   173   87   88 2    
   174   87   89 am   BACKBONE|DICT|INTERRES
   175   89   90 1    
   176   89  210 1    
   177   90   91 1    
   178   90   92 1    
   179   90  211 1    
   180   91  212 1    
   181   91  213 1    
   182   91  214 1    
   183   92   93 2    
   184   92   94 am   BACKBONE|DICT|INTERRES
   185   94   95 1    
   186   94  215 1    
   187   95   96 1    
   188   95   97 1    
   189   95  216 1    
   190   96  217 1    
   191   96  218 1    
   192   96  219 1    
   193   97   98 2    
   194   97   99 am   BACKBONE|DICT|INTERRES
   195   99  100 1    
   196   99  220 1    
   197  100  101 1    
   198  100  102 1    
   199  100  221 1    
   200  101  222 1    
   201  101  223 1    
   202  101  224 1    
   203  102  103 2    
   204  102  104 am   BACKBONE|DICT|INTERRES
   205  104  105 1    
   206  104  225 1    
   207  105  106 1    
   208  105  107 1    
   209  105  226 1    
   210  106  227 1    
   211  106  228 1    
   212  106  229 1    
   213  107  108 2    
   214  107  109 am   BACKBONE|DICT|INTERRES
   215  109  110 1    
   216  109  230 1    
   217  110  111 1    
   218  110  112 1    
   219  110  231 1    
   220  111  232 1    
   221  111  233 1    
   222  111  234 1    
   223  112  113 2    
   224  112  114 am   BACKBONE|DICT|INTERRES
   225  114  115 1    
   226  114  235 1    
   227  115  116 1    
   228  115  117 1    
   229  115  236 1    
   230  116  237 1    
   231  116  238 1    
   232  116  239 1    
   233  117  118 2    
   234  117  119 am   BACKBONE|DICT|INTERRES
   235  119  120 1    
   236  119  240 1    
   237  120  121 1    
   238  120  124 1    
   239  120  241 1    
   240  121  122 am   BACKBONE|DICT|INTERRES
   241  121  123 2    
   242  122  242 1    
   243  122  243 1    
   244  124  125 1    
   245  124  244 1    
   246  124  245 1    
   247  125  126 1    
   248  126  246 1    
   249  126  247 1    
@<TRIPOS>SUBSTRUCTURE
     1 UNK         1 GROUP             0       ****    0 ROOT    
