@<TRIPOS>MOLECULE
3R540
247   249    1
SMALL
USER_CHARGES


@<TRIPOS>ATOM
      1 CA         -2.3163  -13.4937  -52.5227 C.3       0 UNK        -0.1800 
      2 C          -1.1397  -12.6274  -52.1001 C.2       0 UNK         0.5000 
      3 O          -1.2437  -11.4004  -52.1089 O.2       0 UNK        -0.5000 
      4 N          -0.0206  -13.2632  -51.7370 N.am      1 UNK        -0.5000 
      5 CA          1.1840  -12.6341  -51.1885 C.3       1 UNK         0.1400 
      6 C6          2.4128  -13.5963  -51.1485 C.3       23 UNK        -0.0398 
      7 S7          2.0394  -15.3860  -51.0376 S.3       23 UNK        -0.2404 
      8 C8          2.0108  -15.6901  -49.2452 C.3       23 UNK        -0.0205 
      9 C9          1.3935  -17.0475  -48.9498 C.ar      23 UNK        -0.0193 
     10 C10         0.0142  -17.2261  -49.0936 C.ar      23 UNK        -0.1150 
     11 C11        -0.5677  -18.4784  -48.8867 C.ar      23 UNK        -0.0193 
     12 C12         0.2440  -19.5577  -48.5310 C.ar      23 UNK        -0.1150 
     13 C13         1.6242  -19.3960  -48.3860 C.ar      23 UNK        -0.0193 
     14 C14         2.1945  -18.1343  -48.5830 C.ar      23 UNK        -0.1150 
     15 C15         2.4930  -20.6084  -48.0920 C.3       23 UNK        -0.0205 
     16 S16         2.3620  -21.1329  -46.3552 S.3       23 UNK        -0.2404 
     17 C17         2.6396  -22.9331  -46.5078 C.3       23 UNK        -0.0398 
     18 CA          1.3813  -23.8349  -46.3788 C.3       11 UNK         0.1400 
     19 N           0.9451  -24.0319  -44.9898 N.am      11 UNK        -0.5000 
     20 C           0.2492  -25.1099  -44.5917 C.2       10 UNK         0.5000 
     21 O          -0.1003  -26.0104  -45.3561 O.2       10 UNK        -0.5000 
     22 CA         -0.1611  -25.1889  -43.1089 C.3       10 UNK         0.1400 
     23 CB          0.9924  -25.7416  -42.2589 C.3       10 UNK        -0.1800 
     24 N          -0.6052  -23.9123  -42.5503 N.am      10 UNK        -0.5000 
     25 C          -1.6517  -23.2020  -42.9903 C.2       9 UNK         0.5000 
     26 O          -2.3603  -23.5515  -43.9337 O.2       9 UNK        -0.5000 
     27 CA         -1.9372  -21.8496  -42.3060 C.3       9 UNK         0.1400 
     28 CB         -1.2493  -21.6807  -40.9327 C.3       9 UNK        -0.1800 
     29 N          -1.6047  -20.7254  -43.1876 N.am      9 UNK        -0.5000 
     30 C          -0.4167  -20.4840  -43.7617 C.2       8 UNK         0.5000 
     31 O           0.5659  -21.2156  -43.6175 O.2       8 UNK        -0.5000 
     32 CA         -0.3025  -19.2446  -44.6769 C.3       8 UNK         0.1400 
     33 CB         -1.4691  -18.2411  -44.5530 C.3       8 UNK        -0.1800 
     34 N           0.9888  -18.5722  -44.5190 N.am      8 UNK        -0.5000 
     35 C           1.4956  -18.0428  -43.3961 C.2       7 UNK         0.5000 
     36 O           0.8752  -17.9735  -42.3330 O.2       7 UNK        -0.5000 
     37 CA          2.9504  -17.5281  -43.4650 C.3       7 UNK         0.1400 
     38 CB          3.5289  -17.4674  -44.8959 C.3       7 UNK        -0.1800 
     39 N           3.0526  -16.1995  -42.8700 N.am      7 UNK        -0.5000 
     40 C           3.2483  -15.9240  -41.5743 C.2       6 UNK         0.5000 
     41 O           3.4356  -16.7797  -40.7081 O.2       6 UNK        -0.5000 
     42 CA          3.2421  -14.4368  -41.1787 C.3       6 UNK         0.1400 
     43 CB          4.6190  -13.8067  -41.4430 C.3       6 UNK        -0.1800 
     44 N           2.2279  -13.6917  -41.9261 N.am      6 UNK        -0.5000 
     45 C           1.0678  -13.2482  -41.4224 C.2       5 UNK         0.5000 
     46 O           0.7419  -13.3730  -40.2411 O.2       5 UNK        -0.5000 
     47 CA          0.1011  -12.5397  -42.3965 C.3       5 UNK         0.1400 
     48 CB          0.3101  -11.0185  -42.3484 C.3       5 UNK        -0.1800 
     49 N           0.2400  -12.9901  -43.7818 N.am      5 UNK        -0.5000 
     50 C          -0.0718  -14.2183  -44.2202 C.2       4 UNK         0.5000 
     51 O          -0.6319  -15.0623  -43.5231 O.2       4 UNK        -0.5000 
     52 CA          0.3262  -14.5768  -45.6684 C.3       4 UNK         0.1400 
     53 CB         -0.9106  -14.5147  -46.5775 C.3       4 UNK        -0.1800 
     54 N           1.3856  -13.7325  -46.2394 N.am      4 UNK        -0.5000 
     55 C           2.6158  -13.5589  -45.7271 C.2       3 UNK         0.5000 
     56 O           3.0025  -14.1261  -44.7074 O.2       3 UNK        -0.5000 
     57 CA          3.5697  -12.5617  -46.4153 C.3       3 UNK         0.1400 
     58 CB          4.7160  -13.3067  -47.1154 C.3       3 UNK        -0.1800 
     59 N           2.9226  -11.6742  -47.3795 N.am      3 UNK        -0.5000 
     60 C           1.9784  -10.7634  -47.1041 C.2       2 UNK         0.5000 
     61 O           1.5802  -10.5138  -45.9656 O.2       2 UNK        -0.5000 
     62 CA          1.3395  -10.0537  -48.3152 C.3       2 UNK         0.1400 
     63 CB          1.9532   -8.6585  -48.5052 C.3       2 UNK        -0.1800 
     64 N           1.4606  -10.8064  -49.5718 N.am      2 UNK        -0.5000 
     65 C           0.9041  -12.0040  -49.8075 C.2       1 UNK         0.5000 
     66 O           0.2376  -12.6180  -48.9722 O.2       1 UNK        -0.5000 
     67 C           0.2115  -23.4151  -47.2967 C.2       11 UNK         0.5000 
     68 O           0.2569  -23.6916  -48.4953 O.2       11 UNK        -0.5000 
     69 N          -0.8283  -22.7943  -46.7168 N.am      12 UNK        -0.5000 
     70 CA         -2.0877  -22.5075  -47.3981 C.3       12 UNK         0.1400 
     71 CB         -2.8712  -21.4160  -46.6542 C.3       12 UNK        -0.1800 
     72 C          -2.9205  -23.7846  -47.5579 C.2       12 UNK         0.5000 
     73 O          -3.3728  -24.0640  -48.6650 O.2       12 UNK        -0.5000 
     74 N          -3.0651  -24.5648  -46.4773 N.am      13 UNK        -0.5000 
     75 CA         -3.7870  -25.8404  -46.4481 C.3       13 UNK         0.1400 
     76 CB         -3.7696  -26.4092  -45.0220 C.3       13 UNK        -0.1800 
     77 C          -3.2439  -26.8724  -47.4538 C.2       13 UNK         0.5000 
     78 O          -4.0336  -27.5482  -48.1137 O.2       13 UNK        -0.5000 
     79 N          -1.9133  -26.9166  -47.6121 N.am      14 UNK        -0.5000 
     80 CA         -1.2073  -27.7231  -48.6129 C.3       14 UNK         0.1400 
     81 CB          0.3043  -27.6029  -48.3665 C.3       14 UNK        -0.1800 
     82 C          -1.5418  -27.3536  -50.0756 C.2       14 UNK         0.5000 
     83 O          -1.4035  -28.2009  -50.9582 O.2       14 UNK        -0.5000 
     84 N          -1.9853  -26.1111  -50.3023 N.am      15 UNK        -0.5000 
     85 CA         -2.4102  -25.5694  -51.5933 C.3       15 UNK         0.1400 
     86 CB         -1.7594  -24.1848  -51.7560 C.3       15 UNK        -0.1800 
     87 C          -3.9471  -25.4672  -51.7013 C.2       15 UNK         0.5000 
     88 O          -4.4439  -24.8690  -52.6572 O.2       15 UNK        -0.5000 
     89 N          -4.6763  -25.9984  -50.7044 N.am      16 UNK        -0.5000 
     90 CA         -6.1307  -25.8990  -50.5158 C.3       16 UNK         0.1400 
     91 CB         -6.8713  -26.7283  -51.5847 C.3       16 UNK        -0.1800 
     92 C          -6.6345  -24.4386  -50.4396 C.2       16 UNK         0.5000 
     93 O          -7.7590  -24.1483  -50.8526 O.2       16 UNK        -0.5000 
     94 N          -5.7668  -23.5423  -49.9473 N.am      17 UNK        -0.5000 
     95 CA         -5.8406  -22.0806  -49.8865 C.3       17 UNK         0.1400 
     96 CB         -7.0026  -21.6099  -48.9941 C.3       17 UNK        -0.1800 
     97 C          -5.8673  -21.3942  -51.2650 C.2       17 UNK         0.5000 
     98 O          -5.0684  -20.4874  -51.5038 O.2       17 UNK        -0.5000 
     99 N          -6.7765  -21.8405  -52.1380 N.am      18 UNK        -0.5000 
    100 CA        -7.1127  -21.2478  -53.4288 C.3       18 UNK         0.1400 
    101 CB        -8.2987  -22.0114  -54.0364 C.3       18 UNK        -0.1800 
    102 C         -5.9477  -21.1796  -54.4290 C.2       18 UNK         0.5000 
    103 O         -5.8034  -20.1575  -55.0998 O.2       18 UNK        -0.5000 
    104 N         -5.1226  -22.2353  -54.5081 N.am      19 UNK        -0.5000 
    105 CA        -4.0012  -22.3012  -55.4551 C.3       19 UNK         0.1400 
    106 CB        -3.5362  -23.7549  -55.6248 C.3       19 UNK        -0.1800 
    107 C         -2.8249  -21.3832  -55.0679 C.2       19 UNK         0.5000 
    108 O         -2.0499  -20.9939  -55.9419 O.2       19 UNK        -0.5000 
    109 N         -2.7329  -21.0319  -53.7788 N.am      20 UNK        -0.5000 
    110 CA        -1.7850  -20.0553  -53.2394 C.3       20 UNK         0.1400 
    111 CB        -1.2619  -20.5811  -51.8947 C.3       20 UNK        -0.1800 
    112 C         -2.4102  -18.6491  -53.0984 C.2       20 UNK         0.5000 
    113 O         -1.7118  -17.7180  -52.6984 O.2       20 UNK        -0.5000 
    114 N         -3.7027  -18.5193  -53.4343 N.am      21 UNK        -0.5000 
    115 CA        -4.5315  -17.3119  -53.3952 C.3       21 UNK         0.1400 
    116 CB        -4.0150  -16.2546  -54.3937 C.3       21 UNK        -0.1800 
    117 C         -4.7835  -16.7551  -51.9759 C.2       21 UNK         0.5000 
    118 O         -4.9811  -15.5488  -51.8196 O.2       21 UNK        -0.5000 
    119 N         -4.8257  -17.6410  -50.9724 N.am      22 UNK        -0.5000 
    120 CA        -5.3468  -17.3362  -49.6297 C.3       22 UNK         0.1400 
    121 C         -6.9008  -17.3903  -49.6142 C.2       22 UNK         0.5000 
    122 N         -7.5410  -16.6346  -48.7325 N.am      22 UNK        -0.7600 
    123 O         -7.5327  -18.1321  -50.3636 O.2       22 UNK        -0.5000 
    124 C124       -4.7521  -18.2771  -48.5475 C.3       23 UNK        -0.0398 
    125 S125       -3.0978  -17.7511  -47.9861 S.3       23 UNK        -0.2404 
    126 C126       -2.0534  -18.6845  -49.1367 C.3       23 UNK        -0.0205 
    127 H127       -3.2149  -13.2014  -51.9792 H         1 UNK         0.0600 
    128 H128       -2.5080  -13.3770  -53.5892 H         1 UNK         0.0600 
    129 H129       -2.1311  -14.5491  -52.3193 H         1 UNK         0.0600 
    130 H130       -0.0005  -14.2739  -51.7365 H         1 UNK         0.3000 
    131 H131        1.4392  -11.8143  -51.8639 H         1 UNK         0.0600 
    132 H132        3.1245  -13.3267  -50.3659 H         1 UNK         0.0800 
    133 H133        2.9685  -13.4705  -52.0786 H         1 UNK         0.0800 
    134 H134        3.0238  -15.6308  -48.8470 H         1 UNK         0.0800 
    135 H135        1.4285  -14.9167  -48.7495 H         1 UNK         0.0800 
    136 H136       -0.6054  -16.3963  -49.4036 H         1 UNK         0.1150 
    137 H137       -0.1881  -20.5377  -48.4004 H         1 UNK         0.1150 
    138 H138        3.2638  -18.0069  -48.4894 H         1 UNK         0.1150 
    139 H139        2.1837  -21.4188  -48.7538 H         1 UNK         0.0800 
    140 H140        3.5389  -20.4044  -48.3259 H         1 UNK         0.0800 
    141 H141        3.1299  -23.1336  -47.4616 H         1 UNK         0.0800 
    142 H142        3.3715  -23.2218  -45.7524 H         1 UNK         0.0800 
    143 H143        1.6960  -24.8152  -46.7451 H         1 UNK         0.0600 
    144 H144        1.1433  -23.2856  -44.3329 H         1 UNK         0.3000 
    145 H145       -0.9978  -25.8866  -43.0373 H         1 UNK         0.0600 
    146 H146        0.6825  -25.8949  -41.2250 H         1 UNK         0.0600 
    147 H147        1.3322  -26.7052  -42.6411 H         1 UNK         0.0600 
    148 H148        1.8502  -25.0679  -42.2567 H         1 UNK         0.0600 
    149 H149       -0.0486  -23.5271  -41.8014 H         1 UNK         0.3000 
    150 H150       -3.0151  -21.8128  -42.1424 H         1 UNK         0.0600 
    151 H151       -1.5116  -22.4966  -40.2578 H         1 UNK         0.0600 
    152 H152       -1.5678  -20.7549  -40.4534 H         1 UNK         0.0600 
    153 H153       -0.1622  -21.6480  -41.0116 H         1 UNK         0.0600 
    154 H154       -2.3607  -20.0829  -43.3759 H         1 UNK         0.3000 
    155 H155       -0.3099  -19.6280  -45.6967 H         1 UNK         0.0600 
    156 H156       -1.3217  -17.3961  -45.2250 H         1 UNK         0.0600 
    157 H157       -1.5635  -17.8450  -43.5414 H         1 UNK         0.0600 
    158 H158       -2.4213  -18.6960  -44.8269 H         1 UNK         0.0600 
    159 H159        1.5977  -18.6374  -45.3224 H         1 UNK         0.3000 
    160 H160        3.5623  -18.2256  -42.8896 H         1 UNK         0.0600 
    161 H161        2.9269  -16.8406  -45.5551 H         1 UNK         0.0600 
    162 H162        3.5948  -18.4600  -45.3423 H         1 UNK         0.0600 
    163 H163        4.5393  -17.0579  -44.8899 H         1 UNK         0.0600 
    164 H164        2.9487  -15.4223  -43.5183 H         1 UNK         0.3000 
    165 H165        3.0460  -14.3792  -40.1060 H         1 UNK         0.0600 
    166 H166        4.8781  -13.8305  -42.5024 H         1 UNK         0.0600 
    167 H167        4.6441  -12.7671  -41.1161 H         1 UNK         0.0600 
    168 H168        5.4021  -14.3376  -40.9004 H         1 UNK         0.0600 
    169 H169        2.3990  -13.5842  -42.9198 H         1 UNK         0.3000 
    170 H170       -0.9176  -12.7570  -42.0686 H         1 UNK         0.0600 
    171 H171        0.1932  -10.6391  -41.3325 H         1 UNK         0.0600 
    172 H172        1.3070  -10.7389  -42.6921 H         1 UNK         0.0600 
    173 H173       -0.4170  -10.5004  -42.9741 H         1 UNK         0.0600 
    174 H174        0.6753  -12.3451  -44.4276 H         1 UNK         0.3000 
    175 H175        0.6934  -15.6048  -45.6591 H         1 UNK         0.0600 
    176 H176       -1.3032  -13.4999  -46.6502 H         1 UNK         0.0600 
    177 H177       -0.6819  -14.8544  -47.5858 H         1 UNK         0.0600 
    178 H178       -1.7117  -15.1512  -46.1998 H         1 UNK         0.0600 
    179 H179        1.1324  -13.2180  -47.0749 H         1 UNK         0.3000 
    180 H180        3.9989  -11.9396  -45.6273 H         1 UNK         0.0600 
    181 H181        4.3579  -13.9028  -47.9542 H         1 UNK         0.0600 
    182 H182        5.2256  -13.9819  -46.4263 H         1 UNK         0.0600 
    183 H183        5.4637  -12.6102  -47.4951 H         1 UNK         0.0600 
    184 H184        3.1913  -11.7897  -48.3444 H         1 UNK         0.3000 
    185 H185        0.2760   -9.9349  -48.0977 H         1 UNK         0.0600 
    186 H186        1.8560   -8.0617  -47.5971 H         1 UNK         0.0600 
    187 H187        3.0150   -8.7152  -48.7485 H         1 UNK         0.0600 
    188 H188        1.4528   -8.1124  -49.3051 H         1 UNK         0.0600 
    189 H189        1.9916  -10.3593  -50.3058 H         1 UNK         0.3000 
    190 H190       -0.8026  -22.6552  -45.7172 H         1 UNK         0.3000 
    191 H191       -1.8689  -22.1361  -48.4012 H         1 UNK         0.0600 
    192 H192       -3.8148  -21.2024  -47.1575 H         1 UNK         0.0600 
    193 H193       -2.3095  -20.4845  -46.6210 H         1 UNK         0.0600 
    194 H194       -3.1080  -21.7026  -45.6304 H         1 UNK         0.0600 
    195 H195       -2.6933  -24.2404  -45.5868 H         1 UNK         0.3000 
    196 H196       -4.8241  -25.6326  -46.7192 H         1 UNK         0.0600 
    197 H197       -4.3306  -27.3429  -44.9663 H         1 UNK         0.0600 
    198 H198       -4.2229  -25.7144  -44.3148 H         1 UNK         0.0600 
    199 H199       -2.7539  -26.6152  -44.6840 H         1 UNK         0.0600 
    200 H200       -1.3355  -26.3650  -46.9865 H         1 UNK         0.3000 
    201 H201       -1.4980  -28.7649  -48.4647 H         1 UNK         0.0600 
    202 H202        0.5692  -27.9404  -47.3643 H         1 UNK         0.0600 
    203 H203        0.6465  -26.5730  -48.4748 H         1 UNK         0.0600 
    204 H204        0.8673  -28.2131  -49.0739 H         1 UNK         0.0600 
    205 H205       -2.1016  -25.4850  -49.5140 H         1 UNK         0.3000 
    206 H206       -2.0674  -26.2094  -52.4083 H         1 UNK         0.0600 
    207 H207       -0.6751  -24.2455  -51.6612 H         1 UNK         0.0600 
    208 H208       -1.9724  -23.7547  -52.7336 H         1 UNK         0.0600 
    209 H209       -2.1184  -23.4809  -51.0044 H         1 UNK         0.0600 
    210 H210       -4.1797  -26.4650  -49.9547 H         1 UNK         0.3000 
    211 H211       -6.3431  -26.3439  -49.5428 H         1 UNK         0.0600 
    212 H212       -6.7546  -26.3010  -52.5811 H         1 UNK         0.0600 
    213 H213       -7.9400  -26.7764  -51.3727 H         1 UNK         0.0600 
    214 H214       -6.5015  -27.7532  -51.6136 H         1 UNK         0.0600 
    215 H215       -4.8725  -23.9100  -49.6258 H         1 UNK         0.3000 
    216 H216       -4.9136  -21.7655  -49.4059 H         1 UNK         0.0600 
    217 H217       -7.9731  -21.8921  -49.4026 H         1 UNK         0.0600 
    218 H218       -6.9994  -20.5247  -48.8897 H         1 UNK         0.0600 
    219 H219       -6.9242  -22.0329  -47.9926 H         1 UNK         0.0600 
    220 H220       -7.3456  -22.6277  -51.8365 H         1 UNK         0.3000 
    221 H221       -7.4338  -20.2222  -53.2348 H         1 UNK         0.0600 
    222 H222       -8.0567  -23.0619  -54.2033 H         1 UNK         0.0600 
    223 H223       -9.1706  -21.9690  -53.3832 H         1 UNK         0.0600 
    224 H224       -8.5912  -21.5834  -54.9962 H         1 UNK         0.0600 
    225 H225       -5.2664  -23.0369  -53.9053 H         1 UNK         0.3000 
    226 H226       -4.3657  -21.9624  -56.4275 H         1 UNK         0.0600 
    227 H227       -4.3684  -24.4113  -55.8793 H         1 UNK         0.0600 
    228 H228       -2.8022  -23.8342  -56.4276 H         1 UNK         0.0600 
    229 H229       -3.0673  -24.1411  -54.7221 H         1 UNK         0.0600 
    230 H230       -3.4293  -21.3825  -53.1352 H         1 UNK         0.3000 
    231 H231       -0.9294  -19.9527  -53.9098 H         1 UNK         0.0600 
    232 H232       -2.0754  -20.7758  -51.1960 H         1 UNK         0.0600 
    233 H233       -0.7063  -21.5087  -52.0282 H         1 UNK         0.0600 
    234 H234       -0.5787  -19.8680  -51.4330 H         1 UNK         0.0600 
    235 H235       -4.1842  -19.3485  -53.7553 H         1 UNK         0.3000 
    236 H236       -5.5138  -17.6263  -53.7502 H         1 UNK         0.0600 
    237 H237       -3.9488  -16.6680  -55.4000 H         1 UNK         0.0600 
    238 H238       -4.6848  -15.3954  -54.4428 H         1 UNK         0.0600 
    239 H239       -3.0275  -15.8851  -54.1210 H         1 UNK         0.0600 
    240 H240       -4.7435  -18.6272  -51.2030 H         1 UNK         0.3000 
    241 H241       -5.0653  -16.3120  -49.3757 H         1 UNK         0.0600 
    242 H242       -7.0490  -16.0195  -48.1027 H         1 UNK         0.3800 
    243 H243       -8.5483  -16.6676  -48.7025 H         1 UNK         0.3800 
    244 H244       -5.3785  -18.2884  -47.6536 H         1 UNK         0.0800 
    245 H245       -4.7220  -19.3089  -48.8979 H         1 UNK         0.0800 
    246 H246       -2.2819  -18.3647  -50.1518 H         1 UNK         0.0800 
    247 H247       -2.3122  -19.7412  -49.0747 H         1 UNK         0.0800 
@<TRIPOS>BOND
     1    1    2 1    
     2    1  127 1    
     3    1  128 1    
     4    1  129 1    
     5    2    3 2    
     6    2    4 am   BACKBONE|DICT|INTERRES
     7    4    5 1    
     8    4  130 1    
     9    5    6 1    
    10    5   65 1    
    11    5  131 1    
    12    6    7 1    
    13    6  132 1    
    14    6  133 1    
    15    7    8 1    
    16    8    9 1    
    17    8  134 1    
    18    8  135 1    
    19    9   10 ar   
    20    9   14 ar   
    21   10   11 ar   
    22   10  136 1    
    23   11   12 ar   
    24   11  126 1    
    25   12   13 ar   
    26   12  137 1    
    27   13   14 ar   
    28   13   15 1    
    29   14  138 1    
    30   15   16 1    
    31   15  139 1    
    32   15  140 1    
    33   16   17 1    
    34   17   18 1    
    35   17  141 1    
    36   17  142 1    
    37   18   19 1    
    38   18   67 1    
    39   18  143 1    
    40   19   20 am   BACKBONE|DICT|INTERRES
    41   19  144 1    
    42   20   21 2    
    43   20   22 1    
    44   22   23 1    
    45   22   24 1    
    46   22  145 1    
    47   23  146 1    
    48   23  147 1    
    49   23  148 1    
    50   24   25 am   BACKBONE|DICT|INTERRES
    51   24  149 1    
    52   25   26 2    
    53   25   27 1    
    54   27   28 1    
    55   27   29 1    
    56   27  150 1    
    57   28  151 1    
    58   28  152 1    
    59   28  153 1    
    60   29   30 am   BACKBONE|DICT|INTERRES
    61   29  154 1    
    62   30   31 2    
    63   30   32 1    
    64   32   33 1    
    65   32   34 1    
    66   32  155 1    
    67   33  156 1    
    68   33  157 1    
    69   33  158 1    
    70   34   35 am   BACKBONE|DICT|INTERRES
    71   34  159 1    
    72   35   36 2    
    73   35   37 1    
    74   37   38 1    
    75   37   39 1    
    76   37  160 1    
    77   38  161 1    
    78   38  162 1    
    79   38  163 1    
    80   39   40 am   BACKBONE|DICT|INTERRES
    81   39  164 1    
    82   40   41 2    
    83   40   42 1    
    84   42   43 1    
    85   42   44 1    
    86   42  165 1    
    87   43  166 1    
    88   43  167 1    
    89   43  168 1    
    90   44   45 am   BACKBONE|DICT|INTERRES
    91   44  169 1    
    92   45   46 2    
    93   45   47 1    
    94   47   48 1    
    95   47   49 1    
    96   47  170 1    
    97   48  171 1    
    98   48  172 1    
    99   48  173 1    
   100   49   50 am   BACKBONE|DICT|INTERRES
   101   49  174 1    
   102   50   51 2    
   103   50   52 1    
   104   52   53 1    
   105   52   54 1    
   106   52  175 1    
   107   53  176 1    
   108   53  177 1    
   109   53  178 1    
   110   54   55 am   BACKBONE|DICT|INTERRES
   111   54  179 1    
   112   55   56 2    
   113   55   57 1    
   114   57   58 1    
   115   57   59 1    
   116   57  180 1    
   117   58  181 1    
   118   58  182 1    
   119   58  183 1    
   120   59   60 am   BACKBONE|DICT|INTERRES
   121   59  184 1    
   122   60   61 2    
   123   60   62 1    
   124   62   63 1    
   125   62   64 1    
   126   62  185 1    
   127   63  186 1    
   128   63  187 1    
   129   63  188 1    
   130   64   65 am   BACKBONE|DICT|INTERRES
   131   64  189 1    
   132   65   66 2    
   133   67   68 2    
   134   67   69 am   BACKBONE|DICT|INTERRES
   135   69   70 1    
   136   69  190 1    
   137   70   71 1    
   138   70   72 1    
   139   70  191 1    
   140   71  192 1    
   141   71  193 1    
   142   71  194 1    
   143   72   73 2    
   144   72   74 am   BACKBONE|DICT|INTERRES
   145   74   75 1    
   146   74  195 1    
   147   75   76 1    
   148   75   77 1    
   149   75  196 1    
   150   76  197 1    
   151   76  198 1    
   152   76  199 1    
   153   77   78 2    
   154   77   79 am   BACKBONE|DICT|INTERRES
   155   79   80 1    
   156   79  200 1    
   157   80   81 1    
   158   80   82 1    
   159   80  201 1    
   160   81  202 1    
   161   81  203 1    
   162   81  204 1    
   163   82   83 2    
   164   82   84 am   BACKBONE|DICT|INTERRES
   165   84   85 1    
   166   84  205 1    
   167   85   86 1    
   168   85   87 1    
   169   85  206 1    
   170   86  207 1    
   171   86  208 1    
   172   86  209 1    
   173   87   88 2    
   174   87   89 am   BACKBONE|DICT|INTERRES
   175   89   90 1    
   176   89  210 1    
   177   90   91 1    
   178   90   92 1    
   179   90  211 1    
   180   91  212 1    
   181   91  213 1    
   182   91  214 1    
   183   92   93 2    
   184   92   94 am   BACKBONE|DICT|INTERRES
   185   94   95 1    
   186   94  215 1    
   187   95   96 1    
   188   95   97 1    
   189   95  216 1    
   190   96  217 1    
   191   96  218 1    
   192   96  219 1    
   193   97   98 2    
   194   97   99 am   BACKBONE|DICT|INTERRES
   195   99  100 1    
   196   99  220 1    
   197  100  101 1    
   198  100  102 1    
   199  100  221 1    
   200  101  222 1    
   201  101  223 1    
   202  101  224 1    
   203  102  103 2    
   204  102  104 am   BACKBONE|DICT|INTERRES
   205  104  105 1    
   206  104  225 1    
   207  105  106 1    
   208  105  107 1    
   209  105  226 1    
   210  106  227 1    
   211  106  228 1    
   212  106  229 1    
   213  107  108 2    
   214  107  109 am   BACKBONE|DICT|INTERRES
   215  109  110 1    
   216  109  230 1    
   217  110  111 1    
   218  110  112 1    
   219  110  231 1    
   220  111  232 1    
   221  111  233 1    
   222  111  234 1    
   223  112  113 2    
   224  112  114 am   BACKBONE|DICT|INTERRES
   225  114  115 1    
   226  114  235 1    
   227  115  116 1    
   228  115  117 1    
   229  115  236 1    
   230  116  237 1    
   231  116  238 1    
   232  116  239 1    
   233  117  118 2    
   234  117  119 am   BACKBONE|DICT|INTERRES
   235  119  120 1    
   236  119  240 1    
   237  120  121 1    
   238  120  124 1    
   239  120  241 1    
   240  121  122 am   BACKBONE|DICT|INTERRES
   241  121  123 2    
   242  122  242 1    
   243  122  243 1    
   244  124  125 1    
   245  124  244 1    
   246  124  245 1    
   247  125  126 1    
   248  126  246 1    
   249  126  247 1    
@<TRIPOS>SUBSTRUCTURE
     1 UNK         1 GROUP             0       ****    0 ROOT    
