@<TRIPOS>MOLECULE
3R540
247   249    1
SMALL
USER_CHARGES


@<TRIPOS>ATOM
      1 CA          4.7357  -11.2010  -47.1266 C.3       0 UNK        -0.1800 
      2 C           3.5871  -12.1989  -47.1268 C.2       0 UNK         0.5000 
      3 O           2.6029  -12.0000  -46.4156 O.2       0 UNK        -0.5000 
      4 N           3.7009  -13.2711  -47.9205 N.am      1 UNK        -0.5000 
      5 CA          2.6741  -14.3061  -48.0776 C.3       1 UNK         0.1400 
      6 C6          3.1927  -15.4891  -48.9271 C.3       23 UNK        -0.0398 
      7 S7          2.2474  -17.0168  -48.6239 S.3       23 UNK        -0.2404 
      8 C8          1.5488  -17.3518  -50.2730 C.3       23 UNK        -0.0205 
      9 C9          0.8754  -18.7125  -50.2784 C.ar      23 UNK        -0.0193 
     10 C10        -0.5171  -18.8234  -50.2399 C.ar      23 UNK        -0.1150 
     11 C11        -1.1249  -20.0764  -50.1089 C.ar      23 UNK        -0.0193 
     12 C12        -0.3256  -21.2225  -50.0397 C.ar      23 UNK        -0.1150 
     13 C13         1.0672  -21.1237  -50.1105 C.ar      23 UNK        -0.0193 
     14 C14         1.6597  -19.8674  -50.2477 C.ar      23 UNK        -0.1150 
     15 C15         1.9334  -22.3667  -49.9707 C.3       23 UNK        -0.0205 
     16 S16         3.0512  -22.3071  -48.5277 S.3       23 UNK        -0.2404 
     17 C17         1.9309  -21.8152  -47.1701 C.3       23 UNK        -0.0398 
     18 CA          1.4105  -22.9830  -46.3033 C.3       11 UNK         0.1400 
     19 N           0.8214  -22.4731  -45.0634 N.am      11 UNK        -0.5000 
     20 C           0.4809  -23.2155  -44.0026 C.2       10 UNK         0.5000 
     21 O           0.6550  -24.4318  -43.9347 O.2       10 UNK        -0.5000 
     22 CA         -0.1912  -22.4746  -42.8316 C.3       10 UNK         0.1400 
     23 CB          0.8575  -21.7768  -41.9523 C.3       10 UNK        -0.1800 
     24 N          -1.1806  -21.4962  -43.2862 N.am      10 UNK        -0.5000 
     25 C          -2.3361  -21.8181  -43.8848 C.2       9 UNK         0.5000 
     26 O          -2.7205  -22.9771  -44.0438 O.2       9 UNK        -0.5000 
     27 CA         -3.1951  -20.6571  -44.4235 C.3       9 UNK         0.1400 
     28 CB         -4.0854  -20.0788  -43.3142 C.3       9 UNK        -0.1800 
     29 N          -2.4114  -19.5795  -45.0330 N.am      9 UNK        -0.5000 
     30 C          -1.6191  -19.7283  -46.1038 C.2       8 UNK         0.5000 
     31 O          -1.4679  -20.7958  -46.6927 O.2       8 UNK        -0.5000 
     32 CA         -0.8169  -18.4965  -46.5592 C.3       8 UNK         0.1400 
     33 CB         -1.7064  -17.4881  -47.3021 C.3       8 UNK        -0.1800 
     34 N          -0.1417  -17.8339  -45.4449 N.am      8 UNK        -0.5000 
     35 C           0.8001  -18.4083  -44.6826 C.2       7 UNK         0.5000 
     36 O           1.2491  -19.5383  -44.8737 O.2       7 UNK        -0.5000 
     37 CA          1.2642  -17.6063  -43.4567 C.3       7 UNK         0.1400 
     38 CB          2.3083  -16.5505  -43.8531 C.3       7 UNK        -0.1800 
     39 N           0.1355  -16.9685  -42.7759 N.am      7 UNK        -0.5000 
     40 C          -0.8149  -17.6418  -42.1086 C.2       6 UNK         0.5000 
     41 O          -0.8103  -18.8638  -41.9633 O.2       6 UNK        -0.5000 
     42 CA         -1.9883  -16.8201  -41.5427 C.3       6 UNK         0.1400 
     43 CB         -1.6399  -16.2691  -40.1523 C.3       6 UNK        -0.1800 
     44 N          -2.3802  -15.7144  -42.4170 N.am      6 UNK        -0.5000 
     45 C          -2.9042  -15.8585  -43.6428 C.2       5 UNK         0.5000 
     46 O          -3.1679  -16.9489  -44.1471 O.2       5 UNK        -0.5000 
     47 CA         -3.1177  -14.5717  -44.4631 C.3       5 UNK         0.1400 
     48 CB         -4.5510  -14.0491  -44.2962 C.3       5 UNK        -0.1800 
     49 N          -2.1658  -13.5108  -44.1203 N.am      5 UNK        -0.5000 
     50 C          -0.8473  -13.5875  -44.3386 C.2       4 UNK         0.5000 
     51 O          -0.3081  -14.5464  -44.8990 O.2       4 UNK        -0.5000 
     52 CA         -0.0076  -12.3788  -43.8910 C.3       4 UNK         0.1400 
     53 CB          1.3732  -12.8075  -43.3656 C.3       4 UNK        -0.1800 
     54 N           0.1627  -11.5067  -45.0440 N.am      4 UNK        -0.5000 
     55 C          -0.7378  -10.6055  -45.4596 C.2       3 UNK         0.5000 
     56 O          -1.6681  -10.1914  -44.7666 O.2       3 UNK        -0.5000 
     57 CA         -0.6431  -10.2013  -46.9432 C.3       3 UNK         0.1400 
     58 CB          0.5336   -9.2489  -47.2066 C.3       3 UNK        -0.1800 
     59 N          -0.5160  -11.4075  -47.7655 N.am      3 UNK        -0.5000 
     60 C          -1.5079  -12.2939  -47.9398 C.2       2 UNK         0.5000 
     61 O          -2.6834  -12.0474  -47.6670 O.2       2 UNK        -0.5000 
     62 CA         -1.1427  -13.7173  -48.4079 C.3       2 UNK         0.1400 
     63 CB         -1.5028  -13.9560  -49.8864 C.3       2 UNK        -0.1800 
     64 N           0.2314  -14.1308  -48.0971 N.am      2 UNK        -0.5000 
     65 C           1.3726  -13.7188  -48.6633 C.2       1 UNK         0.5000 
     66 O           1.4340  -12.8948  -49.5785 O.2       1 UNK        -0.5000 
     67 C           0.4343  -23.9040  -47.0704 C.2       11 UNK         0.5000 
     68 O           0.8468  -24.9683  -47.5343 O.2       11 UNK        -0.5000 
     69 N          -0.8499  -23.5163  -47.1329 N.am      12 UNK        -0.5000 
     70 CA         -1.9414  -24.2387  -47.7980 C.3       12 UNK         0.1400 
     71 CB         -3.2516  -23.4554  -47.6299 C.3       12 UNK        -0.1800 
     72 C          -2.1429  -25.6906  -47.3238 C.2       12 UNK         0.5000 
     73 O          -2.6491  -26.5099  -48.0912 O.2       12 UNK        -0.5000 
     74 N          -1.7348  -25.9891  -46.0823 N.am      13 UNK        -0.5000 
     75 CA         -1.7529  -27.3298  -45.4994 C.3       13 UNK         0.1400 
     76 CB         -1.4790  -27.2274  -43.9917 C.3       13 UNK        -0.1800 
     77 C          -0.7589  -28.3020  -46.1673 C.2       13 UNK         0.5000 
     78 O          -1.0006  -29.5096  -46.1409 O.2       13 UNK        -0.5000 
     79 N           0.3265  -27.7764  -46.7556 N.am      14 UNK        -0.5000 
     80 CA          1.2859  -28.5527  -47.5396 C.3       14 UNK         0.1400 
     81 CB          2.6638  -27.8709  -47.5085 C.3       14 UNK        -0.1800 
     82 C           0.7795  -28.7326  -48.9800 C.2       14 UNK         0.5000 
     83 O           0.6719  -29.8652  -49.4515 O.2       14 UNK        -0.5000 
     84 N           0.4490  -27.6143  -49.6351 N.am      15 UNK        -0.5000 
     85 CA         -0.1147  -27.5328  -50.9797 C.3       15 UNK         0.1400 
     86 CB          0.9389  -27.9097  -52.0391 C.3       15 UNK        -0.1800 
     87 C          -0.6041  -26.0970  -51.2006 C.2       15 UNK         0.5000 
     88 O          -0.0394  -25.1729  -50.6163 O.2       15 UNK        -0.5000 
     89 N          -1.6303  -25.9207  -52.0384 N.am      16 UNK        -0.5000 
     90 CA         -2.1727  -24.6057  -52.3804 C.3       16 UNK         0.1400 
     91 CB         -3.5948  -24.7807  -52.9355 C.3       16 UNK        -0.1800 
     92 C          -1.2846  -23.8563  -53.3935 C.2       16 UNK         0.5000 
     93 O          -0.6211  -24.4909  -54.2179 O.2       16 UNK        -0.5000 
     94 N          -1.3342  -22.5217  -53.3367 N.am      17 UNK        -0.5000 
     95 CA         -0.7124  -21.6046  -54.2879 C.3       17 UNK         0.1400 
     96 CB          0.4531  -20.8621  -53.6071 C.3       17 UNK        -0.1800 
     97 C          -1.8149  -20.6832  -54.8388 C.2       17 UNK         0.5000 
     98 O          -2.6960  -21.1730  -55.5470 O.2       17 UNK        -0.5000 
     99 N          -1.7772  -19.3884  -54.5035 N.am      18 UNK        -0.5000 
    100 CA        -2.7647  -18.3864  -54.8939 C.3       18 UNK         0.1400 
    101 CB        -2.3998  -17.8073  -56.2721 C.3       18 UNK        -0.1800 
    102 C         -2.8220  -17.2818  -53.8278 C.2       18 UNK         0.5000 
    103 O         -1.8364  -17.0768  -53.1150 O.2       18 UNK        -0.5000 
    104 N         -3.9733  -16.5966  -53.7721 N.am      19 UNK        -0.5000 
    105 CA        -4.3536  -15.5063  -52.8635 C.3       19 UNK         0.1400 
    106 CB        -3.3601  -14.3301  -52.9509 C.3       19 UNK        -0.1800 
    107 C         -4.5927  -15.9517  -51.4049 C.2       19 UNK         0.5000 
    108 O         -4.1551  -17.0267  -50.9891 O.2       19 UNK        -0.5000 
    109 N         -5.3271  -15.1107  -50.6590 N.am      20 UNK        -0.5000 
    110 CA        -5.7811  -15.3130  -49.2768 C.3       20 UNK         0.1400 
    111 CB        -4.6055  -15.1462  -48.2898 C.3       20 UNK        -0.1800 
    112 C         -6.5520  -16.6402  -49.1206 C.2       20 UNK         0.5000 
    113 O         -7.5899  -16.8096  -49.7640 O.2       20 UNK        -0.5000 
    114 N         -6.0112  -17.5727  -48.3241 N.am      21 UNK        -0.5000 
    115 CA        -6.5308  -18.9267  -48.1087 C.3       21 UNK         0.1400 
    116 CB        -5.6574  -19.6196  -47.0501 C.3       21 UNK        -0.1800 
    117 C         -6.6090  -19.7871  -49.3887 C.2       21 UNK         0.5000 
    118 O         -7.3804  -20.7466  -49.4232 O.2       21 UNK        -0.5000 
    119 N         -5.8267  -19.4199  -50.4095 N.am      22 UNK        -0.5000 
    120 CA        -5.7877  -20.0451  -51.7375 C.3       22 UNK         0.1400 
    121 C         -6.5478  -19.2125  -52.8131 C.2       22 UNK         0.5000 
    122 N         -7.2834  -18.1632  -52.4600 N.am      22 UNK        -0.7600 
    123 O         -6.4757  -19.5233  -53.9984 O.2       22 UNK        -0.5000 
    124 C124       -4.3291  -20.3372  -52.1745 C.3       23 UNK        -0.0398 
    125 S125       -3.4317  -21.4072  -51.0042 S.3       23 UNK        -0.2404 
    126 C126       -2.6329  -20.1711  -49.9289 C.3       23 UNK        -0.0205 
    127 H127        5.5380  -11.5054  -47.7990 H         1 UNK         0.0600 
    128 H128        5.1491  -11.1070  -46.1224 H         1 UNK         0.0600 
    129 H129        4.3787  -10.2208  -47.4428 H         1 UNK         0.0600 
    130 H130        4.5180  -13.3657  -48.5061 H         1 UNK         0.3000 
    131 H131        2.4618  -14.6739  -47.0703 H         1 UNK         0.0600 
    132 H132        3.2054  -15.2425  -49.9907 H         1 UNK         0.0800 
    133 H133        4.2273  -15.7114  -48.6616 H         1 UNK         0.0800 
    134 H134        0.8412  -16.5649  -50.5396 H         1 UNK         0.0800 
    135 H135        2.3406  -17.3363  -51.0234 H         1 UNK         0.0800 
    136 H136       -1.1253  -17.9294  -50.2629 H         1 UNK         0.1150 
    137 H137       -0.7878  -22.1894  -49.9008 H         1 UNK         0.1150 
    138 H138        2.7373  -19.7839  -50.2666 H         1 UNK         0.1150 
    139 H139        1.3117  -23.2534  -49.8767 H         1 UNK         0.0800 
    140 H140        2.5228  -22.4983  -50.8786 H         1 UNK         0.0800 
    141 H141        2.5186  -21.1443  -46.5427 H         1 UNK         0.0800 
    142 H142        1.1036  -21.2055  -47.5309 H         1 UNK         0.0800 
    143 H143        2.2698  -23.5930  -46.0166 H         1 UNK         0.0600 
    144 H144        0.6743  -21.4695  -45.0194 H         1 UNK         0.3000 
    145 H145       -0.7059  -23.2178  -42.2190 H         1 UNK         0.0600 
    146 H146        0.3951  -21.3189  -41.0777 H         1 UNK         0.0600 
    147 H147        1.6018  -22.4881  -41.5924 H         1 UNK         0.0600 
    148 H148        1.3860  -20.9944  -42.4978 H         1 UNK         0.0600 
    149 H149       -0.9630  -20.5173  -43.1297 H         1 UNK         0.3000 
    150 H150       -3.8442  -21.0677  -45.1991 H         1 UNK         0.0600 
    151 H151       -4.7113  -20.8545  -42.8713 H         1 UNK         0.0600 
    152 H152       -4.7496  -19.3067  -43.7026 H         1 UNK         0.0600 
    153 H153       -3.4919  -19.6377  -42.5134 H         1 UNK         0.0600 
    154 H154       -2.5189  -18.6538  -44.6263 H         1 UNK         0.3000 
    155 H155       -0.0512  -18.8473  -47.2547 H         1 UNK         0.0600 
    156 H156       -1.0992  -16.7432  -47.8147 H         1 UNK         0.0600 
    157 H157       -2.3857  -16.9671  -46.6302 H         1 UNK         0.0600 
    158 H158       -2.3173  -17.9805  -48.0576 H         1 UNK         0.0600 
    159 H159       -0.4511  -16.9018  -45.2048 H         1 UNK         0.3000 
    160 H160        1.7339  -18.3015  -42.7574 H         1 UNK         0.0600 
    161 H161        1.9233  -15.8532  -44.5967 H         1 UNK         0.0600 
    162 H162        3.1915  -17.0244  -44.2830 H         1 UNK         0.0600 
    163 H163        2.6369  -15.9735  -42.9888 H         1 UNK         0.0600 
    164 H164        0.0361  -15.9716  -42.8980 H         1 UNK         0.3000 
    165 H165       -2.8449  -17.4894  -41.4402 H         1 UNK         0.0600 
    166 H166       -0.8031  -15.5705  -40.1923 H         1 UNK         0.0600 
    167 H167       -2.4903  -15.7505  -39.7091 H         1 UNK         0.0600 
    168 H168       -1.3622  -17.0755  -39.4720 H         1 UNK         0.0600 
    169 H169       -2.2054  -14.7805  -42.0774 H         1 UNK         0.3000 
    170 H170       -2.9712  -14.8253  -45.5147 H         1 UNK         0.0600 
    171 H171       -5.2797  -14.8160  -44.5628 H         1 UNK         0.0600 
    172 H172       -4.7532  -13.7459  -43.2682 H         1 UNK         0.0600 
    173 H173       -4.7334  -13.1907  -44.9434 H         1 UNK         0.0600 
    174 H174       -2.5480  -12.6704  -43.7089 H         1 UNK         0.3000 
    175 H175       -0.5290  -11.8497  -43.0904 H         1 UNK         0.0600 
    176 H176        1.9564  -11.9435  -43.0470 H         1 UNK         0.0600 
    177 H177        1.2750  -13.4709  -42.5054 H         1 UNK         0.0600 
    178 H178        1.9530  -13.3361  -44.1234 H         1 UNK         0.0600 
    179 H179        0.9288  -11.7559  -45.6667 H         1 UNK         0.3000 
    180 H180       -1.5654   -9.6842  -47.2175 H         1 UNK         0.0600 
    181 H181        0.5794   -8.9626  -48.2579 H         1 UNK         0.0600 
    182 H182        0.4264   -8.3329  -46.6242 H         1 UNK         0.0600 
    183 H183        1.4921   -9.6936  -46.9403 H         1 UNK         0.0600 
    184 H184        0.4182  -11.6783  -48.0473 H         1 UNK         0.3000 
    185 H185       -1.7700  -14.3837  -47.8150 H         1 UNK         0.0600 
    186 H186       -1.3368  -14.9958  -50.1700 H         1 UNK         0.0600 
    187 H187       -2.5548  -13.7358  -50.0674 H         1 UNK         0.0600 
    188 H188       -0.9254  -13.3241  -50.5610 H         1 UNK         0.0600 
    189 H189        0.3051  -14.7537  -47.3027 H         1 UNK         0.3000 
    190 H190       -1.0891  -22.5967  -46.7669 H         1 UNK         0.3000 
    191 H191       -1.7061  -24.2711  -48.8613 H         1 UNK         0.0600 
    192 H192       -4.0707  -23.9424  -48.1604 H         1 UNK         0.0600 
    193 H193       -3.1656  -22.4494  -48.0314 H         1 UNK         0.0600 
    194 H194       -3.5404  -23.3732  -46.5823 H         1 UNK         0.0600 
    195 H195       -1.3279  -25.2530  -45.5213 H         1 UNK         0.3000 
    196 H196       -2.7560  -27.7391  -45.6352 H         1 UNK         0.0600 
    197 H197       -1.5731  -28.2025  -43.5121 H         1 UNK         0.0600 
    198 H198       -2.1855  -26.5550  -43.5045 H         1 UNK         0.0600 
    199 H199       -0.4721  -26.8609  -43.7906 H         1 UNK         0.0600 
    200 H200        0.4342  -26.7671  -46.7830 H         1 UNK         0.3000 
    201 H201        1.3995  -29.5431  -47.0934 H         1 UNK         0.0600 
    202 H202        3.0268  -27.7655  -46.4862 H         1 UNK         0.0600 
    203 H203        2.6424  -26.8782  -47.9585 H         1 UNK         0.0600 
    204 H204        3.3997  -28.4608  -48.0561 H         1 UNK         0.0600 
    205 H205        0.5542  -26.7135  -49.1786 H         1 UNK         0.3000 
    206 H206       -0.9678  -28.2109  -51.0458 H         1 UNK         0.0600 
    207 H207        1.2572  -28.9471  -51.9401 H         1 UNK         0.0600 
    208 H208        0.5391  -27.7918  -53.0470 H         1 UNK         0.0600 
    209 H209        1.8248  -27.2783  -51.9623 H         1 UNK         0.0600 
    210 H210       -2.0202  -26.7137  -52.5261 H         1 UNK         0.3000 
    211 H211       -2.2329  -24.0143  -51.4649 H         1 UNK         0.0600 
    212 H212       -3.6008  -25.3809  -53.8461 H         1 UNK         0.0600 
    213 H213       -4.0426  -23.8154  -53.1759 H         1 UNK         0.0600 
    214 H214       -4.2451  -25.2655  -52.2070 H         1 UNK         0.0600 
    215 H215       -1.9311  -22.0887  -52.6430 H         1 UNK         0.3000 
    216 H216       -0.3100  -22.1529  -55.1420 H         1 UNK         0.0600 
    217 H217        0.9599  -20.1985  -54.3087 H         1 UNK         0.0600 
    218 H218        1.1974  -21.5649  -53.2325 H         1 UNK         0.0600 
    219 H219        0.1161  -20.2604  -52.7646 H         1 UNK         0.0600 
    220 H220       -1.0659  -19.0461  -53.8690 H         1 UNK         0.3000 
    221 H221       -3.7505  -18.8538  -54.9489 H         1 UNK         0.0600 
    222 H222       -1.4140  -17.3406  -56.2612 H         1 UNK         0.0600 
    223 H223       -2.3949  -18.5827  -57.0384 H         1 UNK         0.0600 
    224 H224       -3.1196  -17.0495  -56.5835 H         1 UNK         0.0600 
    225 H225       -4.7107  -16.8838  -54.4004 H         1 UNK         0.3000 
    226 H226       -5.3150  -15.1501  -53.2368 H         1 UNK         0.0600 
    227 H227       -3.2310  -14.0006  -53.9818 H         1 UNK         0.0600 
    228 H228       -3.7141  -13.4710  -52.3803 H         1 UNK         0.0600 
    229 H229       -2.3778  -14.5946  -52.5606 H         1 UNK         0.0600 
    230 H230       -5.6734  -14.2697  -51.0986 H         1 UNK         0.3000 
    231 H231       -6.5021  -14.5224  -49.0640 H         1 UNK         0.0600 
    232 H232       -4.9200  -15.3080  -47.2581 H         1 UNK         0.0600 
    233 H233       -4.2149  -14.1316  -48.3395 H         1 UNK         0.0600 
    234 H234       -3.7849  -15.8296  -48.5077 H         1 UNK         0.0600 
    235 H235       -5.1450  -17.3502  -47.8579 H         1 UNK         0.3000 
    236 H236       -7.5450  -18.8349  -47.7152 H         1 UNK         0.0600 
    237 H237       -5.6600  -19.0665  -46.1106 H         1 UNK         0.0600 
    238 H238       -6.0234  -20.6246  -46.8354 H         1 UNK         0.0600 
    239 H239       -4.6226  -19.7124  -47.3806 H         1 UNK         0.0600 
    240 H240       -5.2496  -18.5907  -50.3138 H         1 UNK         0.3000 
    241 H241       -6.3084  -21.0032  -51.6977 H         1 UNK         0.0600 
    242 H242       -7.3754  -17.8856  -51.4893 H         1 UNK         0.3800 
    243 H243       -7.7854  -17.6550  -53.1702 H         1 UNK         0.3800 
    244 H244       -4.3196  -20.8372  -53.1440 H         1 UNK         0.0800 
    245 H245       -3.7739  -19.4100  -52.2995 H         1 UNK         0.0800 
    246 H246       -2.8384  -20.4289  -48.8931 H         1 UNK         0.0800 
    247 H247       -3.0906  -19.1949  -50.0784 H         1 UNK         0.0800 
@<TRIPOS>BOND
     1    1    2 1    
     2    1  127 1    
     3    1  128 1    
     4    1  129 1    
     5    2    3 2    
     6    2    4 am   BACKBONE|DICT|INTERRES
     7    4    5 1    
     8    4  130 1    
     9    5    6 1    
    10    5   65 1    
    11    5  131 1    
    12    6    7 1    
    13    6  132 1    
    14    6  133 1    
    15    7    8 1    
    16    8    9 1    
    17    8  134 1    
    18    8  135 1    
    19    9   10 ar   
    20    9   14 ar   
    21   10   11 ar   
    22   10  136 1    
    23   11   12 ar   
    24   11  126 1    
    25   12   13 ar   
    26   12  137 1    
    27   13   14 ar   
    28   13   15 1    
    29   14  138 1    
    30   15   16 1    
    31   15  139 1    
    32   15  140 1    
    33   16   17 1    
    34   17   18 1    
    35   17  141 1    
    36   17  142 1    
    37   18   19 1    
    38   18   67 1    
    39   18  143 1    
    40   19   20 am   BACKBONE|DICT|INTERRES
    41   19  144 1    
    42   20   21 2    
    43   20   22 1    
    44   22   23 1    
    45   22   24 1    
    46   22  145 1    
    47   23  146 1    
    48   23  147 1    
    49   23  148 1    
    50   24   25 am   BACKBONE|DICT|INTERRES
    51   24  149 1    
    52   25   26 2    
    53   25   27 1    
    54   27   28 1    
    55   27   29 1    
    56   27  150 1    
    57   28  151 1    
    58   28  152 1    
    59   28  153 1    
    60   29   30 am   BACKBONE|DICT|INTERRES
    61   29  154 1    
    62   30   31 2    
    63   30   32 1    
    64   32   33 1    
    65   32   34 1    
    66   32  155 1    
    67   33  156 1    
    68   33  157 1    
    69   33  158 1    
    70   34   35 am   BACKBONE|DICT|INTERRES
    71   34  159 1    
    72   35   36 2    
    73   35   37 1    
    74   37   38 1    
    75   37   39 1    
    76   37  160 1    
    77   38  161 1    
    78   38  162 1    
    79   38  163 1    
    80   39   40 am   BACKBONE|DICT|INTERRES
    81   39  164 1    
    82   40   41 2    
    83   40   42 1    
    84   42   43 1    
    85   42   44 1    
    86   42  165 1    
    87   43  166 1    
    88   43  167 1    
    89   43  168 1    
    90   44   45 am   BACKBONE|DICT|INTERRES
    91   44  169 1    
    92   45   46 2    
    93   45   47 1    
    94   47   48 1    
    95   47   49 1    
    96   47  170 1    
    97   48  171 1    
    98   48  172 1    
    99   48  173 1    
   100   49   50 am   BACKBONE|DICT|INTERRES
   101   49  174 1    
   102   50   51 2    
   103   50   52 1    
   104   52   53 1    
   105   52   54 1    
   106   52  175 1    
   107   53  176 1    
   108   53  177 1    
   109   53  178 1    
   110   54   55 am   BACKBONE|DICT|INTERRES
   111   54  179 1    
   112   55   56 2    
   113   55   57 1    
   114   57   58 1    
   115   57   59 1    
   116   57  180 1    
   117   58  181 1    
   118   58  182 1    
   119   58  183 1    
   120   59   60 am   BACKBONE|DICT|INTERRES
   121   59  184 1    
   122   60   61 2    
   123   60   62 1    
   124   62   63 1    
   125   62   64 1    
   126   62  185 1    
   127   63  186 1    
   128   63  187 1    
   129   63  188 1    
   130   64   65 am   BACKBONE|DICT|INTERRES
   131   64  189 1    
   132   65   66 2    
   133   67   68 2    
   134   67   69 am   BACKBONE|DICT|INTERRES
   135   69   70 1    
   136   69  190 1    
   137   70   71 1    
   138   70   72 1    
   139   70  191 1    
   140   71  192 1    
   141   71  193 1    
   142   71  194 1    
   143   72   73 2    
   144   72   74 am   BACKBONE|DICT|INTERRES
   145   74   75 1    
   146   74  195 1    
   147   75   76 1    
   148   75   77 1    
   149   75  196 1    
   150   76  197 1    
   151   76  198 1    
   152   76  199 1    
   153   77   78 2    
   154   77   79 am   BACKBONE|DICT|INTERRES
   155   79   80 1    
   156   79  200 1    
   157   80   81 1    
   158   80   82 1    
   159   80  201 1    
   160   81  202 1    
   161   81  203 1    
   162   81  204 1    
   163   82   83 2    
   164   82   84 am   BACKBONE|DICT|INTERRES
   165   84   85 1    
   166   84  205 1    
   167   85   86 1    
   168   85   87 1    
   169   85  206 1    
   170   86  207 1    
   171   86  208 1    
   172   86  209 1    
   173   87   88 2    
   174   87   89 am   BACKBONE|DICT|INTERRES
   175   89   90 1    
   176   89  210 1    
   177   90   91 1    
   178   90   92 1    
   179   90  211 1    
   180   91  212 1    
   181   91  213 1    
   182   91  214 1    
   183   92   93 2    
   184   92   94 am   BACKBONE|DICT|INTERRES
   185   94   95 1    
   186   94  215 1    
   187   95   96 1    
   188   95   97 1    
   189   95  216 1    
   190   96  217 1    
   191   96  218 1    
   192   96  219 1    
   193   97   98 2    
   194   97   99 am   BACKBONE|DICT|INTERRES
   195   99  100 1    
   196   99  220 1    
   197  100  101 1    
   198  100  102 1    
   199  100  221 1    
   200  101  222 1    
   201  101  223 1    
   202  101  224 1    
   203  102  103 2    
   204  102  104 am   BACKBONE|DICT|INTERRES
   205  104  105 1    
   206  104  225 1    
   207  105  106 1    
   208  105  107 1    
   209  105  226 1    
   210  106  227 1    
   211  106  228 1    
   212  106  229 1    
   213  107  108 2    
   214  107  109 am   BACKBONE|DICT|INTERRES
   215  109  110 1    
   216  109  230 1    
   217  110  111 1    
   218  110  112 1    
   219  110  231 1    
   220  111  232 1    
   221  111  233 1    
   222  111  234 1    
   223  112  113 2    
   224  112  114 am   BACKBONE|DICT|INTERRES
   225  114  115 1    
   226  114  235 1    
   227  115  116 1    
   228  115  117 1    
   229  115  236 1    
   230  116  237 1    
   231  116  238 1    
   232  116  239 1    
   233  117  118 2    
   234  117  119 am   BACKBONE|DICT|INTERRES
   235  119  120 1    
   236  119  240 1    
   237  120  121 1    
   238  120  124 1    
   239  120  241 1    
   240  121  122 am   BACKBONE|DICT|INTERRES
   241  121  123 2    
   242  122  242 1    
   243  122  243 1    
   244  124  125 1    
   245  124  244 1    
   246  124  245 1    
   247  125  126 1    
   248  126  246 1    
   249  126  247 1    
@<TRIPOS>SUBSTRUCTURE
     1 UNK         1 GROUP             0       ****    0 ROOT    
