@<TRIPOS>MOLECULE
3R540
247   249    1
SMALL
USER_CHARGES


@<TRIPOS>ATOM
      1 CA         -1.6490  -15.9640  -44.0019 C.3       0 UNK        -0.1800 
      2 C          -2.1517  -15.3035  -45.2769 C.2       0 UNK         0.5000 
      3 O          -3.3593  -15.1256  -45.4399 O.2       0 UNK        -0.5000 
      4 N          -1.2375  -14.9321  -46.1835 N.am      1 UNK        -0.5000 
      5 CA         -1.5177  -14.2712  -47.4660 C.3       1 UNK         0.1400 
      6 C6         -0.3667  -14.4761  -48.4861 C.3       23 UNK        -0.0398 
      7 S7         -0.1140  -16.2135  -48.9862 S.3       23 UNK        -0.2404 
      8 C8          0.8701  -15.9315  -50.4974 C.3       23 UNK        -0.0205 
      9 C9          1.3735  -17.2175  -51.1401 C.ar      23 UNK        -0.0193 
     10 C10         1.1179  -17.4832  -52.4907 C.ar      23 UNK        -0.1150 
     11 C11         1.6258  -18.6366  -53.0988 C.ar      23 UNK        -0.0193 
     12 C12         2.3978  -19.5235  -52.3449 C.ar      23 UNK        -0.1150 
     13 C13         2.6131  -19.2976  -50.9839 C.ar      23 UNK        -0.0193 
     14 C14         2.1258  -18.1287  -50.3938 C.ar      23 UNK        -0.1150 
     15 C15         3.2960  -20.3595  -50.1367 C.3       23 UNK        -0.0205 
     16 S16         2.3399  -21.9213  -50.0481 S.3       23 UNK        -0.2404 
     17 C17         0.5780  -21.4088  -50.0487 C.3       23 UNK        -0.0398 
     18 CA         -0.0042  -21.1550  -48.6412 C.3       11 UNK         0.1400 
     19 N           0.7813  -20.1737  -47.8887 N.am      11 UNK        -0.5000 
     20 C           0.6793  -19.9704  -46.5729 C.2       10 UNK         0.5000 
     21 O          -0.1867  -20.4944  -45.8690 O.2       10 UNK        -0.5000 
     22 CA          1.6988  -19.0130  -45.9457 C.3       10 UNK         0.1400 
     23 CB          0.9914  -17.8027  -45.3282 C.3       10 UNK        -0.1800 
     24 N           2.4224  -19.7443  -44.9147 N.am      10 UNK        -0.5000 
     25 C           3.5398  -20.4491  -45.1459 C.2       9 UNK         0.5000 
     26 O           4.2123  -20.3482  -46.1727 O.2       9 UNK        -0.5000 
     27 CA          3.9466  -21.4814  -44.0727 C.3       9 UNK         0.1400 
     28 CB          4.8666  -20.8319  -43.0290 C.3       9 UNK        -0.1800 
     29 N           2.7888  -22.0731  -43.3973 N.am      9 UNK        -0.5000 
     30 C           1.8157  -22.7635  -44.0127 C.2       8 UNK         0.5000 
     31 O           1.9118  -23.1755  -45.1694 O.2       8 UNK        -0.5000 
     32 CA          0.5005  -23.0111  -43.2405 C.3       8 UNK         0.1400 
     33 CB          0.2375  -24.5158  -43.0694 C.3       8 UNK        -0.1800 
     34 N           0.4002  -22.3680  -41.9253 N.am      8 UNK        -0.5000 
     35 C           0.4382  -21.0544  -41.6585 C.2       7 UNK         0.5000 
     36 O           0.6243  -20.1859  -42.5129 O.2       7 UNK        -0.5000 
     37 CA          0.2854  -20.6320  -40.1820 C.3       7 UNK         0.1400 
     38 CB          0.0056  -21.7995  -39.2087 C.3       7 UNK        -0.1800 
     39 N           1.4399  -19.8575  -39.7220 N.am      7 UNK        -0.5000 
     40 C           2.7318  -20.2125  -39.7581 C.2       6 UNK         0.5000 
     41 O           3.1330  -21.2952  -40.1902 O.2       6 UNK        -0.5000 
     42 CA          3.7359  -19.1520  -39.2544 C.3       6 UNK         0.1400 
     43 CB          5.1860  -19.6688  -39.2298 C.3       6 UNK        -0.1800 
     44 N           3.6846  -17.9306  -40.0625 N.am      6 UNK        -0.5000 
     45 C           2.7322  -16.9931  -39.9911 C.2       5 UNK         0.5000 
     46 O           1.7922  -17.0324  -39.1901 O.2       5 UNK        -0.5000 
     47 CA          2.8221  -15.8481  -41.0084 C.3       5 UNK         0.1400 
     48 CB          2.4594  -16.3473  -42.4194 C.3       5 UNK        -0.1800 
     49 N           1.8997  -14.7936  -40.6022 N.am      5 UNK        -0.5000 
     50 C           1.9305  -13.5230  -41.0106 C.2       4 UNK         0.5000 
     51 O           2.7788  -13.0675  -41.7821 O.2       4 UNK        -0.5000 
     52 CA          0.8412  -12.5985  -40.4330 C.3       4 UNK         0.1400 
     53 CB          1.3613  -11.8628  -39.1883 C.3       4 UNK        -0.1800 
     54 N           0.3850  -11.6129  -41.4141 N.am      4 UNK        -0.5000 
     55 C          -0.3042  -11.9137  -42.5209 C.2       3 UNK         0.5000 
     56 O          -0.6895  -13.0527  -42.8021 O.2       3 UNK        -0.5000 
     57 CA         -0.6114  -10.7501  -43.4748 C.3       3 UNK         0.1400 
     58 CB          0.6512  -10.3135  -44.2417 C.3       3 UNK        -0.1800 
     59 N          -1.6325  -11.1954  -44.4139 N.am      3 UNK        -0.5000 
     60 C          -2.4205  -10.4266  -45.1716 C.2       2 UNK         0.5000 
     61 O          -2.3941   -9.1946  -45.1477 O.2       2 UNK        -0.5000 
     62 CA         -3.4068  -11.1688  -46.1032 C.3       2 UNK         0.1400 
     63 CB         -3.8355  -10.3229  -47.3206 C.3       2 UNK        -0.1800 
     64 N          -2.9249  -12.4913  -46.5275 N.am      2 UNK        -0.5000 
     65 C          -1.8260  -12.7708  -47.2446 C.2       1 UNK         0.5000 
     66 O          -1.0609  -11.9110  -47.6848 O.2       1 UNK        -0.5000 
     67 C          -1.5093  -20.8092  -48.7231 C.2       11 UNK         0.5000 
     68 O          -2.3003  -21.6691  -49.1099 O.2       11 UNK        -0.5000 
     69 N          -1.8971  -19.5800  -48.3528 N.am      12 UNK        -0.5000 
     70 CA         -3.2920  -19.1658  -48.1906 C.3       12 UNK         0.1400 
     71 CB         -3.3727  -17.6356  -48.1325 C.3       12 UNK        -0.1800 
     72 C          -3.9496  -19.7909  -46.9488 C.2       12 UNK         0.5000 
     73 O          -5.1316  -20.1264  -47.0050 O.2       12 UNK        -0.5000 
     74 N          -3.1731  -19.9953  -45.8738 N.am      13 UNK        -0.5000 
     75 CA         -3.6232  -20.6911  -44.6641 C.3       13 UNK         0.1400 
     76 CB         -2.6914  -20.3453  -43.4963 C.3       13 UNK        -0.1800 
     77 C          -3.7044  -22.2151  -44.8745 C.2       13 UNK         0.5000 
     78 O          -4.5225  -22.8763  -44.2359 O.2       13 UNK        -0.5000 
     79 N          -2.8937  -22.7327  -45.8088 N.am      14 UNK        -0.5000 
     80 CA         -2.9675  -24.1025  -46.3241 C.3       14 UNK         0.1400 
     81 CB         -1.6026  -24.4759  -46.9251 C.3       14 UNK        -0.1800 
     82 C          -4.0928  -24.2924  -47.3688 C.2       14 UNK         0.5000 
     83 O          -4.3071  -25.4172  -47.8195 O.2       14 UNK        -0.5000 
     84 N          -4.7663  -23.1947  -47.7498 N.am      15 UNK        -0.5000 
     85 CA         -5.8634  -23.0613  -48.7165 C.3       15 UNK         0.1400 
     86 CB         -7.0582  -23.9621  -48.3468 C.3       15 UNK        -0.1800 
     87 C          -5.4563  -23.2254  -50.1949 C.2       15 UNK         0.5000 
     88 O          -6.3045  -23.0504  -51.0699 O.2       15 UNK        -0.5000 
     89 N          -4.1766  -23.5018  -50.4727 N.am      16 UNK        -0.5000 
     90 CA         -3.6397  -23.6654  -51.8222 C.3       16 UNK         0.1400 
     91 CB         -2.2402  -24.2908  -51.7544 C.3       16 UNK        -0.1800 
     92 C          -3.6159  -22.3441  -52.6043 C.2       16 UNK         0.5000 
     93 O          -4.0023  -22.3299  -53.7719 O.2       16 UNK        -0.5000 
     94 N          -3.2086  -21.2467  -51.9498 N.am      17 UNK        -0.5000 
     95 CA         -3.2193  -19.9127  -52.5629 C.3       17 UNK         0.1400 
     96 CB         -2.2396  -18.9737  -51.8473 C.3       17 UNK        -0.1800 
     97 C          -4.6298  -19.3020  -52.6270 C.2       17 UNK         0.5000 
     98 O          -4.8880  -18.4854  -53.5099 O.2       17 UNK        -0.5000 
     99 N          -5.5313  -19.7410  -51.7357 N.am      18 UNK        -0.5000 
    100 CA        -6.9531  -19.3865  -51.7616 C.3       18 UNK         0.1400 
    101 CB        -7.6087  -19.7747  -50.4273 C.3       18 UNK        -0.1800 
    102 C         -7.6807  -20.0420  -52.9520 C.2       18 UNK         0.5000 
    103 O         -8.5153  -19.3985  -53.5881 O.2       18 UNK        -0.5000 
    104 N         -7.3087  -21.2925  -53.2608 N.am      19 UNK        -0.5000 
    105 CA        -7.7462  -22.0375  -54.4434 C.3       19 UNK         0.1400 
    106 CB        -7.4957  -23.5338  -54.1941 C.3       19 UNK        -0.1800 
    107 C         -7.0459  -21.5916  -55.7456 C.2       19 UNK         0.5000 
    108 O         -7.4762  -22.0005  -56.8246 O.2       19 UNK        -0.5000 
    109 N         -5.9753  -20.7912  -55.6208 N.am      20 UNK        -0.5000 
    110 CA        -5.0628  -20.3326  -56.6758 C.3       20 UNK         0.1400 
    111 CB        -5.7902  -19.4155  -57.6806 C.3       20 UNK        -0.1800 
    112 C         -4.3017  -21.4965  -57.3488 C.2       20 UNK         0.5000 
    113 O         -4.0337  -21.4567  -58.5509 O.2       20 UNK        -0.5000 
    114 N         -3.9719  -22.5151  -56.5469 N.am      21 UNK        -0.5000 
    115 CA        -3.2868  -23.7430  -56.9444 C.3       21 UNK         0.1400 
    116 CB        -4.0564  -24.9285  -56.3368 C.3       21 UNK        -0.1800 
    117 C         -1.8144  -23.7653  -56.4876 C.2       21 UNK         0.5000 
    118 O         -1.1106  -24.7312  -56.7873 O.2       21 UNK        -0.5000 
    119 N         -1.3767  -22.7324  -55.7543 N.am      22 UNK        -0.5000 
    120 CA        -0.0074  -22.5756  -55.2441 C.3       22 UNK         0.1400 
    121 C          1.0787  -22.4160  -56.3502 C.2       22 UNK         0.5000 
    122 N          2.3324  -22.7189  -56.0389 N.am      22 UNK        -0.7600 
    123 O          0.8080  -21.9969  -57.4738 O.2       22 UNK        -0.5000 
    124 C124        0.0730  -21.4574  -54.1726 C.3       23 UNK        -0.0398 
    125 S125       -0.2678  -19.7688  -54.7949 S.3       23 UNK        -0.2404 
    126 C126        1.3364  -18.9314  -54.5649 C.3       23 UNK        -0.0205 
    127 H127       -1.8361  -17.0368  -44.0355 H         1 UNK         0.0600 
    128 H128       -2.1676  -15.5526  -43.1359 H         1 UNK         0.0600 
    129 H129       -0.5810  -15.7995  -43.8581 H         1 UNK         0.0600 
    130 H130       -0.2594  -15.0766  -45.9808 H         1 UNK         0.3000 
    131 H131       -2.4175  -14.7152  -47.8972 H         1 UNK         0.0600 
    132 H132       -0.5708  -13.9015  -49.3917 H         1 UNK         0.0800 
    133 H133        0.5738  -14.0916  -48.0873 H         1 UNK         0.0800 
    134 H134        1.7315  -15.3084  -50.2529 H         1 UNK         0.0800 
    135 H135        0.2670  -15.3631  -51.2072 H         1 UNK         0.0800 
    136 H136        0.5275  -16.7909  -53.0744 H         1 UNK         0.1150 
    137 H137        2.7930  -20.4203  -52.7996 H         1 UNK         0.1150 
    138 H138        2.3124  -17.9298  -49.3483 H         1 UNK         0.1150 
    139 H139        3.4737  -19.9952  -49.1237 H         1 UNK         0.0800 
    140 H140        4.2806  -20.5728  -50.5550 H         1 UNK         0.0800 
    141 H141        0.0311  -22.2194  -50.5286 H         1 UNK         0.0800 
    142 H142        0.4183  -20.5471  -50.6924 H         1 UNK         0.0800 
    143 H143        0.0632  -22.0948  -48.0900 H         1 UNK         0.0600 
    144 H144        1.5151  -19.7152  -48.4062 H         1 UNK         0.3000 
    145 H145        2.3841  -18.6504  -46.7148 H         1 UNK         0.0600 
    146 H146        0.3277  -17.3302  -46.0521 H         1 UNK         0.0600 
    147 H147        1.7131  -17.0512  -45.0127 H         1 UNK         0.0600 
    148 H148        0.3922  -18.0876  -44.4625 H         1 UNK         0.0600 
    149 H149        1.8940  -19.9351  -44.0677 H         1 UNK         0.3000 
    150 H150        4.4947  -22.2852  -44.5682 H         1 UNK         0.0600 
    151 H151        4.3662  -20.0139  -42.5096 H         1 UNK         0.0600 
    152 H152        5.7629  -20.4242  -43.4979 H         1 UNK         0.0600 
    153 H153        5.1905  -21.5566  -42.2817 H         1 UNK         0.0600 
    154 H154        2.6419  -21.7974  -42.4346 H         1 UNK         0.3000 
    155 H155       -0.2972  -22.6016  -43.8628 H         1 UNK         0.0600 
    156 H156        0.2613  -25.0334  -44.0292 H         1 UNK         0.0600 
    157 H157       -0.7447  -24.6974  -42.6326 H         1 UNK         0.0600 
    158 H158        0.9850  -24.9822  -42.4267 H         1 UNK         0.0600 
    159 H159        0.2904  -22.9954  -41.1421 H         1 UNK         0.3000 
    160 H160       -0.5726  -19.9591  -40.1487 H         1 UNK         0.0600 
    161 H161       -0.9012  -22.3386  -39.4860 H         1 UNK         0.0600 
    162 H162       -0.1450  -21.4289  -38.1946 H         1 UNK         0.0600 
    163 H163        0.8275  -22.5157  -39.1755 H         1 UNK         0.0600 
    164 H164        1.2398  -18.9114  -39.4117 H         1 UNK         0.3000 
    165 H165        3.4571  -18.9073  -38.2273 H         1 UNK         0.0600 
    166 H166        5.2699  -20.5693  -38.6201 H         1 UNK         0.0600 
    167 H167        5.5469  -19.9139  -40.2290 H         1 UNK         0.0600 
    168 H168        5.8608  -18.9266  -38.8032 H         1 UNK         0.0600 
    169 H169        4.4051  -17.8359  -40.7634 H         1 UNK         0.3000 
    170 H170        3.8423  -15.4587  -41.0009 H         1 UNK         0.0600 
    171 H171        2.5183  -15.5438  -43.1534 H         1 UNK         0.0600 
    172 H172        1.4473  -16.7533  -42.4486 H         1 UNK         0.0600 
    173 H173        3.1372  -17.1351  -42.7504 H         1 UNK         0.0600 
    174 H174        1.2138  -15.0970  -39.9210 H         1 UNK         0.3000 
    175 H175       -0.0174  -13.2073  -40.1411 H         1 UNK         0.0600 
    176 H176        2.2125  -11.2232  -39.4252 H         1 UNK         0.0600 
    177 H177        1.6852  -12.5699  -38.4235 H         1 UNK         0.0600 
    178 H178        0.5849  -11.2392  -38.7445 H         1 UNK         0.0600 
    179 H179        0.6940  -10.6626  -41.2711 H         1 UNK         0.3000 
    180 H180       -1.0000   -9.9146  -42.8890 H         1 UNK         0.0600 
    181 H181        1.0526  -11.1286  -44.8454 H         1 UNK         0.0600 
    182 H182        1.4379   -9.9921  -43.5583 H         1 UNK         0.0600 
    183 H183        0.4426   -9.4768  -44.9085 H         1 UNK         0.0600 
    184 H184       -1.7388  -12.2019  -44.4465 H         1 UNK         0.3000 
    185 H185       -4.2994  -11.3532  -45.5039 H         1 UNK         0.0600 
    186 H186       -4.3354   -9.4068  -47.0041 H         1 UNK         0.0600 
    187 H187       -2.9823  -10.0329  -47.9342 H         1 UNK         0.0600 
    188 H188       -4.5346  -10.8691  -47.9538 H         1 UNK         0.0600 
    189 H189       -3.4416  -13.2875  -46.1635 H         1 UNK         0.3000 
    190 H190       -1.1885  -18.9116  -48.0882 H         1 UNK         0.3000 
    191 H191       -3.8619  -19.5024  -49.0588 H         1 UNK         0.0600 
    192 H192       -3.0303  -17.1827  -49.0625 H         1 UNK         0.0600 
    193 H193       -4.3971  -17.2993  -47.9671 H         1 UNK         0.0600 
    194 H194       -2.7615  -17.2401  -47.3230 H         1 UNK         0.0600 
    195 H195       -2.1879  -19.7625  -45.9157 H         1 UNK         0.3000 
    196 H196       -4.6252  -20.3391  -44.4093 H         1 UNK         0.0600 
    197 H197       -2.9961  -20.8571  -42.5827 H         1 UNK         0.0600 
    198 H198       -2.6958  -19.2755  -43.2889 H         1 UNK         0.0600 
    199 H199       -1.6666  -20.6390  -43.7120 H         1 UNK         0.0600 
    200 H200       -2.2313  -22.1152  -46.2556 H         1 UNK         0.3000 
    201 H201       -3.1702  -24.7797  -45.4919 H         1 UNK         0.0600 
    202 H202       -1.5641  -25.5383  -47.1682 H         1 UNK         0.0600 
    203 H203       -0.7889  -24.2731  -46.2284 H         1 UNK         0.0600 
    204 H204       -1.4034  -23.9279  -47.8454 H         1 UNK         0.0600 
    205 H205       -4.4911  -22.3225  -47.3199 H         1 UNK         0.3000 
    206 H206       -6.2024  -22.0295  -48.6226 H         1 UNK         0.0600 
    207 H207       -7.3565  -23.8157  -47.3087 H         1 UNK         0.0600 
    208 H208       -7.9251  -23.7329  -48.9677 H         1 UNK         0.0600 
    209 H209       -6.8315  -25.0191  -48.4873 H         1 UNK         0.0600 
    210 H210       -3.5183  -23.5388  -49.7068 H         1 UNK         0.3000 
    211 H211       -4.2895  -24.3548  -52.3657 H         1 UNK         0.0600 
    212 H212       -2.2798  -25.2911  -51.3230 H         1 UNK         0.0600 
    213 H213       -1.8012  -24.3822  -52.7492 H         1 UNK         0.0600 
    214 H214       -1.5628  -23.6945  -51.1459 H         1 UNK         0.0600 
    215 H215       -2.9186  -21.3307  -50.9810 H         1 UNK         0.3000 
    216 H216       -2.8773  -20.0116  -53.5941 H         1 UNK         0.0600 
    217 H217       -2.5695  -18.7277  -50.8429 H         1 UNK         0.0600 
    218 H218       -2.1425  -18.0330  -52.3906 H         1 UNK         0.0600 
    219 H219       -1.2438  -19.4083  -51.7862 H         1 UNK         0.0600 
    220 H220       -5.2459  -20.4380  -51.0661 H         1 UNK         0.3000 
    221 H221       -7.0321  -18.3029  -51.8739 H         1 UNK         0.0600 
    222 H222       -7.6300  -20.8543  -50.2826 H         1 UNK         0.0600 
    223 H223       -7.0824  -19.3311  -49.5816 H         1 UNK         0.0600 
    224 H224       -8.6405  -19.4234  -50.3886 H         1 UNK         0.0600 
    225 H225       -6.6802  -21.7839  -52.6342 H         1 UNK         0.3000 
    226 H226       -8.8191  -21.8853  -54.5767 H         1 UNK         0.0600 
    227 H227       -8.0246  -23.8795  -53.3056 H         1 UNK         0.0600 
    228 H228       -7.8427  -24.1368  -55.0340 H         1 UNK         0.0600 
    229 H229       -6.4348  -23.7452  -54.0544 H         1 UNK         0.0600 
    230 H230       -5.7131  -20.5292  -54.6816 H         1 UNK         0.3000 
    231 H231       -4.3043  -19.7296  -56.1745 H         1 UNK         0.0600 
    232 H232       -6.5205  -19.9628  -58.2769 H         1 UNK         0.0600 
    233 H233       -5.0830  -18.9567  -58.3724 H         1 UNK         0.0600 
    234 H234       -6.3122  -18.6073  -57.1683 H         1 UNK         0.0600 
    235 H235       -4.1918  -22.4412  -55.5546 H         1 UNK         0.3000 
    236 H236       -3.2942  -23.8474  -58.0311 H         1 UNK         0.0600 
    237 H237       -4.0537  -24.8920  -55.2465 H         1 UNK         0.0600 
    238 H238       -5.0953  -24.9336  -56.6676 H         1 UNK         0.0600 
    239 H239       -3.6159  -25.8802  -56.6364 H         1 UNK         0.0600 
    240 H240       -2.0114  -21.9692  -55.5759 H         1 UNK         0.3000 
    241 H241        0.2217  -23.5134  -54.7337 H         1 UNK         0.0600 
    242 H242        2.5867  -23.0736  -55.1302 H         1 UNK         0.3800 
    243 H243        3.0470  -22.6121  -56.7421 H         1 UNK         0.3800 
    244 H244       -0.6392  -21.6660  -53.3740 H         1 UNK         0.0800 
    245 H245        1.0485  -21.4897  -53.6927 H         1 UNK         0.0800 
    246 H246        2.1317  -19.5381  -55.0009 H         1 UNK         0.0800 
    247 H247        1.3265  -17.9967  -55.1272 H         1 UNK         0.0800 
@<TRIPOS>BOND
     1    1    2 1    
     2    1  127 1    
     3    1  128 1    
     4    1  129 1    
     5    2    3 2    
     6    2    4 am   BACKBONE|DICT|INTERRES
     7    4    5 1    
     8    4  130 1    
     9    5    6 1    
    10    5   65 1    
    11    5  131 1    
    12    6    7 1    
    13    6  132 1    
    14    6  133 1    
    15    7    8 1    
    16    8    9 1    
    17    8  134 1    
    18    8  135 1    
    19    9   10 ar   
    20    9   14 ar   
    21   10   11 ar   
    22   10  136 1    
    23   11   12 ar   
    24   11  126 1    
    25   12   13 ar   
    26   12  137 1    
    27   13   14 ar   
    28   13   15 1    
    29   14  138 1    
    30   15   16 1    
    31   15  139 1    
    32   15  140 1    
    33   16   17 1    
    34   17   18 1    
    35   17  141 1    
    36   17  142 1    
    37   18   19 1    
    38   18   67 1    
    39   18  143 1    
    40   19   20 am   BACKBONE|DICT|INTERRES
    41   19  144 1    
    42   20   21 2    
    43   20   22 1    
    44   22   23 1    
    45   22   24 1    
    46   22  145 1    
    47   23  146 1    
    48   23  147 1    
    49   23  148 1    
    50   24   25 am   BACKBONE|DICT|INTERRES
    51   24  149 1    
    52   25   26 2    
    53   25   27 1    
    54   27   28 1    
    55   27   29 1    
    56   27  150 1    
    57   28  151 1    
    58   28  152 1    
    59   28  153 1    
    60   29   30 am   BACKBONE|DICT|INTERRES
    61   29  154 1    
    62   30   31 2    
    63   30   32 1    
    64   32   33 1    
    65   32   34 1    
    66   32  155 1    
    67   33  156 1    
    68   33  157 1    
    69   33  158 1    
    70   34   35 am   BACKBONE|DICT|INTERRES
    71   34  159 1    
    72   35   36 2    
    73   35   37 1    
    74   37   38 1    
    75   37   39 1    
    76   37  160 1    
    77   38  161 1    
    78   38  162 1    
    79   38  163 1    
    80   39   40 am   BACKBONE|DICT|INTERRES
    81   39  164 1    
    82   40   41 2    
    83   40   42 1    
    84   42   43 1    
    85   42   44 1    
    86   42  165 1    
    87   43  166 1    
    88   43  167 1    
    89   43  168 1    
    90   44   45 am   BACKBONE|DICT|INTERRES
    91   44  169 1    
    92   45   46 2    
    93   45   47 1    
    94   47   48 1    
    95   47   49 1    
    96   47  170 1    
    97   48  171 1    
    98   48  172 1    
    99   48  173 1    
   100   49   50 am   BACKBONE|DICT|INTERRES
   101   49  174 1    
   102   50   51 2    
   103   50   52 1    
   104   52   53 1    
   105   52   54 1    
   106   52  175 1    
   107   53  176 1    
   108   53  177 1    
   109   53  178 1    
   110   54   55 am   BACKBONE|DICT|INTERRES
   111   54  179 1    
   112   55   56 2    
   113   55   57 1    
   114   57   58 1    
   115   57   59 1    
   116   57  180 1    
   117   58  181 1    
   118   58  182 1    
   119   58  183 1    
   120   59   60 am   BACKBONE|DICT|INTERRES
   121   59  184 1    
   122   60   61 2    
   123   60   62 1    
   124   62   63 1    
   125   62   64 1    
   126   62  185 1    
   127   63  186 1    
   128   63  187 1    
   129   63  188 1    
   130   64   65 am   BACKBONE|DICT|INTERRES
   131   64  189 1    
   132   65   66 2    
   133   67   68 2    
   134   67   69 am   BACKBONE|DICT|INTERRES
   135   69   70 1    
   136   69  190 1    
   137   70   71 1    
   138   70   72 1    
   139   70  191 1    
   140   71  192 1    
   141   71  193 1    
   142   71  194 1    
   143   72   73 2    
   144   72   74 am   BACKBONE|DICT|INTERRES
   145   74   75 1    
   146   74  195 1    
   147   75   76 1    
   148   75   77 1    
   149   75  196 1    
   150   76  197 1    
   151   76  198 1    
   152   76  199 1    
   153   77   78 2    
   154   77   79 am   BACKBONE|DICT|INTERRES
   155   79   80 1    
   156   79  200 1    
   157   80   81 1    
   158   80   82 1    
   159   80  201 1    
   160   81  202 1    
   161   81  203 1    
   162   81  204 1    
   163   82   83 2    
   164   82   84 am   BACKBONE|DICT|INTERRES
   165   84   85 1    
   166   84  205 1    
   167   85   86 1    
   168   85   87 1    
   169   85  206 1    
   170   86  207 1    
   171   86  208 1    
   172   86  209 1    
   173   87   88 2    
   174   87   89 am   BACKBONE|DICT|INTERRES
   175   89   90 1    
   176   89  210 1    
   177   90   91 1    
   178   90   92 1    
   179   90  211 1    
   180   91  212 1    
   181   91  213 1    
   182   91  214 1    
   183   92   93 2    
   184   92   94 am   BACKBONE|DICT|INTERRES
   185   94   95 1    
   186   94  215 1    
   187   95   96 1    
   188   95   97 1    
   189   95  216 1    
   190   96  217 1    
   191   96  218 1    
   192   96  219 1    
   193   97   98 2    
   194   97   99 am   BACKBONE|DICT|INTERRES
   195   99  100 1    
   196   99  220 1    
   197  100  101 1    
   198  100  102 1    
   199  100  221 1    
   200  101  222 1    
   201  101  223 1    
   202  101  224 1    
   203  102  103 2    
   204  102  104 am   BACKBONE|DICT|INTERRES
   205  104  105 1    
   206  104  225 1    
   207  105  106 1    
   208  105  107 1    
   209  105  226 1    
   210  106  227 1    
   211  106  228 1    
   212  106  229 1    
   213  107  108 2    
   214  107  109 am   BACKBONE|DICT|INTERRES
   215  109  110 1    
   216  109  230 1    
   217  110  111 1    
   218  110  112 1    
   219  110  231 1    
   220  111  232 1    
   221  111  233 1    
   222  111  234 1    
   223  112  113 2    
   224  112  114 am   BACKBONE|DICT|INTERRES
   225  114  115 1    
   226  114  235 1    
   227  115  116 1    
   228  115  117 1    
   229  115  236 1    
   230  116  237 1    
   231  116  238 1    
   232  116  239 1    
   233  117  118 2    
   234  117  119 am   BACKBONE|DICT|INTERRES
   235  119  120 1    
   236  119  240 1    
   237  120  121 1    
   238  120  124 1    
   239  120  241 1    
   240  121  122 am   BACKBONE|DICT|INTERRES
   241  121  123 2    
   242  122  242 1    
   243  122  243 1    
   244  124  125 1    
   245  124  244 1    
   246  124  245 1    
   247  125  126 1    
   248  126  246 1    
   249  126  247 1    
@<TRIPOS>SUBSTRUCTURE
     1 UNK         1 GROUP             0       ****    0 ROOT    
