@<TRIPOS>MOLECULE
3R540
247   249    1
SMALL
USER_CHARGES


@<TRIPOS>ATOM
      1 CA          2.1541  -13.2123  -48.0109 C.3       0 UNK        -0.1800 
      2 C           1.8379  -14.6938  -47.8247 C.2       0 UNK         0.5000 
      3 O           0.6909  -15.0389  -47.5566 O.2       0 UNK        -0.5000 
      4 N           2.8037  -15.6099  -47.9660 N.am      1 UNK        -0.5000 
      5 CA          4.2022  -15.3713  -48.3553 C.3       1 UNK         0.1400 
      6 C6          4.8062  -16.6019  -49.0765 C.3       23 UNK        -0.0398 
      7 S7          3.8819  -17.0198  -50.5929 S.3       23 UNK        -0.2404 
      8 C8          2.8205  -18.3774  -50.0067 C.3       23 UNK        -0.0205 
      9 C9          1.5147  -18.4118  -50.7807 C.ar      23 UNK        -0.0193 
     10 C10         1.4525  -19.0551  -52.0186 C.ar      23 UNK        -0.1150 
     11 C11         0.2575  -19.1090  -52.7411 C.ar      23 UNK        -0.0193 
     12 C12        -0.8869  -18.5057  -52.1998 C.ar      23 UNK        -0.1150 
     13 C13        -0.8358  -17.8463  -50.9678 C.ar      23 UNK        -0.0193 
     14 C14         0.3691  -17.8020  -50.2620 C.ar      23 UNK        -0.1150 
     15 C15        -2.0795  -17.1642  -50.4155 C.3       23 UNK        -0.0205 
     16 S16        -3.1823  -18.3308  -49.5563 S.3       23 UNK        -0.2404 
     17 C17        -2.3364  -18.5565  -47.9542 C.3       23 UNK        -0.0398 
     18 CA         -1.4829  -19.8445  -47.9007 C.3       11 UNK         0.1400 
     19 N          -0.4559  -19.7641  -46.8602 N.am      11 UNK        -0.5000 
     20 C           0.6020  -20.5818  -46.7788 C.2       10 UNK         0.5000 
     21 O           0.8268  -21.4877  -47.5789 O.2       10 UNK        -0.5000 
     22 CA          1.5307  -20.3963  -45.5661 C.3       10 UNK         0.1400 
     23 CB          2.4195  -19.1520  -45.7300 C.3       10 UNK        -0.1800 
     24 N           0.7829  -20.3148  -44.3117 N.am      10 UNK        -0.5000 
     25 C           0.0067  -21.2927  -43.8228 C.2       9 UNK         0.5000 
     26 O          -0.1203  -22.3961  -44.3541 O.2       9 UNK        -0.5000 
     27 CA         -0.7996  -20.9665  -42.5536 C.3       9 UNK         0.1400 
     28 CB          0.0481  -21.1819  -41.2906 C.3       9 UNK        -0.1800 
     29 N          -1.3276  -19.6017  -42.5692 N.am      9 UNK        -0.5000 
     30 C          -2.3059  -19.1770  -43.3814 C.2       8 UNK         0.5000 
     31 O          -2.8795  -19.8970  -44.1967 O.2       8 UNK        -0.5000 
     32 CA         -2.6718  -17.6840  -43.3038 C.3       8 UNK         0.1400 
     33 CB         -3.5701  -17.4037  -42.0900 C.3       8 UNK        -0.1800 
     34 N          -1.4941  -16.8192  -43.2473 N.am      8 UNK        -0.5000 
     35 C          -0.5773  -16.7229  -44.2200 C.2       7 UNK         0.5000 
     36 O          -0.6421  -17.3362  -45.2855 O.2       7 UNK        -0.5000 
     37 CA          0.6435  -15.8347  -43.9206 C.3       7 UNK         0.1400 
     38 CB          0.3058  -14.3593  -44.1825 C.3       7 UNK        -0.1800 
     39 N           1.1509  -15.9641  -42.5517 N.am      7 UNK        -0.5000 
     40 C           1.5010  -17.0981  -41.9287 C.2       6 UNK         0.5000 
     41 O           1.4164  -18.2092  -42.4492 O.2       6 UNK        -0.5000 
     42 CA          2.0229  -16.9871  -40.4848 C.3       6 UNK         0.1400 
     43 CB          3.5516  -17.1325  -40.4559 C.3       6 UNK        -0.1800 
     44 N           1.6672  -15.7129  -39.8573 N.am      6 UNK        -0.5000 
     45 C           0.7684  -15.5517  -38.8782 C.2       5 UNK         0.5000 
     46 O           0.1078  -16.4740  -38.3989 O.2       5 UNK        -0.5000 
     47 CA          0.5781  -14.1235  -38.3238 C.3       5 UNK         0.1400 
     48 CB          1.4373  -13.9223  -37.0661 C.3       5 UNK        -0.1800 
     49 N           0.8980  -13.0667  -39.2867 N.am      5 UNK        -0.5000 
     50 C           0.1499  -12.7612  -40.3548 C.2       4 UNK         0.5000 
     51 O          -0.9136  -13.3208  -40.6233 O.2       4 UNK        -0.5000 
     52 CA          0.6855  -11.6653  -41.3020 C.3       4 UNK         0.1400 
     53 CB          0.1419  -10.2913  -40.8812 C.3       4 UNK        -0.1800 
     54 N           2.1468  -11.5737  -41.4502 N.am      4 UNK        -0.5000 
     55 C           2.9836  -12.5869  -41.7103 C.2       3 UNK         0.5000 
     56 O           2.6581  -13.7727  -41.6487 O.2       3 UNK        -0.5000 
     57 CA          4.4344  -12.2251  -42.0851 C.3       3 UNK         0.1400 
     58 CB          5.2739  -12.0108  -40.8167 C.3       3 UNK        -0.1800 
     59 N           5.0562  -13.2819  -42.8903 N.am      3 UNK        -0.5000 
     60 C           4.6366  -13.6601  -44.1060 C.2       2 UNK         0.5000 
     61 O           3.7931  -13.0371  -44.7566 O.2       2 UNK        -0.5000 
     62 CA          5.2456  -14.9624  -44.6652 C.3       2 UNK         0.1400 
     63 CB          5.0374  -16.1424  -43.6996 C.3       2 UNK        -0.1800 
     64 N           4.6253  -15.3179  -45.9390 N.am      2 UNK        -0.5000 
     65 C           5.0799  -14.9750  -47.1492 C.2       1 UNK         0.5000 
     66 O           6.1357  -14.3700  -47.3394 O.2       1 UNK        -0.5000 
     67 C          -2.3451  -21.1214  -47.7818 C.2       11 UNK         0.5000 
     68 O          -2.7292  -21.6865  -48.8077 O.2       11 UNK        -0.5000 
     69 N          -2.6153  -21.5877  -46.5524 N.am      12 UNK        -0.5000 
     70 CA         -3.2860  -22.8641  -46.2851 C.3       12 UNK         0.1400 
     71 CB         -3.5933  -23.0138  -44.7888 C.3       12 UNK        -0.1800 
     72 C          -2.4872  -24.0697  -46.8089 C.2       12 UNK         0.5000 
     73 O          -3.0721  -24.9621  -47.4217 O.2       12 UNK        -0.5000 
     74 N          -1.1657  -24.0542  -46.5974 N.am      13 UNK        -0.5000 
     75 CA         -0.2457  -25.0665  -47.1089 C.3       13 UNK         0.1400 
     76 CB          1.1073  -24.9324  -46.3928 C.3       13 UNK        -0.1800 
     77 C          -0.0683  -24.9906  -48.6372 C.2       13 UNK         0.5000 
     78 O          -0.1067  -26.0256  -49.3036 O.2       13 UNK        -0.5000 
     79 N           0.1444  -23.7762  -49.1605 N.am      14 UNK        -0.5000 
     80 CA          0.5120  -23.5432  -50.5562 C.3       14 UNK         0.1400 
     81 CB          1.2142  -22.1830  -50.6712 C.3       14 UNK        -0.1800 
     82 C          -0.6623  -23.6084  -51.5468 C.2       14 UNK         0.5000 
     83 O          -0.4541  -24.0446  -52.6801 O.2       14 UNK        -0.5000 
     84 N          -1.8495  -23.1384  -51.1410 N.am      15 UNK        -0.5000 
     85 CA         -2.9622  -22.8800  -52.0579 C.3       15 UNK         0.1400 
     86 CB         -2.8938  -21.4121  -52.5085 C.3       15 UNK        -0.1800 
     87 C          -4.3416  -23.2027  -51.4692 C.2       15 UNK         0.5000 
     88 O          -5.3407  -22.7948  -52.0642 O.2       15 UNK        -0.5000 
     89 N          -4.3970  -23.8901  -50.3191 N.am      16 UNK        -0.5000 
     90 CA         -5.6218  -24.2179  -49.5756 C.3       16 UNK         0.1400 
     91 CB         -6.4803  -25.2325  -50.3616 C.3       16 UNK        -0.1800 
     92 C          -6.4100  -22.9576  -49.1538 C.2       16 UNK         0.5000 
     93 O          -7.6381  -22.9412  -49.2292 O.2       16 UNK        -0.5000 
     94 N          -5.6732  -21.9084  -48.7562 N.am      17 UNK        -0.5000 
     95 CA         -6.1557  -20.5627  -48.4250 C.3       17 UNK         0.1400 
     96 CB         -7.0909  -20.5798  -47.1984 C.3       17 UNK        -0.1800 
     97 C          -6.7559  -19.8617  -49.6607 C.2       17 UNK         0.5000 
     98 O          -7.8248  -19.2549  -49.5847 O.2       17 UNK        -0.5000 
     99 N          -6.0393  -20.0015  -50.7850 N.am      18 UNK        -0.5000 
    100 CA        -6.3216  -19.4986  -52.1325 C.3       18 UNK         0.1400 
    101 CB        -6.5111  -17.9685  -52.1416 C.3       18 UNK        -0.1800 
    102 C         -7.4571  -20.2361  -52.8710 C.2       18 UNK         0.5000 
    103 O         -7.7347  -19.8932  -54.0207 O.2       18 UNK        -0.5000 
    104 N         -8.0625  -21.2597  -52.2511 N.am      19 UNK        -0.5000 
    105 CA        -9.1309  -22.0726  -52.8382 C.3       19 UNK         0.1400 
    106 CB        -9.7719  -22.9437  -51.7488 C.3       19 UNK        -0.1800 
    107 C         -8.6599  -22.9453  -54.0176 C.2       19 UNK         0.5000 
    108 O         -9.4493  -23.2017  -54.9275 O.2       19 UNK        -0.5000 
    109 N         -7.3865  -23.3641  -53.9991 N.am      20 UNK        -0.5000 
    110 CA        -6.7458  -24.1141  -55.0825 C.3       20 UNK         0.1400 
    111 CB        -5.7167  -25.0857  -54.4813 C.3       20 UNK        -0.1800 
    112 C         -6.0778  -23.1919  -56.1225 C.2       20 UNK         0.5000 
    113 O         -5.5239  -23.6979  -57.0998 O.2       20 UNK        -0.5000 
    114 N         -6.1036  -21.8686  -55.8879 N.am      21 UNK        -0.5000 
    115 CA        -5.5616  -20.7975  -56.7367 C.3       21 UNK         0.1400 
    116 CB        -6.4325  -20.6347  -57.9991 C.3       21 UNK        -0.1800 
    117 C         -4.0592  -20.9570  -57.0652 C.2       21 UNK         0.5000 
    118 O         -3.6207  -20.5772  -58.1523 O.2       21 UNK        -0.5000 
    119 N         -3.3103  -21.5409  -56.1196 N.am      22 UNK        -0.5000 
    120 CA        -1.8907  -21.9243  -56.2327 C.3       22 UNK         0.1400 
    121 C         -1.6190  -23.1066  -57.2156 C.2       22 UNK         0.5000 
    122 N         -2.6231  -23.8495  -57.6687 N.am      22 UNK        -0.7600 
    123 O         -0.4709  -23.3818  -57.5537 O.2       22 UNK        -0.5000 
    124 C124       -0.9319  -20.7205  -56.4739 C.3       23 UNK        -0.0398 
    125 S125       -1.0999  -19.4069  -55.2174 S.3       23 UNK        -0.2404 
    126 C126        0.2492  -19.8611  -54.0733 C.3       23 UNK        -0.0205 
    127 H127        3.0244  -12.9139  -47.4278 H         1 UNK         0.0600 
    128 H128        1.3138  -12.6006  -47.6820 H         1 UNK         0.0600 
    129 H129        2.3404  -12.9910  -49.0616 H         1 UNK         0.0600 
    130 H130        2.5508  -16.5785  -47.8532 H         1 UNK         0.3000 
    131 H131        4.2347  -14.5365  -49.0580 H         1 UNK         0.0600 
    132 H132        5.8375  -16.3993  -49.3716 H         1 UNK         0.0800 
    133 H133        4.8467  -17.4691  -48.4148 H         1 UNK         0.0800 
    134 H134        2.6098  -18.2709  -48.9427 H         1 UNK         0.0800 
    135 H135        3.3494  -19.3252  -50.1182 H         1 UNK         0.0800 
    136 H136        2.3416  -19.5238  -52.4169 H         1 UNK         0.1150 
    137 H137       -1.8280  -18.5445  -52.7283 H         1 UNK         0.1150 
    138 H138        0.4133  -17.2929  -49.3093 H         1 UNK         0.1150 
    139 H139       -1.8071  -16.3456  -49.7473 H         1 UNK         0.0800 
    140 H140       -2.6328  -16.7079  -51.2375 H         1 UNK         0.0800 
    141 H141       -3.0766  -18.5449  -47.1521 H         1 UNK         0.0800 
    142 H142       -1.7055  -17.6837  -47.7800 H         1 UNK         0.0800 
    143 H143       -0.9486  -19.9254  -48.8495 H         1 UNK         0.0600 
    144 H144       -0.5589  -19.0203  -46.1737 H         1 UNK         0.3000 
    145 H145        2.1805  -21.2719  -45.5063 H         1 UNK         0.0600 
    146 H146        3.0802  -19.0229  -44.8724 H         1 UNK         0.0600 
    147 H147        3.0496  -19.2400  -46.6156 H         1 UNK         0.0600 
    148 H148        1.8297  -18.2421  -45.8358 H         1 UNK         0.0600 
    149 H149        0.8725  -19.4564  -43.7743 H         1 UNK         0.3000 
    150 H150       -1.6458  -21.6545  -42.5086 H         1 UNK         0.0600 
    151 H151        0.4099  -22.2095  -41.2377 H         1 UNK         0.0600 
    152 H152       -0.5344  -20.9961  -40.3882 H         1 UNK         0.0600 
    153 H153        0.9201  -20.5281  -41.2676 H         1 UNK         0.0600 
    154 H154       -0.8536  -18.9275  -41.9864 H         1 UNK         0.3000 
    155 H155       -3.2299  -17.4318  -44.2080 H         1 UNK         0.0600 
    156 H156       -3.0541  -17.6029  -41.1499 H         1 UNK         0.0600 
    157 H157       -4.4637  -18.0288  -42.1137 H         1 UNK         0.0600 
    158 H158       -3.9015  -16.3652  -42.0768 H         1 UNK         0.0600 
    159 H159       -1.3544  -16.2851  -42.4019 H         1 UNK         0.3000 
    160 H160        1.4441  -16.1307  -44.6003 H         1 UNK         0.0600 
    161 H161       -0.4240  -13.9825  -43.4655 H         1 UNK         0.0600 
    162 H162       -0.1163  -14.2200  -45.1777 H         1 UNK         0.0600 
    163 H163        1.1954  -13.7334  -44.1184 H         1 UNK         0.0600 
    164 H164        1.3654  -15.0925  -42.0791 H         1 UNK         0.3000 
    165 H165        1.5941  -17.8226  -39.9279 H         1 UNK         0.0600 
    166 H166        3.9167  -17.2080  -39.4316 H         1 UNK         0.0600 
    167 H167        3.8759  -18.0302  -40.9841 H         1 UNK         0.0600 
    168 H168        4.0425  -16.2770  -40.9196 H         1 UNK         0.0600 
    169 H169        2.1268  -14.8907  -40.2388 H         1 UNK         0.3000 
    170 H170       -0.4709  -14.0199  -38.0384 H         1 UNK         0.0600 
    171 H171        1.2072  -14.6748  -36.3106 H         1 UNK         0.0600 
    172 H172        2.5022  -13.9971  -37.2902 H         1 UNK         0.0600 
    173 H173        1.2557  -12.9462  -36.6158 H         1 UNK         0.0600 
    174 H174        1.7639  -12.5669  -39.1479 H         1 UNK         0.3000 
    175 H175        0.2885  -11.8891  -42.2937 H         1 UNK         0.0600 
    176 H176        0.5498   -9.9764  -39.9199 H         1 UNK         0.0600 
    177 H177        0.3868   -9.5259  -41.6178 H         1 UNK         0.0600 
    178 H178       -0.9448  -10.3107  -40.7864 H         1 UNK         0.0600 
    179 H179        2.5180  -10.6352  -41.4855 H         1 UNK         0.3000 
    180 H180        4.4269  -11.3039  -42.6712 H         1 UNK         0.0600 
    181 H181        5.3079  -12.9101  -40.2000 H         1 UNK         0.0600 
    182 H182        4.8622  -11.2081  -40.2037 H         1 UNK         0.0600 
    183 H183        6.2990  -11.7343  -41.0641 H         1 UNK         0.0600 
    184 H184        5.7378  -13.8540  -42.4151 H         1 UNK         0.3000 
    185 H185        6.3176  -14.8059  -44.8009 H         1 UNK         0.0600 
    186 H186        5.5774  -15.9926  -42.7647 H         1 UNK         0.0600 
    187 H187        3.9834  -16.2801  -43.4581 H         1 UNK         0.0600 
    188 H188        5.4034  -17.0744  -44.1309 H         1 UNK         0.0600 
    189 H189        3.7134  -15.7449  -45.8848 H         1 UNK         0.3000 
    190 H190       -2.3447  -21.0408  -45.7413 H         1 UNK         0.3000 
    191 H191       -4.2427  -22.8578  -46.8036 H         1 UNK         0.0600 
    192 H192       -2.6869  -23.0128  -44.1859 H         1 UNK         0.0600 
    193 H193       -4.1142  -23.9515  -44.5913 H         1 UNK         0.0600 
    194 H194       -4.2364  -22.2081  -44.4355 H         1 UNK         0.0600 
    195 H195       -0.7636  -23.3044  -46.0432 H         1 UNK         0.3000 
    196 H196       -0.6549  -26.0504  -46.8696 H         1 UNK         0.0600 
    197 H197        1.8126  -25.6864  -46.7444 H         1 UNK         0.0600 
    198 H198        0.9969  -25.0655  -45.3165 H         1 UNK         0.0600 
    199 H199        1.5593  -23.9543  -46.5614 H         1 UNK         0.0600 
    200 H200        0.2123  -22.9755  -48.5361 H         1 UNK         0.3000 
    201 H201        1.2316  -24.3098  -50.8520 H         1 UNK         0.0600 
    202 H202        2.0978  -22.1366  -50.0347 H         1 UNK         0.0600 
    203 H203        0.5514  -21.3655  -50.3843 H         1 UNK         0.0600 
    204 H204        1.5417  -21.9983  -51.6949 H         1 UNK         0.0600 
    205 H205       -1.9480  -22.7585  -50.2031 H         1 UNK         0.3000 
    206 H206       -2.8737  -23.5133  -52.9424 H         1 UNK         0.0600 
    207 H207       -1.9335  -21.1980  -52.9681 H         1 UNK         0.0600 
    208 H208       -3.6595  -21.1791  -53.2475 H         1 UNK         0.0600 
    209 H209       -3.0182  -20.7281  -51.6683 H         1 UNK         0.0600 
    210 H210       -3.5302  -24.1848  -49.8907 H         1 UNK         0.3000 
    211 H211       -5.3145  -24.7039  -48.6506 H         1 UNK         0.0600 
    212 H212       -6.8769  -24.8067  -51.2831 H         1 UNK         0.0600 
    213 H213       -7.3300  -25.5693  -49.7668 H         1 UNK         0.0600 
    214 H214       -5.8999  -26.1163  -50.6258 H         1 UNK         0.0600 
    215 H215       -4.6624  -22.0079  -48.7850 H         1 UNK         0.3000 
    216 H216       -5.2751  -19.9843  -48.1449 H         1 UNK         0.0600 
    217 H217       -7.3283  -19.5645  -46.8789 H         1 UNK         0.0600 
    218 H218       -6.6215  -21.0841  -46.3536 H         1 UNK         0.0600 
    219 H219       -8.0352  -21.0822  -47.4087 H         1 UNK         0.0600 
    220 H220       -5.2052  -20.5664  -50.7202 H         1 UNK         0.3000 
    221 H221       -5.4209  -19.7062  -52.7097 H         1 UNK         0.0600 
    222 H222       -7.4396  -17.6692  -51.6553 H         1 UNK         0.0600 
    223 H223       -5.6869  -17.4664  -51.6345 H         1 UNK         0.0600 
    224 H224       -6.5435  -17.5860  -53.1623 H         1 UNK         0.0600 
    225 H225       -7.7554  -21.5131  -51.3219 H         1 UNK         0.3000 
    226 H226       -9.8952  -21.3910  -53.2174 H         1 UNK         0.0600 
    227 H227      -10.1155  -22.3401  -50.9084 H         1 UNK         0.0600 
    228 H228      -10.6365  -23.4817  -52.1393 H         1 UNK         0.0600 
    229 H229       -9.0726  -23.6865  -51.3651 H         1 UNK         0.0600 
    230 H230       -6.7892  -23.1060  -53.2158 H         1 UNK         0.3000 
    231 H231       -7.4958  -24.7085  -55.6082 H         1 UNK         0.0600 
    232 H232       -6.1583  -25.6960  -53.6934 H         1 UNK         0.0600 
    233 H233       -4.8609  -24.5594  -54.0614 H         1 UNK         0.0600 
    234 H234       -5.3344  -25.7663  -55.2430 H         1 UNK         0.0600 
    235 H235       -6.6058  -21.5520  -55.0686 H         1 UNK         0.3000 
    236 H236       -5.6463  -19.8773  -56.1569 H         1 UNK         0.0600 
    237 H237       -6.3592  -21.5035  -58.6541 H         1 UNK         0.0600 
    238 H238       -7.4820  -20.4993  -57.7375 H         1 UNK         0.0600 
    239 H239       -6.1292  -19.7609  -58.5770 H         1 UNK         0.0600 
    240 H240       -3.7747  -21.8313  -55.2736 H         1 UNK         0.3000 
    241 H241       -1.6340  -22.3360  -55.2560 H         1 UNK         0.0600 
    242 H242       -2.4224  -24.6137  -58.2937 H         1 UNK         0.3800 
    243 H243       -3.5874  -23.6556  -57.4173 H         1 UNK         0.3800 
    244 H244       -1.1100  -20.2796  -57.4551 H         1 UNK         0.0800 
    245 H245        0.1074  -21.0527  -56.4868 H         1 UNK         0.0800 
    246 H246        1.1961  -19.6931  -54.5889 H         1 UNK         0.0800 
    247 H247        0.1993  -20.9300  -53.8618 H         1 UNK         0.0800 
@<TRIPOS>BOND
     1    1    2 1    
     2    1  127 1    
     3    1  128 1    
     4    1  129 1    
     5    2    3 2    
     6    2    4 am   BACKBONE|DICT|INTERRES
     7    4    5 1    
     8    4  130 1    
     9    5    6 1    
    10    5   65 1    
    11    5  131 1    
    12    6    7 1    
    13    6  132 1    
    14    6  133 1    
    15    7    8 1    
    16    8    9 1    
    17    8  134 1    
    18    8  135 1    
    19    9   10 ar   
    20    9   14 ar   
    21   10   11 ar   
    22   10  136 1    
    23   11   12 ar   
    24   11  126 1    
    25   12   13 ar   
    26   12  137 1    
    27   13   14 ar   
    28   13   15 1    
    29   14  138 1    
    30   15   16 1    
    31   15  139 1    
    32   15  140 1    
    33   16   17 1    
    34   17   18 1    
    35   17  141 1    
    36   17  142 1    
    37   18   19 1    
    38   18   67 1    
    39   18  143 1    
    40   19   20 am   BACKBONE|DICT|INTERRES
    41   19  144 1    
    42   20   21 2    
    43   20   22 1    
    44   22   23 1    
    45   22   24 1    
    46   22  145 1    
    47   23  146 1    
    48   23  147 1    
    49   23  148 1    
    50   24   25 am   BACKBONE|DICT|INTERRES
    51   24  149 1    
    52   25   26 2    
    53   25   27 1    
    54   27   28 1    
    55   27   29 1    
    56   27  150 1    
    57   28  151 1    
    58   28  152 1    
    59   28  153 1    
    60   29   30 am   BACKBONE|DICT|INTERRES
    61   29  154 1    
    62   30   31 2    
    63   30   32 1    
    64   32   33 1    
    65   32   34 1    
    66   32  155 1    
    67   33  156 1    
    68   33  157 1    
    69   33  158 1    
    70   34   35 am   BACKBONE|DICT|INTERRES
    71   34  159 1    
    72   35   36 2    
    73   35   37 1    
    74   37   38 1    
    75   37   39 1    
    76   37  160 1    
    77   38  161 1    
    78   38  162 1    
    79   38  163 1    
    80   39   40 am   BACKBONE|DICT|INTERRES
    81   39  164 1    
    82   40   41 2    
    83   40   42 1    
    84   42   43 1    
    85   42   44 1    
    86   42  165 1    
    87   43  166 1    
    88   43  167 1    
    89   43  168 1    
    90   44   45 am   BACKBONE|DICT|INTERRES
    91   44  169 1    
    92   45   46 2    
    93   45   47 1    
    94   47   48 1    
    95   47   49 1    
    96   47  170 1    
    97   48  171 1    
    98   48  172 1    
    99   48  173 1    
   100   49   50 am   BACKBONE|DICT|INTERRES
   101   49  174 1    
   102   50   51 2    
   103   50   52 1    
   104   52   53 1    
   105   52   54 1    
   106   52  175 1    
   107   53  176 1    
   108   53  177 1    
   109   53  178 1    
   110   54   55 am   BACKBONE|DICT|INTERRES
   111   54  179 1    
   112   55   56 2    
   113   55   57 1    
   114   57   58 1    
   115   57   59 1    
   116   57  180 1    
   117   58  181 1    
   118   58  182 1    
   119   58  183 1    
   120   59   60 am   BACKBONE|DICT|INTERRES
   121   59  184 1    
   122   60   61 2    
   123   60   62 1    
   124   62   63 1    
   125   62   64 1    
   126   62  185 1    
   127   63  186 1    
   128   63  187 1    
   129   63  188 1    
   130   64   65 am   BACKBONE|DICT|INTERRES
   131   64  189 1    
   132   65   66 2    
   133   67   68 2    
   134   67   69 am   BACKBONE|DICT|INTERRES
   135   69   70 1    
   136   69  190 1    
   137   70   71 1    
   138   70   72 1    
   139   70  191 1    
   140   71  192 1    
   141   71  193 1    
   142   71  194 1    
   143   72   73 2    
   144   72   74 am   BACKBONE|DICT|INTERRES
   145   74   75 1    
   146   74  195 1    
   147   75   76 1    
   148   75   77 1    
   149   75  196 1    
   150   76  197 1    
   151   76  198 1    
   152   76  199 1    
   153   77   78 2    
   154   77   79 am   BACKBONE|DICT|INTERRES
   155   79   80 1    
   156   79  200 1    
   157   80   81 1    
   158   80   82 1    
   159   80  201 1    
   160   81  202 1    
   161   81  203 1    
   162   81  204 1    
   163   82   83 2    
   164   82   84 am   BACKBONE|DICT|INTERRES
   165   84   85 1    
   166   84  205 1    
   167   85   86 1    
   168   85   87 1    
   169   85  206 1    
   170   86  207 1    
   171   86  208 1    
   172   86  209 1    
   173   87   88 2    
   174   87   89 am   BACKBONE|DICT|INTERRES
   175   89   90 1    
   176   89  210 1    
   177   90   91 1    
   178   90   92 1    
   179   90  211 1    
   180   91  212 1    
   181   91  213 1    
   182   91  214 1    
   183   92   93 2    
   184   92   94 am   BACKBONE|DICT|INTERRES
   185   94   95 1    
   186   94  215 1    
   187   95   96 1    
   188   95   97 1    
   189   95  216 1    
   190   96  217 1    
   191   96  218 1    
   192   96  219 1    
   193   97   98 2    
   194   97   99 am   BACKBONE|DICT|INTERRES
   195   99  100 1    
   196   99  220 1    
   197  100  101 1    
   198  100  102 1    
   199  100  221 1    
   200  101  222 1    
   201  101  223 1    
   202  101  224 1    
   203  102  103 2    
   204  102  104 am   BACKBONE|DICT|INTERRES
   205  104  105 1    
   206  104  225 1    
   207  105  106 1    
   208  105  107 1    
   209  105  226 1    
   210  106  227 1    
   211  106  228 1    
   212  106  229 1    
   213  107  108 2    
   214  107  109 am   BACKBONE|DICT|INTERRES
   215  109  110 1    
   216  109  230 1    
   217  110  111 1    
   218  110  112 1    
   219  110  231 1    
   220  111  232 1    
   221  111  233 1    
   222  111  234 1    
   223  112  113 2    
   224  112  114 am   BACKBONE|DICT|INTERRES
   225  114  115 1    
   226  114  235 1    
   227  115  116 1    
   228  115  117 1    
   229  115  236 1    
   230  116  237 1    
   231  116  238 1    
   232  116  239 1    
   233  117  118 2    
   234  117  119 am   BACKBONE|DICT|INTERRES
   235  119  120 1    
   236  119  240 1    
   237  120  121 1    
   238  120  124 1    
   239  120  241 1    
   240  121  122 am   BACKBONE|DICT|INTERRES
   241  121  123 2    
   242  122  242 1    
   243  122  243 1    
   244  124  125 1    
   245  124  244 1    
   246  124  245 1    
   247  125  126 1    
   248  126  246 1    
   249  126  247 1    
@<TRIPOS>SUBSTRUCTURE
     1 UNK         1 GROUP             0       ****    0 ROOT    
