@<TRIPOS>MOLECULE
3R540
247   249    1
SMALL
USER_CHARGES


@<TRIPOS>ATOM
      1 CA          4.8089  -18.3459  -46.7738 C.3       0 UNK        -0.1800 
      2 C           3.5993  -17.7302  -47.4609 C.2       0 UNK         0.5000 
      3 O           3.7017  -17.3211  -48.6175 O.2       0 UNK        -0.5000 
      4 N           2.4635  -17.6691  -46.7518 N.am      1 UNK        -0.5000 
      5 CA          1.1939  -17.0759  -47.1945 C.3       1 UNK         0.1400 
      6 C6          0.5448  -17.8604  -48.3720 C.3       23 UNK        -0.0398 
      7 S7         -0.2438  -19.3970  -47.7954 S.3       23 UNK        -0.2404 
      8 C8         -1.9590  -18.8203  -47.6000 C.3       23 UNK        -0.0205 
      9 C9         -2.8863  -19.9761  -47.2797 C.ar      23 UNK        -0.0193 
     10 C10        -3.5918  -20.6122  -48.3044 C.ar      23 UNK        -0.1150 
     11 C11        -4.4046  -21.7147  -48.0259 C.ar      23 UNK        -0.0193 
     12 C12        -4.5093  -22.1725  -46.7093 C.ar      23 UNK        -0.1150 
     13 C13        -3.8129  -21.5392  -45.6751 C.ar      23 UNK        -0.0193 
     14 C14        -3.0147  -20.4300  -45.9650 C.ar      23 UNK        -0.1150 
     15 C15        -3.9061  -22.0799  -44.2568 C.3       23 UNK        -0.0205 
     16 S16        -3.0459  -23.6787  -44.1041 S.3       23 UNK        -0.2404 
     17 C17        -1.3788  -23.1932  -43.5292 C.3       23 UNK        -0.0398 
     18 CA         -0.3933  -22.6123  -44.5802 C.3       11 UNK         0.1400 
     19 N           0.9482  -22.5028  -44.0053 N.am      11 UNK        -0.5000 
     20 C           1.9904  -21.8907  -44.5787 C.2       10 UNK         0.5000 
     21 O           1.9157  -21.2391  -45.6207 O.2       10 UNK        -0.5000 
     22 CA          3.3193  -22.0205  -43.8223 C.3       10 UNK         0.1400 
     23 CB          4.5329  -21.5109  -44.6164 C.3       10 UNK        -0.1800 
     24 N           3.2081  -21.2721  -42.5775 N.am      10 UNK        -0.5000 
     25 C           3.6177  -21.6960  -41.3776 C.2       9 UNK         0.5000 
     26 O           4.1572  -22.7858  -41.1814 O.2       9 UNK        -0.5000 
     27 CA          3.3752  -20.7474  -40.1898 C.3       9 UNK         0.1400 
     28 CB          4.5183  -19.7276  -40.0730 C.3       9 UNK        -0.1800 
     29 N           2.1040  -20.0283  -40.2702 N.am      9 UNK        -0.5000 
     30 C           0.8891  -20.5881  -40.1813 C.2       8 UNK         0.5000 
     31 O           0.6955  -21.7965  -40.0462 O.2       8 UNK        -0.5000 
     32 CA         -0.3100  -19.6310  -40.2726 C.3       8 UNK         0.1400 
     33 CB         -0.5254  -18.8858  -38.9452 C.3       8 UNK        -0.1800 
     34 N          -0.1116  -18.6654  -41.3528 N.am      8 UNK        -0.5000 
     35 C          -0.5368  -18.8566  -42.6073 C.2       7 UNK         0.5000 
     36 O          -1.2287  -19.8144  -42.9462 O.2       7 UNK        -0.5000 
     37 CA         -0.1374  -17.8186  -43.6730 C.3       7 UNK         0.1400 
     38 CB         -1.3160  -16.8813  -43.9805 C.3       7 UNK        -0.1800 
     39 N           1.0313  -17.0082  -43.3210 N.am      7 UNK        -0.5000 
     40 C           2.2896  -17.4600  -43.2613 C.2       6 UNK         0.5000 
     41 O           2.6114  -18.6070  -43.5638 O.2       6 UNK        -0.5000 
     42 CA          3.3635  -16.4854  -42.7379 C.3       6 UNK         0.1400 
     43 CB          3.9389  -15.6344  -43.8794 C.3       6 UNK        -0.1800 
     44 N           2.9046  -15.6028  -41.6593 N.am      6 UNK        -0.5000 
     45 C           2.3768  -16.0077  -40.4950 C.2       5 UNK         0.5000 
     46 O           2.1636  -17.1896  -40.2297 O.2       5 UNK        -0.5000 
     47 CA          2.0140  -14.9358  -39.4479 C.3       5 UNK         0.1400 
     48 CB          2.8247  -15.1586  -38.1615 C.3       5 UNK        -0.1800 
     49 N           2.2486  -13.5646  -39.9104 N.am      5 UNK        -0.5000 
     50 C           1.4409  -12.7863  -40.6438 C.2       4 UNK         0.5000 
     51 O           1.7850  -11.6477  -40.9637 O.2       4 UNK        -0.5000 
     52 CA          0.0463  -13.2942  -41.0804 C.3       4 UNK         0.1400 
     53 CB         -1.0194  -12.9149  -40.0406 C.3       4 UNK        -0.1800 
     54 N          -0.3146  -12.6981  -42.3656 N.am      4 UNK        -0.5000 
     55 C           0.1531  -13.1305  -43.5408 C.2       3 UNK         0.5000 
     56 O           0.7705  -14.1890  -43.6792 O.2       3 UNK        -0.5000 
     57 CA         -0.0792  -12.2110  -44.7466 C.3       3 UNK         0.1400 
     58 CB          0.8606  -10.9913  -44.6888 C.3       3 UNK        -0.1800 
     59 N           0.1540  -12.9569  -45.9791 N.am      3 UNK        -0.5000 
     60 C          -0.3025  -12.6205  -47.1891 C.2       2 UNK         0.5000 
     61 O          -0.9791  -11.6123  -47.3968 O.2       2 UNK        -0.5000 
     62 CA          0.0023  -13.5622  -48.3721 C.3       2 UNK         0.1400 
     63 CB          1.1406  -13.0118  -49.2534 C.3       2 UNK        -0.1800 
     64 N           0.2227  -14.9714  -48.0144 N.am      2 UNK        -0.5000 
     65 C           1.2800  -15.5441  -47.4181 C.2       1 UNK         0.5000 
     66 O           2.2407  -14.9039  -46.9870 O.2       1 UNK        -0.5000 
     67 C          -0.3491  -23.4030  -45.9087 C.2       11 UNK         0.5000 
     68 O           0.3067  -24.4453  -45.9813 O.2       11 UNK        -0.5000 
     69 N          -1.0448  -22.8726  -46.9226 N.am      12 UNK        -0.5000 
     70 CA         -1.1848  -23.3877  -48.2858 C.3       12 UNK         0.1400 
     71 CB         -1.8969  -24.7556  -48.2969 C.3       12 UNK        -0.1800 
     72 C           0.1179  -23.3661  -49.1101 C.2       12 UNK         0.5000 
     73 O           0.2554  -24.1437  -50.0557 O.2       12 UNK        -0.5000 
     74 N           1.0444  -22.4641  -48.7601 N.am      13 UNK        -0.5000 
     75 CA          2.3055  -22.2671  -49.4722 C.3       13 UNK         0.1400 
     76 CB          3.2869  -21.5151  -48.5631 C.3       13 UNK        -0.1800 
     77 C           2.1394  -21.5204  -50.8080 C.2       13 UNK         0.5000 
     78 O           2.8674  -21.8220  -51.7548 O.2       13 UNK        -0.5000 
     79 N           1.2091  -20.5580  -50.8632 N.am      14 UNK        -0.5000 
     80 CA          0.9823  -19.6682  -52.0008 C.3       14 UNK         0.1400 
     81 CB          2.1718  -18.6916  -52.1718 C.3       14 UNK        -0.1800 
     82 C          -0.3637  -18.9405  -51.8279 C.2       14 UNK         0.5000 
     83 O          -1.2461  -19.4410  -51.1246 O.2       14 UNK        -0.5000 
     84 N          -0.4978  -17.7737  -52.4766 N.am      15 UNK        -0.5000 
     85 CA         -1.6655  -16.8883  -52.4941 C.3       15 UNK         0.1400 
     86 CB         -1.8393  -16.1902  -51.1277 C.3       15 UNK        -0.1800 
     87 C          -2.9155  -17.6381  -52.9888 C.2       15 UNK         0.5000 
     88 O          -2.9264  -18.0751  -54.1405 O.2       15 UNK        -0.5000 
     89 N          -3.9135  -17.8275  -52.1146 N.am      16 UNK        -0.5000 
     90 CA         -5.1536  -18.5584  -52.3837 C.3       16 UNK         0.1400 
     91 CB         -6.0327  -18.5466  -51.1247 C.3       16 UNK        -0.1800 
     92 C          -4.9389  -20.0052  -52.8629 C.2       16 UNK         0.5000 
     93 O          -5.7388  -20.4929  -53.6620 O.2       16 UNK        -0.5000 
     94 N          -3.8561  -20.6536  -52.4066 N.am      17 UNK        -0.5000 
     95 CA         -3.4767  -22.0081  -52.8160 C.3       17 UNK         0.1400 
     96 CB         -2.3693  -22.5313  -51.8914 C.3       17 UNK        -0.1800 
     97 C          -3.0236  -22.0923  -54.2844 C.2       17 UNK         0.5000 
     98 O          -3.1913  -23.1409  -54.9059 O.2       17 UNK        -0.5000 
     99 N          -2.4720  -20.9928  -54.8117 N.am      18 UNK        -0.5000 
    100 CA        -2.0485  -20.8718  -56.2034 C.3       18 UNK         0.1400 
    101 CB        -0.7853  -19.9977  -56.2687 C.3       18 UNK        -0.1800 
    102 C         -3.1693  -20.2763  -57.0704 C.2       18 UNK         0.5000 
    103 O         -3.4055  -20.7604  -58.1775 O.2       18 UNK        -0.5000 
    104 N         -3.8289  -19.2300  -56.5566 N.am      19 UNK        -0.5000 
    105 CA        -4.8142  -18.4332  -57.2834 C.3       19 UNK         0.1400 
    106 CB        -4.9929  -17.0868  -56.5647 C.3       19 UNK        -0.1800 
    107 C         -6.1767  -19.1241  -57.4605 C.2       19 UNK         0.5000 
    108 O         -6.8098  -18.9296  -58.4993 O.2       19 UNK        -0.5000 
    109 N         -6.6222  -19.8794  -56.4475 N.am      20 UNK        -0.5000 
    110 CA        -7.9869  -20.4094  -56.3704 C.3       20 UNK         0.1400 
    111 CB        -8.8271  -19.4593  -55.4958 C.3       20 UNK        -0.1800 
    112 C         -8.0513  -21.8518  -55.8403 C.2       20 UNK         0.5000 
    113 O         -9.1507  -22.3322  -55.5592 O.2       20 UNK        -0.5000 
    114 N         -6.8938  -22.5084  -55.6607 N.am      21 UNK        -0.5000 
    115 CA        -6.7285  -23.8340  -55.0418 C.3       21 UNK         0.1400 
    116 CB        -7.2778  -24.9371  -55.9698 C.3       21 UNK        -0.1800 
    117 C         -7.3099  -23.9100  -53.6093 C.2       21 UNK         0.5000 
    118 O         -7.8042  -24.9580  -53.1907 O.2       21 UNK        -0.5000 
    119 N         -7.2576  -22.7763  -52.8979 N.am      22 UNK        -0.5000 
    120 CA        -7.8858  -22.5160  -51.5946 C.3       22 UNK         0.1400 
    121 C         -9.4434  -22.4111  -51.6204 C.2       22 UNK         0.5000 
    122 N        -10.0959  -22.3534  -52.7759 N.am      22 UNK        -0.7600 
    123 O        -10.0797  -22.3493  -50.5722 O.2       22 UNK        -0.5000 
    124 C124       -7.3500  -23.4461  -50.4663 C.3       23 UNK        -0.0398 
    125 S125       -6.9064  -22.5188  -48.9579 S.3       23 UNK        -0.2404 
    126 C126       -5.1006  -22.4572  -49.1563 C.3       23 UNK        -0.0205 
    127 H127        5.7045  -17.7646  -46.9930 H         1 UNK         0.0600 
    128 H128        4.9659  -19.3647  -47.1273 H         1 UNK         0.0600 
    129 H129        4.6832  -18.3697  -45.6922 H         1 UNK         0.0600 
    130 H130        2.4540  -18.0624  -45.8195 H         1 UNK         0.3000 
    131 H131        0.5235  -17.1555  -46.3435 H         1 UNK         0.0600 
    132 H132        1.2865  -18.1183  -49.1264 H         1 UNK         0.0800 
    133 H133       -0.2086  -17.2885  -48.9082 H         1 UNK         0.0800 
    134 H134       -2.0084  -18.0696  -46.8104 H         1 UNK         0.0800 
    135 H135       -2.2903  -18.3338  -48.5173 H         1 UNK         0.0800 
    136 H136       -3.4772  -20.2682  -49.3229 H         1 UNK         0.1150 
    137 H137       -5.1164  -23.0403  -46.4919 H         1 UNK         0.1150 
    138 H138       -2.4694  -19.9355  -45.1747 H         1 UNK         0.1150 
    139 H139       -3.5090  -21.3654  -43.5339 H         1 UNK         0.0800 
    140 H140       -4.9572  -22.2208  -44.0015 H         1 UNK         0.0800 
    141 H141       -0.9426  -24.0910  -43.0885 H         1 UNK         0.0800 
    142 H142       -1.4890  -22.4908  -42.7018 H         1 UNK         0.0800 
    143 H143       -0.7146  -21.5965  -44.8125 H         1 UNK         0.0600 
    144 H144        1.1043  -23.0005  -43.1413 H         1 UNK         0.3000 
    145 H145        3.4680  -23.0835  -43.6208 H         1 UNK         0.0600 
    146 H146        5.4582  -21.6601  -44.0602 H         1 UNK         0.0600 
    147 H147        4.4418  -20.4486  -44.8326 H         1 UNK         0.0600 
    148 H148        4.6332  -22.0386  -45.5646 H         1 UNK         0.0600 
    149 H149        2.7941  -20.3484  -42.6694 H         1 UNK         0.3000 
    150 H150        3.3611  -21.3506  -39.2797 H         1 UNK         0.0600 
    151 H151        5.4814  -20.2293  -39.9709 H         1 UNK         0.0600 
    152 H152        4.3893  -19.0880  -39.1995 H         1 UNK         0.0600 
    153 H153        4.5733  -19.0852  -40.9522 H         1 UNK         0.0600 
    154 H154        2.1642  -19.0154  -40.3396 H         1 UNK         0.3000 
    155 H155       -1.2043  -20.2285  -40.4630 H         1 UNK         0.0600 
    156 H156       -0.7128  -19.5889  -38.1328 H         1 UNK         0.0600 
    157 H157       -1.3869  -18.2206  -39.0041 H         1 UNK         0.0600 
    158 H158        0.3406  -18.2867  -38.6637 H         1 UNK         0.0600 
    159 H159        0.5018  -17.8850  -41.1531 H         1 UNK         0.3000 
    160 H160        0.0971  -18.3920  -44.5711 H         1 UNK         0.0600 
    161 H161       -1.5843  -16.2801  -43.1108 H         1 UNK         0.0600 
    162 H162       -2.2014  -17.4462  -44.2753 H         1 UNK         0.0600 
    163 H163       -1.0803  -16.1974  -44.7956 H         1 UNK         0.0600 
    164 H164        0.8734  -16.0166  -43.1607 H         1 UNK         0.3000 
    165 H165        4.1751  -17.0919  -42.3321 H         1 UNK         0.0600 
    166 H166        4.7568  -15.0049  -43.5290 H         1 UNK         0.0600 
    167 H167        4.3357  -16.2609  -44.6770 H         1 UNK         0.0600 
    168 H168        3.1842  -14.9854  -44.3231 H         1 UNK         0.0600 
    169 H169        3.0336  -14.6127  -41.8074 H         1 UNK         0.3000 
    170 H170        0.9613  -15.0674  -39.1944 H         1 UNK         0.0600 
    171 H171        3.8969  -15.0643  -38.3387 H         1 UNK         0.0600 
    172 H172        2.5472  -14.4392  -37.3908 H         1 UNK         0.0600 
    173 H173        2.6468  -16.1537  -37.7508 H         1 UNK         0.0600 
    174 H174        3.1427  -13.1789  -39.6435 H         1 UNK         0.3000 
    175 H175        0.0498  -14.3786  -41.1952 H         1 UNK         0.0600 
    176 H176       -1.0798  -11.8348  -39.9009 H         1 UNK         0.0600 
    177 H177       -2.0057  -13.2695  -40.3407 H         1 UNK         0.0600 
    178 H178       -0.7977  -13.3577  -39.0690 H         1 UNK         0.0600 
    179 H179       -0.7736  -11.7998  -42.3241 H         1 UNK         0.3000 
    180 H180       -1.1185  -11.8769  -44.7207 H         1 UNK         0.0600 
    181 H181        0.6774  -10.3061  -45.5164 H         1 UNK         0.0600 
    182 H182        1.9079  -11.2934  -44.7307 H         1 UNK         0.0600 
    183 H183        0.7198  -10.4254  -43.7671 H         1 UNK         0.0600 
    184 H184        0.7236  -13.7895  -45.8738 H         1 UNK         0.3000 
    185 H185       -0.8996  -13.5656  -48.9864 H         1 UNK         0.0600 
    186 H186        0.8914  -12.0203  -49.6331 H         1 UNK         0.0600 
    187 H187        2.0767  -12.9195  -48.7024 H         1 UNK         0.0600 
    188 H188        1.3186  -13.6545  -50.1157 H         1 UNK         0.0600 
    189 H189       -0.5541  -15.5699  -48.2525 H         1 UNK         0.3000 
    190 H190       -1.5519  -22.0142  -46.7483 H         1 UNK         0.3000 
    191 H191       -1.8411  -22.6806  -48.7858 H         1 UNK         0.0600 
    192 H192       -1.2675  -25.5432  -47.8823 H         1 UNK         0.0600 
    193 H193       -2.1632  -25.0498  -49.3126 H         1 UNK         0.0600 
    194 H194       -2.8198  -24.7229  -47.7175 H         1 UNK         0.0600 
    195 H195        0.8731  -21.8673  -47.9608 H         1 UNK         0.3000 
    196 H196        2.7365  -23.2462  -49.6922 H         1 UNK         0.0600 
    197 H197        3.5220  -22.1021  -47.6764 H         1 UNK         0.0600 
    198 H198        2.8756  -20.5602  -48.2346 H         1 UNK         0.0600 
    199 H199        4.2274  -21.3116  -49.0767 H         1 UNK         0.0600 
    200 H200        0.5908  -20.4096  -50.0749 H         1 UNK         0.3000 
    201 H201        0.8944  -20.2806  -52.9003 H         1 UNK         0.0600 
    202 H202        3.1217  -19.2188  -52.2540 H         1 UNK         0.0600 
    203 H203        2.2529  -18.0038  -51.3294 H         1 UNK         0.0600 
    204 H204        2.0767  -18.0963  -53.0802 H         1 UNK         0.0600 
    205 H205        0.2754  -17.4669  -53.0492 H         1 UNK         0.3000 
    206 H206       -1.4609  -16.1155  -53.2364 H         1 UNK         0.0600 
    207 H207       -0.9345  -15.6479  -50.8532 H         1 UNK         0.0600 
    208 H208       -2.6507  -15.4620  -51.1597 H         1 UNK         0.0600 
    209 H209       -2.0582  -16.8971  -50.3295 H         1 UNK         0.0600 
    210 H210       -3.8043  -17.4578  -51.1822 H         1 UNK         0.3000 
    211 H211       -5.6829  -18.0275  -53.1772 H         1 UNK         0.0600 
    212 H212       -6.2566  -17.5278  -50.8084 H         1 UNK         0.0600 
    213 H213       -5.5521  -19.0597  -50.2906 H         1 UNK         0.0600 
    214 H214       -6.9863  -19.0430  -51.3092 H         1 UNK         0.0600 
    215 H215       -3.2091  -20.1642  -51.7986 H         1 UNK         0.3000 
    216 H216       -4.3487  -22.6542  -52.6987 H         1 UNK         0.0600 
    217 H217       -2.6742  -22.4791  -50.8497 H         1 UNK         0.0600 
    218 H218       -1.4451  -21.9633  -51.9995 H         1 UNK         0.0600 
    219 H219       -2.1370  -23.5744  -52.1095 H         1 UNK         0.0600 
    220 H220       -2.4318  -20.1503  -54.2523 H         1 UNK         0.3000 
    221 H221       -1.7952  -21.8551  -56.6057 H         1 UNK         0.0600 
    222 H222       -0.9625  -18.9952  -55.8771 H         1 UNK         0.0600 
    223 H223        0.0285  -20.4408  -55.6945 H         1 UNK         0.0600 
    224 H224       -0.4376  -19.8917  -57.2970 H         1 UNK         0.0600 
    225 H225       -3.5420  -18.8689  -55.6494 H         1 UNK         0.3000 
    226 H226       -4.4165  -18.2299  -58.2801 H         1 UNK         0.0600 
    227 H227       -4.0482  -16.5466  -56.4991 H         1 UNK         0.0600 
    228 H228       -5.6969  -16.4474  -57.0989 H         1 UNK         0.0600 
    229 H229       -5.3726  -17.2192  -55.5511 H         1 UNK         0.0600 
    230 H230       -6.0576  -19.9801  -55.6105 H         1 UNK         0.3000 
    231 H231       -8.4363  -20.4463  -57.3646 H         1 UNK         0.0600 
    232 H232       -9.8682  -19.7806  -55.4445 H         1 UNK         0.0600 
    233 H233       -8.8241  -18.4462  -55.8980 H         1 UNK         0.0600 
    234 H234       -8.4449  -19.4156  -54.4749 H         1 UNK         0.0600 
    235 H235       -6.0400  -22.0328  -55.9135 H         1 UNK         0.3000 
    236 H236       -5.6567  -23.9986  -54.9394 H         1 UNK         0.0600 
    237 H237       -8.3620  -24.8797  -56.0710 H         1 UNK         0.0600 
    238 H238       -6.8434  -24.8648  -56.9669 H         1 UNK         0.0600 
    239 H239       -7.0376  -25.9286  -55.5844 H         1 UNK         0.0600 
    240 H240       -6.8181  -21.9671  -53.3297 H         1 UNK         0.3000 
    241 H241       -7.5642  -21.4984  -51.3718 H         1 UNK         0.0600 
    242 H242       -9.6137  -22.4050  -53.6677 H         1 UNK         0.3800 
    243 H243      -11.1003  -22.2758  -52.7651 H         1 UNK         0.3800 
    244 H244       -6.4690  -23.9945  -50.8018 H         1 UNK         0.0800 
    245 H245       -8.0759  -24.2186  -50.2066 H         1 UNK         0.0800 
    246 H246       -4.8823  -21.9861  -50.1144 H         1 UNK         0.0800 
    247 H247       -4.7036  -23.4720  -49.2056 H         1 UNK         0.0800 
@<TRIPOS>BOND
     1    1    2 1    
     2    1  127 1    
     3    1  128 1    
     4    1  129 1    
     5    2    3 2    
     6    2    4 am   BACKBONE|DICT|INTERRES
     7    4    5 1    
     8    4  130 1    
     9    5    6 1    
    10    5   65 1    
    11    5  131 1    
    12    6    7 1    
    13    6  132 1    
    14    6  133 1    
    15    7    8 1    
    16    8    9 1    
    17    8  134 1    
    18    8  135 1    
    19    9   10 ar   
    20    9   14 ar   
    21   10   11 ar   
    22   10  136 1    
    23   11   12 ar   
    24   11  126 1    
    25   12   13 ar   
    26   12  137 1    
    27   13   14 ar   
    28   13   15 1    
    29   14  138 1    
    30   15   16 1    
    31   15  139 1    
    32   15  140 1    
    33   16   17 1    
    34   17   18 1    
    35   17  141 1    
    36   17  142 1    
    37   18   19 1    
    38   18   67 1    
    39   18  143 1    
    40   19   20 am   BACKBONE|DICT|INTERRES
    41   19  144 1    
    42   20   21 2    
    43   20   22 1    
    44   22   23 1    
    45   22   24 1    
    46   22  145 1    
    47   23  146 1    
    48   23  147 1    
    49   23  148 1    
    50   24   25 am   BACKBONE|DICT|INTERRES
    51   24  149 1    
    52   25   26 2    
    53   25   27 1    
    54   27   28 1    
    55   27   29 1    
    56   27  150 1    
    57   28  151 1    
    58   28  152 1    
    59   28  153 1    
    60   29   30 am   BACKBONE|DICT|INTERRES
    61   29  154 1    
    62   30   31 2    
    63   30   32 1    
    64   32   33 1    
    65   32   34 1    
    66   32  155 1    
    67   33  156 1    
    68   33  157 1    
    69   33  158 1    
    70   34   35 am   BACKBONE|DICT|INTERRES
    71   34  159 1    
    72   35   36 2    
    73   35   37 1    
    74   37   38 1    
    75   37   39 1    
    76   37  160 1    
    77   38  161 1    
    78   38  162 1    
    79   38  163 1    
    80   39   40 am   BACKBONE|DICT|INTERRES
    81   39  164 1    
    82   40   41 2    
    83   40   42 1    
    84   42   43 1    
    85   42   44 1    
    86   42  165 1    
    87   43  166 1    
    88   43  167 1    
    89   43  168 1    
    90   44   45 am   BACKBONE|DICT|INTERRES
    91   44  169 1    
    92   45   46 2    
    93   45   47 1    
    94   47   48 1    
    95   47   49 1    
    96   47  170 1    
    97   48  171 1    
    98   48  172 1    
    99   48  173 1    
   100   49   50 am   BACKBONE|DICT|INTERRES
   101   49  174 1    
   102   50   51 2    
   103   50   52 1    
   104   52   53 1    
   105   52   54 1    
   106   52  175 1    
   107   53  176 1    
   108   53  177 1    
   109   53  178 1    
   110   54   55 am   BACKBONE|DICT|INTERRES
   111   54  179 1    
   112   55   56 2    
   113   55   57 1    
   114   57   58 1    
   115   57   59 1    
   116   57  180 1    
   117   58  181 1    
   118   58  182 1    
   119   58  183 1    
   120   59   60 am   BACKBONE|DICT|INTERRES
   121   59  184 1    
   122   60   61 2    
   123   60   62 1    
   124   62   63 1    
   125   62   64 1    
   126   62  185 1    
   127   63  186 1    
   128   63  187 1    
   129   63  188 1    
   130   64   65 am   BACKBONE|DICT|INTERRES
   131   64  189 1    
   132   65   66 2    
   133   67   68 2    
   134   67   69 am   BACKBONE|DICT|INTERRES
   135   69   70 1    
   136   69  190 1    
   137   70   71 1    
   138   70   72 1    
   139   70  191 1    
   140   71  192 1    
   141   71  193 1    
   142   71  194 1    
   143   72   73 2    
   144   72   74 am   BACKBONE|DICT|INTERRES
   145   74   75 1    
   146   74  195 1    
   147   75   76 1    
   148   75   77 1    
   149   75  196 1    
   150   76  197 1    
   151   76  198 1    
   152   76  199 1    
   153   77   78 2    
   154   77   79 am   BACKBONE|DICT|INTERRES
   155   79   80 1    
   156   79  200 1    
   157   80   81 1    
   158   80   82 1    
   159   80  201 1    
   160   81  202 1    
   161   81  203 1    
   162   81  204 1    
   163   82   83 2    
   164   82   84 am   BACKBONE|DICT|INTERRES
   165   84   85 1    
   166   84  205 1    
   167   85   86 1    
   168   85   87 1    
   169   85  206 1    
   170   86  207 1    
   171   86  208 1    
   172   86  209 1    
   173   87   88 2    
   174   87   89 am   BACKBONE|DICT|INTERRES
   175   89   90 1    
   176   89  210 1    
   177   90   91 1    
   178   90   92 1    
   179   90  211 1    
   180   91  212 1    
   181   91  213 1    
   182   91  214 1    
   183   92   93 2    
   184   92   94 am   BACKBONE|DICT|INTERRES
   185   94   95 1    
   186   94  215 1    
   187   95   96 1    
   188   95   97 1    
   189   95  216 1    
   190   96  217 1    
   191   96  218 1    
   192   96  219 1    
   193   97   98 2    
   194   97   99 am   BACKBONE|DICT|INTERRES
   195   99  100 1    
   196   99  220 1    
   197  100  101 1    
   198  100  102 1    
   199  100  221 1    
   200  101  222 1    
   201  101  223 1    
   202  101  224 1    
   203  102  103 2    
   204  102  104 am   BACKBONE|DICT|INTERRES
   205  104  105 1    
   206  104  225 1    
   207  105  106 1    
   208  105  107 1    
   209  105  226 1    
   210  106  227 1    
   211  106  228 1    
   212  106  229 1    
   213  107  108 2    
   214  107  109 am   BACKBONE|DICT|INTERRES
   215  109  110 1    
   216  109  230 1    
   217  110  111 1    
   218  110  112 1    
   219  110  231 1    
   220  111  232 1    
   221  111  233 1    
   222  111  234 1    
   223  112  113 2    
   224  112  114 am   BACKBONE|DICT|INTERRES
   225  114  115 1    
   226  114  235 1    
   227  115  116 1    
   228  115  117 1    
   229  115  236 1    
   230  116  237 1    
   231  116  238 1    
   232  116  239 1    
   233  117  118 2    
   234  117  119 am   BACKBONE|DICT|INTERRES
   235  119  120 1    
   236  119  240 1    
   237  120  121 1    
   238  120  124 1    
   239  120  241 1    
   240  121  122 am   BACKBONE|DICT|INTERRES
   241  121  123 2    
   242  122  242 1    
   243  122  243 1    
   244  124  125 1    
   245  124  244 1    
   246  124  245 1    
   247  125  126 1    
   248  126  246 1    
   249  126  247 1    
@<TRIPOS>SUBSTRUCTURE
     1 UNK         1 GROUP             0       ****    0 ROOT    
