@<TRIPOS>MOLECULE
3R540
247   249    1
SMALL
USER_CHARGES


@<TRIPOS>ATOM
      1 CA         -3.0570  -13.5222  -47.1864 C.3       0 UNK        -0.1800 
      2 C          -1.7093  -13.1518  -47.7914 C.2       0 UNK         0.5000 
      3 O          -1.6687  -12.5364  -48.8570 O.2       0 UNK        -0.5000 
      4 N          -0.6177  -13.5279  -47.1160 N.am      1 UNK        -0.5000 
      5 CA          0.7653  -13.2767  -47.5347 C.3       1 UNK         0.1400 
      6 C6          1.6237  -14.5668  -47.4546 C.3       23 UNK        -0.0398 
      7 S7          0.9824  -15.9044  -48.5151 S.3       23 UNK        -0.2404 
      8 C8          2.3172  -16.0692  -49.7359 C.3       23 UNK        -0.0205 
      9 C9          2.0527  -17.2445  -50.6605 C.ar      23 UNK        -0.0193 
     10 C10         1.3567  -17.0564  -51.8583 C.ar      23 UNK        -0.1150 
     11 C11         1.0880  -18.1391  -52.7059 C.ar      23 UNK        -0.0193 
     12 C12         1.5516  -19.4082  -52.3440 C.ar      23 UNK        -0.1150 
     13 C13         2.2631  -19.6076  -51.1585 C.ar      23 UNK        -0.0193 
     14 C14         2.5054  -18.5209  -50.3158 C.ar      23 UNK        -0.1150 
     15 C15         2.7914  -20.9924  -50.8126 C.3       23 UNK        -0.0205 
     16 S16         1.4953  -22.0614  -50.1153 S.3       23 UNK        -0.2404 
     17 C17         1.4083  -21.4824  -48.3838 C.3       23 UNK        -0.0398 
     18 CA          1.8132  -22.5658  -47.3521 C.3       11 UNK         0.1400 
     19 N           2.1721  -21.9393  -46.0824 N.am      11 UNK        -0.5000 
     20 C           3.1088  -22.3716  -45.2298 C.2       10 UNK         0.5000 
     21 O           3.8797  -23.3000  -45.4764 O.2       10 UNK        -0.5000 
     22 CA          3.2036  -21.6497  -43.8687 C.3       10 UNK         0.1400 
     23 CB          4.3768  -20.6580  -43.8658 C.3       10 UNK        -0.1800 
     24 N           1.9685  -20.9405  -43.5215 N.am      10 UNK        -0.5000 
     25 C           0.8590  -21.5476  -43.0711 C.2       9 UNK         0.5000 
     26 O           0.8198  -22.7418  -42.7722 O.2       9 UNK        -0.5000 
     27 CA         -0.4274  -20.7036  -42.9303 C.3       9 UNK         0.1400 
     28 CB         -0.7188  -20.4163  -41.4489 C.3       9 UNK        -0.1800 
     29 N          -0.4184  -19.4353  -43.6634 N.am      9 UNK        -0.5000 
     30 C          -0.3076  -19.2979  -44.9920 C.2       8 UNK         0.5000 
     31 O          -0.2300  -20.2459  -45.7703 O.2       8 UNK        -0.5000 
     32 CA         -0.1898  -17.8635  -45.5397 C.3       8 UNK         0.1400 
     33 CB         -1.5681  -17.3168  -45.9329 C.3       8 UNK        -0.1800 
     34 N           0.4713  -16.9365  -44.6136 N.am      8 UNK        -0.5000 
     35 C           1.7427  -17.0671  -44.2019 C.2       7 UNK         0.5000 
     36 O           2.4802  -17.9860  -44.5562 O.2       7 UNK        -0.5000 
     37 CA          2.2712  -16.0238  -43.2048 C.3       7 UNK         0.1400 
     38 CB          2.7498  -14.7565  -43.9250 C.3       7 UNK        -0.1800 
     39 N           1.2610  -15.6765  -42.2078 N.am      7 UNK        -0.5000 
     40 C           1.0211  -16.4048  -41.1089 C.2       6 UNK         0.5000 
     41 O           1.6859  -17.3866  -40.7771 O.2       6 UNK        -0.5000 
     42 CA         -0.1842  -15.9835  -40.2495 C.3       6 UNK         0.1400 
     43 CB          0.2419  -14.9696  -39.1773 C.3       6 UNK        -0.1800 
     44 N          -1.2834  -15.4286  -41.0431 N.am      6 UNK        -0.5000 
     45 C          -2.0212  -16.1423  -41.9068 C.2       5 UNK         0.5000 
     46 O          -1.8343  -17.3360  -42.1373 O.2       5 UNK        -0.5000 
     47 CA         -3.1342  -15.3983  -42.6665 C.3       5 UNK         0.1400 
     48 CB         -4.4564  -15.4760  -41.8894 C.3       5 UNK        -0.1800 
     49 N          -2.8240  -13.9970  -42.9456 N.am      5 UNK        -0.5000 
     50 C          -1.8031  -13.5594  -43.6929 C.2       4 UNK         0.5000 
     51 O          -0.9809  -14.3043  -44.2384 O.2       4 UNK        -0.5000 
     52 CA         -1.6659  -12.0326  -43.8666 C.3       4 UNK         0.1400 
     53 CB         -2.6996  -11.1975  -43.0773 C.3       4 UNK        -0.1800 
     54 N          -0.3060  -11.5873  -43.5665 N.am      4 UNK        -0.5000 
     55 C           0.3565  -11.7380  -42.4097 C.2       3 UNK         0.5000 
     56 O          -0.1315  -12.2669  -41.4097 O.2       3 UNK        -0.5000 
     57 CA          1.8157  -11.2464  -42.3884 C.3       3 UNK         0.1400 
     58 CB          2.6544  -11.9414  -41.2991 C.3       3 UNK        -0.1800 
     59 N           2.4347  -11.4616  -43.6984 N.am      3 UNK        -0.5000 
     60 C           2.9436  -10.5079  -44.4860 C.2       2 UNK         0.5000 
     61 O           3.0365   -9.3239  -44.1607 O.2       2 UNK        -0.5000 
     62 CA          3.4088  -10.9459  -45.8906 C.3       2 UNK         0.1400 
     63 CB          4.9002  -11.3145  -45.8625 C.3       2 UNK        -0.1800 
     64 N           2.6580  -12.0600  -46.4898 N.am      2 UNK        -0.5000 
     65 C           1.3370  -12.0808  -46.7317 C.2       1 UNK         0.5000 
     66 O           0.5790  -11.1836  -46.3545 O.2       1 UNK        -0.5000 
     67 C           0.6735  -23.5821  -47.1103 C.2       11 UNK         0.5000 
     68 O           0.0508  -23.5885  -46.0445 O.2       11 UNK        -0.5000 
     69 N           0.3804  -24.4072  -48.1219 N.am      12 UNK        -0.5000 
     70 CA         -0.7098  -25.3862  -48.1420 C.3       12 UNK         0.1400 
     71 CB         -0.3872  -26.4549  -49.2017 C.3       12 UNK        -0.1800 
     72 C          -2.0935  -24.7296  -48.3585 C.2       12 UNK         0.5000 
     73 O          -2.8501  -25.1500  -49.2332 O.2       12 UNK        -0.5000 
     74 N          -2.4096  -23.7140  -47.5446 N.am      13 UNK        -0.5000 
     75 CA         -3.6355  -22.9108  -47.5984 C.3       13 UNK         0.1400 
     76 CB         -3.4855  -21.7269  -46.6298 C.3       13 UNK        -0.1800 
     77 C          -4.9240  -23.6994  -47.2883 C.2       13 UNK         0.5000 
     78 O          -6.0094  -23.2622  -47.6703 O.2       13 UNK        -0.5000 
     79 N          -4.7843  -24.8428  -46.6032 N.am      14 UNK        -0.5000 
     80 CA         -5.8656  -25.7879  -46.3207 C.3       14 UNK         0.1400 
     81 CB         -5.4296  -26.7035  -45.1661 C.3       14 UNK        -0.1800 
     82 C          -6.2745  -26.6274  -47.5494 C.2       14 UNK         0.5000 
     83 O          -7.3741  -27.1830  -47.5566 O.2       14 UNK        -0.5000 
     84 N          -5.3927  -26.7143  -48.5533 N.am      15 UNK        -0.5000 
     85 CA         -5.6328  -27.3713  -49.8348 C.3       15 UNK         0.1400 
     86 CB         -4.3612  -28.1478  -50.2243 C.3       15 UNK        -0.1800 
     87 C          -5.9865  -26.3224  -50.9047 C.2       15 UNK         0.5000 
     88 O          -5.9694  -25.1215  -50.6327 O.2       15 UNK        -0.5000 
     89 N          -6.2786  -26.7939  -52.1231 N.am      16 UNK        -0.5000 
     90 CA         -6.5068  -25.9509  -53.3022 C.3       16 UNK         0.1400 
     91 CB         -7.3305  -26.7484  -54.3253 C.3       16 UNK        -0.1800 
     92 C          -5.1996  -25.4372  -53.9451 C.2       16 UNK         0.5000 
     93 O          -5.2613  -24.5796  -54.8279 O.2       16 UNK        -0.5000 
     94 N          -4.0519  -25.9742  -53.5055 N.am      17 UNK        -0.5000 
     95 CA         -2.6987  -25.6995  -53.9914 C.3       17 UNK         0.1400 
     96 CB         -1.6989  -26.4401  -53.0909 C.3       17 UNK        -0.1800 
     97 C          -2.3529  -24.2000  -54.0497 C.2       17 UNK         0.5000 
     98 O          -2.5810  -23.4812  -53.0745 O.2       17 UNK        -0.5000 
     99 N          -1.8161  -23.7667  -55.1997 N.am      18 UNK        -0.5000 
    100 CA        -1.4220  -22.3900  -55.5238 C.3       18 UNK         0.1400 
    101 CB        -0.1790  -21.9820  -54.7058 C.3       18 UNK        -0.1800 
    102 C         -2.5862  -21.3852  -55.3860 C.2       18 UNK         0.5000 
    103 O         -2.3995  -20.3008  -54.8346 O.2       18 UNK        -0.5000 
    104 N         -3.7786  -21.7885  -55.8528 N.am      19 UNK        -0.5000 
    105 CA        -5.0573  -21.0773  -55.7201 C.3       19 UNK         0.1400 
    106 CB        -5.0499  -19.7683  -56.5383 C.3       19 UNK        -0.1800 
    107 C         -5.4399  -20.8647  -54.2403 C.2       19 UNK         0.5000 
    108 O         -5.7882  -19.7538  -53.8373 O.2       19 UNK        -0.5000 
    109 N         -5.3139  -21.9446  -53.4569 N.am      20 UNK        -0.5000 
    110 CA        -5.4682  -22.0173  -52.0010 C.3       20 UNK         0.1400 
    111 CB        -6.9529  -21.8849  -51.6065 C.3       20 UNK        -0.1800 
    112 C         -4.5456  -21.0265  -51.2627 C.2       20 UNK         0.5000 
    113 O         -5.0071  -20.2611  -50.4147 O.2       20 UNK        -0.5000 
    114 N         -3.2583  -21.0566  -51.6368 N.am      21 UNK        -0.5000 
    115 CA        -2.1845  -20.1602  -51.2035 C.3       21 UNK         0.1400 
    116 CB        -1.8447  -20.3964  -49.7204 C.3       21 UNK        -0.1800 
    117 C         -2.4885  -18.6804  -51.5159 C.2       21 UNK         0.5000 
    118 O         -2.5070  -17.8467  -50.6080 O.2       21 UNK        -0.5000 
    119 N         -2.7158  -18.3877  -52.8040 N.am      22 UNK        -0.5000 
    120 CA        -2.9552  -17.0417  -53.3501 C.3       22 UNK         0.1400 
    121 C         -4.2881  -16.4026  -52.8457 C.2       22 UNK         0.5000 
    122 N         -5.3653  -17.1670  -52.7195 N.am      22 UNK        -0.7600 
    123 O         -4.3691  -15.2050  -52.5842 O.2       22 UNK        -0.5000 
    124 C124       -1.7102  -16.1125  -53.1932 C.3       23 UNK        -0.0398 
    125 S125       -0.3969  -16.3826  -54.4383 S.3       23 UNK        -0.2404 
    126 C126        0.3316  -18.0104  -54.0297 C.3       23 UNK        -0.0205 
    127 H127       -3.5477  -12.6346  -46.7872 H         1 UNK         0.0600 
    128 H128       -2.9552  -14.2512  -46.3827 H         1 UNK         0.0600 
    129 H129       -3.7034  -13.9564  -47.9492 H         1 UNK         0.0600 
    130 H130       -0.7216  -13.9829  -46.2158 H         1 UNK         0.3000 
    131 H131        0.7812  -12.9537  -48.5775 H         1 UNK         0.0600 
    132 H132        2.6608  -14.3752  -47.7312 H         1 UNK         0.0800 
    133 H133        1.6368  -14.9501  -46.4376 H         1 UNK         0.0800 
    134 H134        2.4039  -15.1452  -50.3098 H         1 UNK         0.0800 
    135 H135        3.2700  -16.2102  -49.2229 H         1 UNK         0.0800 
    136 H136        1.0284  -16.0609  -52.1158 H         1 UNK         0.1150 
    137 H137        1.3672  -20.2510  -52.9940 H         1 UNK         0.1150 
    138 H138        3.0511  -18.6641  -49.3939 H         1 UNK         0.1150 
    139 H139        3.1799  -21.4627  -51.7172 H         1 UNK         0.0800 
    140 H140        3.6336  -20.9286  -50.1218 H         1 UNK         0.0800 
    141 H141        0.4051  -21.1115  -48.1787 H         1 UNK         0.0800 
    142 H142        2.0604  -20.6150  -48.2784 H         1 UNK         0.0800 
    143 H143        2.6790  -23.1098  -47.7357 H         1 UNK         0.0600 
    144 H144        1.5119  -21.2406  -45.7579 H         1 UNK         0.3000 
    145 H145        3.4002  -22.4049  -43.1048 H         1 UNK         0.0600 
    146 H146        4.4427  -20.1230  -42.9182 H         1 UNK         0.0600 
    147 H147        4.2831  -19.9206  -44.6635 H         1 UNK         0.0600 
    148 H148        5.3242  -21.1776  -44.0135 H         1 UNK         0.0600 
    149 H149        1.9366  -19.9526  -43.7446 H         1 UNK         0.3000 
    150 H150       -1.2462  -21.3053  -43.3298 H         1 UNK         0.0600 
    151 H151       -0.7327  -21.3364  -40.8633 H         1 UNK         0.0600 
    152 H152       -1.6917  -19.9411  -41.3236 H         1 UNK         0.0600 
    153 H153        0.0347  -19.7591  -41.0131 H         1 UNK         0.0600 
    154 H154       -0.5519  -18.5976  -43.1069 H         1 UNK         0.3000 
    155 H155        0.4222  -17.9171  -46.4416 H         1 UNK         0.0600 
    156 H156       -2.0265  -17.9409  -46.7014 H         1 UNK         0.0600 
    157 H157       -1.4935  -16.3081  -46.3379 H         1 UNK         0.0600 
    158 H158       -2.2468  -17.2955  -45.0819 H         1 UNK         0.0600 
    159 H159       -0.0735  -16.1426  -44.2970 H         1 UNK         0.3000 
    160 H160        3.1378  -16.4627  -42.7051 H         1 UNK         0.0600 
    161 H161        1.9105  -14.1643  -44.2878 H         1 UNK         0.0600 
    162 H162        3.3861  -15.0034  -44.7761 H         1 UNK         0.0600 
    163 H163        3.3483  -14.1375  -43.2586 H         1 UNK         0.0600 
    164 H164        0.6392  -14.9091  -42.4202 H         1 UNK         0.3000 
    165 H165       -0.5554  -16.8767  -39.7423 H         1 UNK         0.0600 
    166 H166       -0.5980  -14.6890  -38.5416 H         1 UNK         0.0600 
    167 H167        1.0129  -15.3898  -38.5302 H         1 UNK         0.0600 
    168 H168        0.6485  -14.0597  -39.6189 H         1 UNK         0.0600 
    169 H169       -1.4666  -14.4395  -40.9412 H         1 UNK         0.3000 
    170 H170       -3.2777  -15.8998  -43.6239 H         1 UNK         0.0600 
    171 H171       -4.3911  -14.9607  -40.9303 H         1 UNK         0.0600 
    172 H172       -5.2744  -15.0306  -42.4559 H         1 UNK         0.0600 
    173 H173       -4.7301  -16.5126  -41.6873 H         1 UNK         0.0600 
    174 H174       -3.4369  -13.3120  -42.5279 H         1 UNK         0.3000 
    175 H175       -1.8248  -11.8318  -44.9262 H         1 UNK         0.0600 
    176 H176       -2.6288  -11.3601  -42.0011 H         1 UNK         0.0600 
    177 H177       -2.5530  -10.1323  -43.2569 H         1 UNK         0.0600 
    178 H178       -3.7188  -11.4320  -43.3870 H         1 UNK         0.0600 
    179 H179        0.1907  -11.1905  -44.3575 H         1 UNK         0.3000 
    180 H180        1.7777  -10.1808  -42.1549 H         1 UNK         0.0600 
    181 H181        3.7005  -11.6399  -41.3523 H         1 UNK         0.0600 
    182 H182        2.6110  -13.0272  -41.3803 H         1 UNK         0.0600 
    183 H183        2.2921  -11.6782  -40.3047 H         1 UNK         0.0600 
    184 H184        2.3916  -12.4015  -44.0627 H         1 UNK         0.3000 
    185 H185        3.2856  -10.0842  -46.5499 H         1 UNK         0.0600 
    186 H186        5.2786  -11.5106  -46.8658 H         1 UNK         0.0600 
    187 H187        5.4972  -10.5016  -45.4464 H         1 UNK         0.0600 
    188 H188        5.0836  -12.2008  -45.2536 H         1 UNK         0.0600 
    189 H189        3.2242  -12.8207  -46.8341 H         1 UNK         0.3000 
    190 H190        0.8904  -24.2981  -48.9879 H         1 UNK         0.3000 
    191 H191       -0.7466  -25.8863  -47.1720 H         1 UNK         0.0600 
    192 H192        0.5527  -26.9596  -48.9776 H         1 UNK         0.0600 
    193 H193       -0.3023  -26.0178  -50.1967 H         1 UNK         0.0600 
    194 H194       -1.1624  -27.2214  -49.2406 H         1 UNK         0.0600 
    195 H195       -1.7226  -23.4525  -46.8431 H         1 UNK         0.3000 
    196 H196       -3.7324  -22.5200  -48.6130 H         1 UNK         0.0600 
    197 H197       -2.6013  -21.1338  -46.8620 H         1 UNK         0.0600 
    198 H198       -3.3971  -22.0621  -45.5956 H         1 UNK         0.0600 
    199 H199       -4.3473  -21.0610  -46.6895 H         1 UNK         0.0600 
    200 H200       -3.8566  -25.1121  -46.3113 H         1 UNK         0.3000 
    201 H201       -6.7445  -25.2257  -45.9981 H         1 UNK         0.0600 
    202 H202       -5.1968  -26.1266  -44.2708 H         1 UNK         0.0600 
    203 H203       -4.5479  -27.2898  -45.4281 H         1 UNK         0.0600 
    204 H204       -6.2229  -27.4042  -44.9020 H         1 UNK         0.0600 
    205 H205       -4.5589  -26.1386  -48.5196 H         1 UNK         0.3000 
    206 H206       -6.4638  -28.0751  -49.7553 H         1 UNK         0.0600 
    207 H207       -3.5195  -27.4799  -50.4103 H         1 UNK         0.0600 
    208 H208       -4.0670  -28.8397  -49.4349 H         1 UNK         0.0600 
    209 H209       -4.5161  -28.7403  -51.1263 H         1 UNK         0.0600 
    210 H210       -6.2953  -27.7924  -52.2754 H         1 UNK         0.3000 
    211 H211       -7.0892  -25.0754  -53.0072 H         1 UNK         0.0600 
    212 H212       -6.7980  -27.6370  -54.6668 H         1 UNK         0.0600 
    213 H213       -7.5561  -26.1430  -55.2043 H         1 UNK         0.0600 
    214 H214       -8.2826  -27.0685  -53.9016 H         1 UNK         0.0600 
    215 H215       -4.1181  -26.6431  -52.7547 H         1 UNK         0.3000 
    216 H216       -2.6291  -26.1154  -54.9982 H         1 UNK         0.0600 
    217 H217       -0.6717  -26.2618  -53.4117 H         1 UNK         0.0600 
    218 H218       -1.8648  -27.5173  -53.1143 H         1 UNK         0.0600 
    219 H219       -1.7827  -26.1101  -52.0547 H         1 UNK         0.0600 
    220 H220       -1.6786  -24.4376  -55.9429 H         1 UNK         0.3000 
    221 H221       -1.1397  -22.3859  -56.5774 H         1 UNK         0.0600 
    222 H222       -0.4008  -21.9063  -53.6409 H         1 UNK         0.0600 
    223 H223        0.6283  -22.7039  -54.8278 H         1 UNK         0.0600 
    224 H224        0.2016  -21.0146  -55.0342 H         1 UNK         0.0600 
    225 H225       -3.8398  -22.7183  -56.2448 H         1 UNK         0.3000 
    226 H226       -5.8216  -21.7296  -56.1450 H         1 UNK         0.0600 
    227 H227       -4.7820  -19.9550  -57.5781 H         1 UNK         0.0600 
    228 H228       -6.0364  -19.3034  -56.5356 H         1 UNK         0.0600 
    229 H229       -4.3465  -19.0383  -56.1365 H         1 UNK         0.0600 
    230 H230       -5.0096  -22.8036  -53.9026 H         1 UNK         0.3000 
    231 H231       -5.1275  -23.0102  -51.7122 H         1 UNK         0.0600 
    232 H232       -7.0833  -22.0434  -50.5352 H         1 UNK         0.0600 
    233 H233       -7.5633  -22.6281  -52.1190 H         1 UNK         0.0600 
    234 H234       -7.3500  -20.8980  -51.8456 H         1 UNK         0.0600 
    235 H235       -2.9896  -21.7661  -52.3148 H         1 UNK         0.3000 
    236 H236       -1.3033  -20.4276  -51.7883 H         1 UNK         0.0600 
    237 H237       -2.6754  -20.1311  -49.0669 H         1 UNK         0.0600 
    238 H238       -1.5870  -21.4392  -49.5361 H         1 UNK         0.0600 
    239 H239       -0.9923  -19.7843  -49.4239 H         1 UNK         0.0600 
    240 H240       -2.6915  -19.1388  -53.4920 H         1 UNK         0.3000 
    241 H241       -3.1203  -17.1817  -54.4188 H         1 UNK         0.0600 
    242 H242       -5.3565  -18.1469  -52.9956 H         1 UNK         0.3800 
    243 H243       -6.2249  -16.7551  -52.3955 H         1 UNK         0.3800 
    244 H244       -1.2947  -16.1674  -52.1879 H         1 UNK         0.0800 
    245 H245       -1.9924  -15.0671  -53.3222 H         1 UNK         0.0800 
    246 H246        1.0280  -18.2600  -54.8312 H         1 UNK         0.0800 
    247 H247       -0.4468  -18.7686  -54.0746 H         1 UNK         0.0800 
@<TRIPOS>BOND
     1    1    2 1    
     2    1  127 1    
     3    1  128 1    
     4    1  129 1    
     5    2    3 2    
     6    2    4 am   BACKBONE|DICT|INTERRES
     7    4    5 1    
     8    4  130 1    
     9    5    6 1    
    10    5   65 1    
    11    5  131 1    
    12    6    7 1    
    13    6  132 1    
    14    6  133 1    
    15    7    8 1    
    16    8    9 1    
    17    8  134 1    
    18    8  135 1    
    19    9   10 ar   
    20    9   14 ar   
    21   10   11 ar   
    22   10  136 1    
    23   11   12 ar   
    24   11  126 1    
    25   12   13 ar   
    26   12  137 1    
    27   13   14 ar   
    28   13   15 1    
    29   14  138 1    
    30   15   16 1    
    31   15  139 1    
    32   15  140 1    
    33   16   17 1    
    34   17   18 1    
    35   17  141 1    
    36   17  142 1    
    37   18   19 1    
    38   18   67 1    
    39   18  143 1    
    40   19   20 am   BACKBONE|DICT|INTERRES
    41   19  144 1    
    42   20   21 2    
    43   20   22 1    
    44   22   23 1    
    45   22   24 1    
    46   22  145 1    
    47   23  146 1    
    48   23  147 1    
    49   23  148 1    
    50   24   25 am   BACKBONE|DICT|INTERRES
    51   24  149 1    
    52   25   26 2    
    53   25   27 1    
    54   27   28 1    
    55   27   29 1    
    56   27  150 1    
    57   28  151 1    
    58   28  152 1    
    59   28  153 1    
    60   29   30 am   BACKBONE|DICT|INTERRES
    61   29  154 1    
    62   30   31 2    
    63   30   32 1    
    64   32   33 1    
    65   32   34 1    
    66   32  155 1    
    67   33  156 1    
    68   33  157 1    
    69   33  158 1    
    70   34   35 am   BACKBONE|DICT|INTERRES
    71   34  159 1    
    72   35   36 2    
    73   35   37 1    
    74   37   38 1    
    75   37   39 1    
    76   37  160 1    
    77   38  161 1    
    78   38  162 1    
    79   38  163 1    
    80   39   40 am   BACKBONE|DICT|INTERRES
    81   39  164 1    
    82   40   41 2    
    83   40   42 1    
    84   42   43 1    
    85   42   44 1    
    86   42  165 1    
    87   43  166 1    
    88   43  167 1    
    89   43  168 1    
    90   44   45 am   BACKBONE|DICT|INTERRES
    91   44  169 1    
    92   45   46 2    
    93   45   47 1    
    94   47   48 1    
    95   47   49 1    
    96   47  170 1    
    97   48  171 1    
    98   48  172 1    
    99   48  173 1    
   100   49   50 am   BACKBONE|DICT|INTERRES
   101   49  174 1    
   102   50   51 2    
   103   50   52 1    
   104   52   53 1    
   105   52   54 1    
   106   52  175 1    
   107   53  176 1    
   108   53  177 1    
   109   53  178 1    
   110   54   55 am   BACKBONE|DICT|INTERRES
   111   54  179 1    
   112   55   56 2    
   113   55   57 1    
   114   57   58 1    
   115   57   59 1    
   116   57  180 1    
   117   58  181 1    
   118   58  182 1    
   119   58  183 1    
   120   59   60 am   BACKBONE|DICT|INTERRES
   121   59  184 1    
   122   60   61 2    
   123   60   62 1    
   124   62   63 1    
   125   62   64 1    
   126   62  185 1    
   127   63  186 1    
   128   63  187 1    
   129   63  188 1    
   130   64   65 am   BACKBONE|DICT|INTERRES
   131   64  189 1    
   132   65   66 2    
   133   67   68 2    
   134   67   69 am   BACKBONE|DICT|INTERRES
   135   69   70 1    
   136   69  190 1    
   137   70   71 1    
   138   70   72 1    
   139   70  191 1    
   140   71  192 1    
   141   71  193 1    
   142   71  194 1    
   143   72   73 2    
   144   72   74 am   BACKBONE|DICT|INTERRES
   145   74   75 1    
   146   74  195 1    
   147   75   76 1    
   148   75   77 1    
   149   75  196 1    
   150   76  197 1    
   151   76  198 1    
   152   76  199 1    
   153   77   78 2    
   154   77   79 am   BACKBONE|DICT|INTERRES
   155   79   80 1    
   156   79  200 1    
   157   80   81 1    
   158   80   82 1    
   159   80  201 1    
   160   81  202 1    
   161   81  203 1    
   162   81  204 1    
   163   82   83 2    
   164   82   84 am   BACKBONE|DICT|INTERRES
   165   84   85 1    
   166   84  205 1    
   167   85   86 1    
   168   85   87 1    
   169   85  206 1    
   170   86  207 1    
   171   86  208 1    
   172   86  209 1    
   173   87   88 2    
   174   87   89 am   BACKBONE|DICT|INTERRES
   175   89   90 1    
   176   89  210 1    
   177   90   91 1    
   178   90   92 1    
   179   90  211 1    
   180   91  212 1    
   181   91  213 1    
   182   91  214 1    
   183   92   93 2    
   184   92   94 am   BACKBONE|DICT|INTERRES
   185   94   95 1    
   186   94  215 1    
   187   95   96 1    
   188   95   97 1    
   189   95  216 1    
   190   96  217 1    
   191   96  218 1    
   192   96  219 1    
   193   97   98 2    
   194   97   99 am   BACKBONE|DICT|INTERRES
   195   99  100 1    
   196   99  220 1    
   197  100  101 1    
   198  100  102 1    
   199  100  221 1    
   200  101  222 1    
   201  101  223 1    
   202  101  224 1    
   203  102  103 2    
   204  102  104 am   BACKBONE|DICT|INTERRES
   205  104  105 1    
   206  104  225 1    
   207  105  106 1    
   208  105  107 1    
   209  105  226 1    
   210  106  227 1    
   211  106  228 1    
   212  106  229 1    
   213  107  108 2    
   214  107  109 am   BACKBONE|DICT|INTERRES
   215  109  110 1    
   216  109  230 1    
   217  110  111 1    
   218  110  112 1    
   219  110  231 1    
   220  111  232 1    
   221  111  233 1    
   222  111  234 1    
   223  112  113 2    
   224  112  114 am   BACKBONE|DICT|INTERRES
   225  114  115 1    
   226  114  235 1    
   227  115  116 1    
   228  115  117 1    
   229  115  236 1    
   230  116  237 1    
   231  116  238 1    
   232  116  239 1    
   233  117  118 2    
   234  117  119 am   BACKBONE|DICT|INTERRES
   235  119  120 1    
   236  119  240 1    
   237  120  121 1    
   238  120  124 1    
   239  120  241 1    
   240  121  122 am   BACKBONE|DICT|INTERRES
   241  121  123 2    
   242  122  242 1    
   243  122  243 1    
   244  124  125 1    
   245  124  244 1    
   246  124  245 1    
   247  125  126 1    
   248  126  246 1    
   249  126  247 1    
@<TRIPOS>SUBSTRUCTURE
     1 UNK         1 GROUP             0       ****    0 ROOT    
