@<TRIPOS>MOLECULE
3R540
247   249    1
SMALL
USER_CHARGES


@<TRIPOS>ATOM
      1 CA         -3.4821  -15.8574  -51.5627 C.3       0 UNK        -0.1800 
      2 C          -2.0902  -15.3977  -51.1565 C.2       0 UNK         0.5000 
      3 O          -1.1383  -15.5813  -51.9143 O.2       0 UNK        -0.5000 
      4 N          -1.9724  -14.7962  -49.9696 N.am      1 UNK        -0.5000 
      5 CA         -0.7398  -14.2402  -49.4223 C.3       1 UNK         0.1400 
      6 C6          0.1114  -15.3173  -48.7063 C.3       23 UNK        -0.0398 
      7 S7          1.8201  -14.7686  -48.3716 S.3       23 UNK        -0.2404 
      8 C8          2.6681  -15.1923  -49.9308 C.3       23 UNK        -0.0205 
      9 C9          2.6910  -16.6908  -50.1969 C.ar      23 UNK        -0.0193 
     10 C10         1.9846  -17.2290  -51.2780 C.ar      23 UNK        -0.1150 
     11 C11         1.9938  -18.6065  -51.5172 C.ar      23 UNK        -0.0193 
     12 C12         2.7036  -19.4467  -50.6551 C.ar      23 UNK        -0.1150 
     13 C13         3.3981  -18.9240  -49.5618 C.ar      23 UNK        -0.0193 
     14 C14         3.4129  -17.5413  -49.3552 C.ar      23 UNK        -0.1150 
     15 C15         4.0732  -19.8660  -48.5740 C.3       23 UNK        -0.0205 
     16 S16         3.4796  -19.6656  -46.8563 S.3       23 UNK        -0.2404 
     17 C17         1.6707  -19.4684  -47.0352 C.3       23 UNK        -0.0398 
     18 CA          0.8754  -20.7837  -46.9020 C.3       11 UNK         0.1400 
     19 N           1.0892  -21.4310  -45.6075 N.am      11 UNK        -0.5000 
     20 C           0.6283  -22.6352  -45.2501 C.2       10 UNK         0.5000 
     21 O           0.0239  -23.3811  -46.0220 O.2       10 UNK        -0.5000 
     22 CA          0.8007  -23.0330  -43.7688 C.3       10 UNK         0.1400 
     23 CB          1.1066  -24.5335  -43.5871 C.3       10 UNK        -0.1800 
     24 N           1.7527  -22.1862  -43.0369 N.am      10 UNK        -0.5000 
     25 C           3.0862  -22.1266  -43.1784 C.2       9 UNK         0.5000 
     26 O           3.7286  -22.8411  -43.9479 O.2       9 UNK        -0.5000 
     27 CA          3.8337  -21.0690  -42.3394 C.3       9 UNK         0.1400 
     28 CB          4.3553  -19.9393  -43.2406 C.3       9 UNK        -0.1800 
     29 N           3.0189  -20.4714  -41.2801 N.am      9 UNK        -0.5000 
     30 C           2.6788  -21.0723  -40.1323 C.2       8 UNK         0.5000 
     31 O           3.0259  -22.2129  -39.8252 O.2       8 UNK        -0.5000 
     32 CA          1.7784  -20.2648  -39.1822 C.3       8 UNK         0.1400 
     33 CB          2.6172  -19.3103  -38.3180 C.3       8 UNK        -0.1800 
     34 N           0.7688  -19.4957  -39.9115 N.am      8 UNK        -0.5000 
     35 C          -0.3664  -20.0079  -40.4057 C.2       7 UNK         0.5000 
     36 O          -0.6889  -21.1905  -40.2933 O.2       7 UNK        -0.5000 
     37 CA         -1.2889  -19.0398  -41.1700 C.3       7 UNK         0.1400 
     38 CB         -2.2063  -18.2823  -40.1990 C.3       7 UNK        -0.1800 
     39 N          -0.5453  -18.0749  -41.9793 N.am      7 UNK        -0.5000 
     40 C           0.1199  -18.3846  -43.0997 C.2       6 UNK         0.5000 
     41 O           0.1149  -19.5053  -43.6097 O.2       6 UNK        -0.5000 
     42 CA          0.9448  -17.2647  -43.7602 C.3       6 UNK         0.1400 
     43 CB          0.1164  -16.5736  -44.8538 C.3       6 UNK        -0.1800 
     44 N           1.4563  -16.2577  -42.8267 N.am      6 UNK        -0.5000 
     45 C           2.2611  -16.5083  -41.7814 C.2       5 UNK         0.5000 
     46 O           2.6302  -17.6410  -41.4723 O.2       5 UNK        -0.5000 
     47 CA          2.7296  -15.3169  -40.9230 C.3       5 UNK         0.1400 
     48 CB          4.2355  -15.0825  -41.1165 C.3       5 UNK        -0.1800 
     49 N           2.0211  -14.0677  -41.2015 N.am      5 UNK        -0.5000 
     50 C           0.7448  -13.8043  -40.8868 C.2       4 UNK         0.5000 
     51 O           0.0119  -14.5919  -40.2880 O.2       4 UNK        -0.5000 
     52 CA          0.1919  -12.4441  -41.3591 C.3       4 UNK         0.1400 
     53 CB          0.2936  -11.4019  -40.2353 C.3       4 UNK        -0.1800 
     54 N           0.8799  -11.9357  -42.5522 N.am      4 UNK        -0.5000 
     55 C           0.7794  -12.4863  -43.7691 C.2       3 UNK         0.5000 
     56 O           0.0645  -13.4573  -44.0200 O.2       3 UNK        -0.5000 
     57 CA          1.6829  -11.9042  -44.8690 C.3       3 UNK         0.1400 
     58 CB          2.8941  -12.8226  -45.0980 C.3       3 UNK        -0.1800 
     59 N           0.9661  -11.7384  -46.1318 N.am      3 UNK        -0.5000 
     60 C           0.0130  -10.8222  -46.3509 C.2       2 UNK         0.5000 
     61 O          -0.3572  -10.0106  -45.5010 O.2       2 UNK        -0.5000 
     62 CA         -0.6140  -10.7717  -47.7577 C.3       2 UNK         0.1400 
     63 CB         -0.0688   -9.5662  -48.5405 C.3       2 UNK        -0.1800 
     64 N          -0.3727  -11.9845  -48.5427 N.am      2 UNK        -0.5000 
     65 C          -1.1373  -13.0816  -48.4926 C.2       1 UNK         0.5000 
     66 O          -2.1290  -13.1978  -47.7679 O.2       1 UNK        -0.5000 
     67 C          -0.6206  -20.4988  -47.1369 C.2       11 UNK         0.5000 
     68 O          -1.1050  -20.6732  -48.2529 O.2       11 UNK        -0.5000 
     69 N          -1.3316  -20.1007  -46.0706 N.am      12 UNK        -0.5000 
     70 CA         -2.7745  -19.8620  -46.0834 C.3       12 UNK         0.1400 
     71 CB         -3.1961  -19.2060  -44.7611 C.3       12 UNK        -0.1800 
     72 C          -3.5781  -21.1508  -46.3317 C.2       12 UNK         0.5000 
     73 O          -4.5771  -21.1134  -47.0483 O.2       12 UNK        -0.5000 
     74 N          -3.1049  -22.2728  -45.7699 N.am      13 UNK        -0.5000 
     75 CA         -3.6734  -23.6025  -45.9864 C.3       13 UNK         0.1400 
     76 CB         -3.1050  -24.5913  -44.9573 C.3       13 UNK        -0.1800 
     77 C          -3.4394  -24.0953  -47.4244 C.2       13 UNK         0.5000 
     78 O          -4.3687  -24.6167  -48.0389 O.2       13 UNK        -0.5000 
     79 N          -2.2257  -23.8749  -47.9523 N.am      14 UNK        -0.5000 
     80 CA         -1.8643  -24.1572  -49.3435 C.3       14 UNK         0.1400 
     81 CB         -0.3606  -23.9191  -49.5513 C.3       14 UNK        -0.1800 
     82 C          -2.6978  -23.3353  -50.3439 C.2       14 UNK         0.5000 
     83 O          -3.2273  -23.9016  -51.3008 O.2       14 UNK        -0.5000 
     84 N          -2.8445  -22.0313  -50.0704 N.am      15 UNK        -0.5000 
     85 CA         -3.6866  -21.1043  -50.8242 C.3       15 UNK         0.1400 
     86 CB         -3.5005  -19.6787  -50.2859 C.3       15 UNK        -0.1800 
     87 C          -5.1716  -21.5045  -50.8169 C.2       15 UNK         0.5000 
     88 O          -5.8048  -21.4818  -51.8694 O.2       15 UNK        -0.5000 
     89 N          -5.6959  -21.9012  -49.6491 N.am      16 UNK        -0.5000 
     90 CA         -7.0665  -22.3896  -49.4919 C.3       16 UNK         0.1400 
     91 CB         -7.3990  -22.5284  -47.9986 C.3       16 UNK        -0.1800 
     92 C          -7.3224  -23.7154  -50.2332 C.2       16 UNK         0.5000 
     93 O          -8.3727  -23.8637  -50.8586 O.2       16 UNK        -0.5000 
     94 N          -6.3623  -24.6470  -50.1559 N.am      17 UNK        -0.5000 
     95 CA         -6.4321  -25.9645  -50.7860 C.3       17 UNK         0.1400 
     96 CB         -5.3265  -26.8667  -50.2154 C.3       17 UNK        -0.1800 
     97 C          -6.3462  -25.9041  -52.3209 C.2       17 UNK         0.5000 
     98 O          -7.1616  -26.5314  -52.9984 O.2       17 UNK        -0.5000 
     99 N          -5.3595  -25.1630  -52.8418 N.am      18 UNK        -0.5000 
    100 CA        -5.0971  -25.0479  -54.2787 C.3       18 UNK         0.1400 
    101 CB        -3.6137  -24.7138  -54.4814 C.3       18 UNK        -0.1800 
    102 C         -5.9901  -24.0110  -54.9887 C.2       18 UNK         0.5000 
    103 O         -6.1176  -24.0791  -56.2118 O.2       18 UNK        -0.5000 
    104 N         -6.5815  -23.0920  -54.2114 N.am      19 UNK        -0.5000 
    105 CA        -7.3562  -21.9068  -54.5945 C.3       19 UNK         0.1400 
    106 CB        -8.4944  -22.2384  -55.5801 C.3       19 UNK        -0.1800 
    107 C         -6.4631  -20.7629  -55.1140 C.2       19 UNK         0.5000 
    108 O         -5.4013  -21.0031  -55.6944 O.2       19 UNK        -0.5000 
    109 N         -6.9248  -19.5232  -54.8941 N.am      20 UNK        -0.5000 
    110 CA        -6.2572  -18.2634  -55.2435 C.3       20 UNK         0.1400 
    111 CB        -6.2791  -18.0552  -56.7750 C.3       20 UNK        -0.1800 
    112 C         -4.8488  -18.1525  -54.6141 C.2       20 UNK         0.5000 
    113 O         -4.6550  -18.5892  -53.4778 O.2       20 UNK        -0.5000 
    114 N         -3.8838  -17.5876  -55.3501 N.am      21 UNK        -0.5000 
    115 CA        -2.4790  -17.4664  -54.9570 C.3       21 UNK         0.1400 
    116 CB        -1.8508  -16.2867  -55.7199 C.3       21 UNK        -0.1800 
    117 C         -1.7144  -18.7916  -55.1613 C.2       21 UNK         0.5000 
    118 O         -0.7446  -18.8371  -55.9205 O.2       21 UNK        -0.5000 
    119 N         -2.1760  -19.8439  -54.4757 N.am      22 UNK        -0.5000 
    120 CA        -1.6112  -21.2036  -54.4777 C.3       22 UNK         0.1400 
    121 C         -1.7372  -21.9308  -55.8525 C.2       22 UNK         0.5000 
    122 N         -2.8480  -21.7925  -56.5637 N.am      22 UNK        -0.7600 
    123 O         -0.8306  -22.6380  -56.2855 O.2       22 UNK        -0.5000 
    124 C124       -0.1683  -21.2770  -53.9008 C.3       23 UNK        -0.0398 
    125 S125        0.0473  -20.4591  -52.2801 S.3       23 UNK        -0.2404 
    126 C126        1.2769  -19.1874  -52.7273 C.3       23 UNK        -0.0205 
    127 H127       -4.2319  -15.5998  -50.8145 H         1 UNK         0.0600 
    128 H128       -3.7708  -15.3985  -52.5082 H         1 UNK         0.0600 
    129 H129       -3.4891  -16.9377  -51.6925 H         1 UNK         0.0600 
    130 H130       -2.7864  -14.6340  -49.3895 H         1 UNK         0.3000 
    131 H131       -0.1627  -13.8234  -50.2509 H         1 UNK         0.0600 
    132 H132       -0.3528  -15.6117  -47.7637 H         1 UNK         0.0800 
    133 H133        0.1476  -16.2274  -49.3051 H         1 UNK         0.0800 
    134 H134        3.6945  -14.8262  -49.8828 H         1 UNK         0.0800 
    135 H135        2.1921  -14.6591  -50.7551 H         1 UNK         0.0800 
    136 H136        1.4296  -16.5744  -51.9357 H         1 UNK         0.1150 
    137 H137        2.6964  -20.5136  -50.8294 H         1 UNK         0.1150 
    138 H138        3.9452  -17.1310  -48.5083 H         1 UNK         0.1150 
    139 H139        3.9190  -20.9053  -48.8682 H         1 UNK         0.0800 
    140 H140        5.1503  -19.6967  -48.5989 H         1 UNK         0.0800 
    141 H141        1.4240  -18.9715  -47.9726 H         1 UNK         0.0800 
    142 H142        1.3600  -18.7699  -46.2618 H         1 UNK         0.0800 
    143 H143        1.2099  -21.4707  -47.6820 H         1 UNK         0.0600 
    144 H144        1.5201  -20.8651  -44.8907 H         1 UNK         0.3000 
    145 H145       -0.1678  -22.8445  -43.3033 H         1 UNK         0.0600 
    146 H146        1.2272  -24.7869  -42.5339 H         1 UNK         0.0600 
    147 H147        0.2934  -25.1470  -43.9763 H         1 UNK         0.0600 
    148 H148        2.0142  -24.8314  -44.1122 H         1 UNK         0.0600 
    149 H149        1.3335  -21.5284  -42.3941 H         1 UNK         0.3000 
    150 H150        4.6913  -21.5638  -41.8790 H         1 UNK         0.0600 
    151 H151        4.9993  -20.3295  -44.0299 H         1 UNK         0.0600 
    152 H152        4.9409  -19.2178  -42.6706 H         1 UNK         0.0600 
    153 H153        3.5377  -19.4004  -43.7196 H         1 UNK         0.0600 
    154 H154        2.7437  -19.5013  -41.4156 H         1 UNK         0.3000 
    155 H155        1.2740  -20.9687  -38.5167 H         1 UNK         0.0600 
    156 H156        3.1479  -18.5746  -38.9234 H         1 UNK         0.0600 
    157 H157        3.3628  -19.8601  -37.7423 H         1 UNK         0.0600 
    158 H158        1.9915  -18.7704  -37.6071 H         1 UNK         0.0600 
    159 H159        0.9933  -18.5308  -40.1088 H         1 UNK         0.3000 
    160 H160       -1.9168  -19.6378  -41.8323 H         1 UNK         0.0600 
    161 H161       -2.9178  -17.6564  -40.7381 H         1 UNK         0.0600 
    162 H162       -1.6383  -17.6398  -39.5248 H         1 UNK         0.0600 
    163 H163       -2.7836  -18.9752  -39.5855 H         1 UNK         0.0600 
    164 H164       -0.4953  -17.1268  -41.6340 H         1 UNK         0.3000 
    165 H165        1.8110  -17.7345  -44.2282 H         1 UNK         0.0600 
    166 H166        0.7241  -15.8675  -45.4203 H         1 UNK         0.0600 
    167 H167       -0.2938  -17.2921  -45.5636 H         1 UNK         0.0600 
    168 H168       -0.7261  -16.0260  -44.4301 H         1 UNK         0.0600 
    169 H169        1.1772  -15.3023  -43.0050 H         1 UNK         0.3000 
    170 H170        2.5552  -15.5837  -39.8786 H         1 UNK         0.0600 
    171 H171        4.8059  -15.9824  -40.8817 H         1 UNK         0.0600 
    172 H172        4.4706  -14.8043  -42.1447 H         1 UNK         0.0600 
    173 H173        4.5994  -14.2906  -40.4615 H         1 UNK         0.0600 
    174 H174        2.5431  -13.3562  -41.6905 H         1 UNK         0.3000 
    175 H175       -0.8634  -12.5830  -41.6036 H         1 UNK         0.0600 
    176 H176       -0.1558  -10.4546  -40.5341 H         1 UNK         0.0600 
    177 H177       -0.2304  -11.7405  -39.3405 H         1 UNK         0.0600 
    178 H178        1.3302  -11.2095  -39.9557 H         1 UNK         0.0600 
    179 H179        1.4819  -11.1355  -42.4195 H         1 UNK         0.3000 
    180 H180        2.0473  -10.9247  -44.5520 H         1 UNK         0.0600 
    181 H181        2.5890  -13.8204  -45.4168 H         1 UNK         0.0600 
    182 H182        3.4791  -12.9358  -44.1845 H         1 UNK         0.0600 
    183 H183        3.5593  -12.4171  -45.8607 H         1 UNK         0.0600 
    184 H184        1.1826  -12.3959  -46.8661 H         1 UNK         0.3000 
    185 H185       -1.6898  -10.6315  -47.6311 H         1 UNK         0.0600 
    186 H186        1.0078   -9.6417  -48.6987 H         1 UNK         0.0600 
    187 H187       -0.5471   -9.4806  -49.5164 H         1 UNK         0.0600 
    188 H188       -0.2572   -8.6342  -48.0059 H         1 UNK         0.0600 
    189 H189        0.4242  -11.9653  -49.1633 H         1 UNK         0.3000 
    190 H190       -0.8534  -19.9852  -45.1812 H         1 UNK         0.3000 
    191 H191       -2.9951  -19.1663  -46.8955 H         1 UNK         0.0600 
    192 H192       -2.9956  -19.8570  -43.9103 H         1 UNK         0.0600 
    193 H193       -4.2640  -18.9838  -44.7595 H         1 UNK         0.0600 
    194 H194       -2.6691  -18.2658  -44.5986 H         1 UNK         0.0600 
    195 H195       -2.2570  -22.2212  -45.2273 H         1 UNK         0.3000 
    196 H196       -4.7521  -23.5380  -45.8282 H         1 UNK         0.0600 
    197 H197       -3.5654  -25.5735  -45.0703 H         1 UNK         0.0600 
    198 H198       -3.3003  -24.2568  -43.9383 H         1 UNK         0.0600 
    199 H199       -2.0290  -24.7229  -45.0671 H         1 UNK         0.0600 
    200 H200       -1.4999  -23.4827  -47.3616 H         1 UNK         0.3000 
    201 H201       -2.0688  -25.2135  -49.5300 H         1 UNK         0.0600 
    202 H202        0.2335  -24.5306  -48.8719 H         1 UNK         0.0600 
    203 H203       -0.0875  -22.8768  -49.3875 H         1 UNK         0.0600 
    204 H204       -0.0635  -24.1770  -50.5685 H         1 UNK         0.0600 
    205 H205       -2.3213  -21.6333  -49.2939 H         1 UNK         0.3000 
    206 H206       -3.3504  -21.1172  -51.8613 H         1 UNK         0.0600 
    207 H207       -2.4779  -19.3313  -50.4355 H         1 UNK         0.0600 
    208 H208       -4.1630  -18.9820  -50.7991 H         1 UNK         0.0600 
    209 H209       -3.7248  -19.6169  -49.2216 H         1 UNK         0.0600 
    210 H210       -5.1316  -21.8438  -48.8070 H         1 UNK         0.3000 
    211 H211       -7.7371  -21.6398  -49.9167 H         1 UNK         0.0600 
    212 H212       -6.7326  -23.2334  -47.5011 H         1 UNK         0.0600 
    213 H213       -8.4202  -22.8842  -47.8564 H         1 UNK         0.0600 
    214 H214       -7.3147  -21.5701  -47.4860 H         1 UNK         0.0600 
    215 H215       -5.5484  -24.4651  -49.5750 H         1 UNK         0.3000 
    216 H216       -7.3944  -26.4105  -50.5258 H         1 UNK         0.0600 
    217 H217       -5.3531  -27.8568  -50.6722 H         1 UNK         0.0600 
    218 H218       -5.4458  -27.0017  -49.1403 H         1 UNK         0.0600 
    219 H219       -4.3344  -26.4489  -50.3905 H         1 UNK         0.0600 
    220 H220       -4.7092  -24.6878  -52.2196 H         1 UNK         0.3000 
    221 H221       -5.2851  -26.0148  -54.7504 H         1 UNK         0.0600 
    222 H222       -3.3663  -24.6466  -55.5415 H         1 UNK         0.0600 
    223 H223       -3.3616  -23.7602  -54.0211 H         1 UNK         0.0600 
    224 H224       -2.9713  -25.4775  -54.0431 H         1 UNK         0.0600 
    225 H225       -6.3413  -23.1104  -53.2280 H         1 UNK         0.3000 
    226 H226       -7.8194  -21.5628  -53.6685 H         1 UNK         0.0600 
    227 H227       -8.1185  -22.4776  -56.5751 H         1 UNK         0.0600 
    228 H228       -9.1695  -21.3892  -55.6900 H         1 UNK         0.0600 
    229 H229       -9.0883  -23.0827  -55.2301 H         1 UNK         0.0600 
    230 H230       -7.7864  -19.4222  -54.3770 H         1 UNK         0.3000 
    231 H231       -6.8512  -17.4678  -54.7922 H         1 UNK         0.0600 
    232 H232       -7.2885  -18.1737  -57.1694 H         1 UNK         0.0600 
    233 H233       -5.6378  -18.7693  -57.2932 H         1 UNK         0.0600 
    234 H234       -5.9512  -17.0511  -57.0461 H         1 UNK         0.0600 
    235 H235       -4.1101  -17.2893  -56.2875 H         1 UNK         0.3000 
    236 H236       -2.4240  -17.2319  -53.8930 H         1 UNK         0.0600 
    237 H237       -2.3780  -15.3564  -55.5077 H         1 UNK         0.0600 
    238 H238       -0.8109  -16.1414  -55.4240 H         1 UNK         0.0600 
    239 H239       -1.8692  -16.4464  -56.7986 H         1 UNK         0.0600 
    240 H240       -3.0123  -19.7039  -53.9192 H         1 UNK         0.3000 
    241 H241       -2.2412  -21.7769  -53.8000 H         1 UNK         0.0600 
    242 H242       -2.9199  -22.2635  -57.4503 H         1 UNK         0.3800 
    243 H243       -3.6668  -21.3107  -56.1954 H         1 UNK         0.3800 
    244 H244        0.1232  -22.3206  -53.7714 H         1 UNK         0.0800 
    245 H245        0.5388  -20.8629  -54.6207 H         1 UNK         0.0800 
    246 H246        0.7800  -18.4032  -53.3005 H         1 UNK         0.0800 
    247 H247        2.0330  -19.6210  -53.3830 H         1 UNK         0.0800 
@<TRIPOS>BOND
     1    1    2 1    
     2    1  127 1    
     3    1  128 1    
     4    1  129 1    
     5    2    3 2    
     6    2    4 am   BACKBONE|DICT|INTERRES
     7    4    5 1    
     8    4  130 1    
     9    5    6 1    
    10    5   65 1    
    11    5  131 1    
    12    6    7 1    
    13    6  132 1    
    14    6  133 1    
    15    7    8 1    
    16    8    9 1    
    17    8  134 1    
    18    8  135 1    
    19    9   10 ar   
    20    9   14 ar   
    21   10   11 ar   
    22   10  136 1    
    23   11   12 ar   
    24   11  126 1    
    25   12   13 ar   
    26   12  137 1    
    27   13   14 ar   
    28   13   15 1    
    29   14  138 1    
    30   15   16 1    
    31   15  139 1    
    32   15  140 1    
    33   16   17 1    
    34   17   18 1    
    35   17  141 1    
    36   17  142 1    
    37   18   19 1    
    38   18   67 1    
    39   18  143 1    
    40   19   20 am   BACKBONE|DICT|INTERRES
    41   19  144 1    
    42   20   21 2    
    43   20   22 1    
    44   22   23 1    
    45   22   24 1    
    46   22  145 1    
    47   23  146 1    
    48   23  147 1    
    49   23  148 1    
    50   24   25 am   BACKBONE|DICT|INTERRES
    51   24  149 1    
    52   25   26 2    
    53   25   27 1    
    54   27   28 1    
    55   27   29 1    
    56   27  150 1    
    57   28  151 1    
    58   28  152 1    
    59   28  153 1    
    60   29   30 am   BACKBONE|DICT|INTERRES
    61   29  154 1    
    62   30   31 2    
    63   30   32 1    
    64   32   33 1    
    65   32   34 1    
    66   32  155 1    
    67   33  156 1    
    68   33  157 1    
    69   33  158 1    
    70   34   35 am   BACKBONE|DICT|INTERRES
    71   34  159 1    
    72   35   36 2    
    73   35   37 1    
    74   37   38 1    
    75   37   39 1    
    76   37  160 1    
    77   38  161 1    
    78   38  162 1    
    79   38  163 1    
    80   39   40 am   BACKBONE|DICT|INTERRES
    81   39  164 1    
    82   40   41 2    
    83   40   42 1    
    84   42   43 1    
    85   42   44 1    
    86   42  165 1    
    87   43  166 1    
    88   43  167 1    
    89   43  168 1    
    90   44   45 am   BACKBONE|DICT|INTERRES
    91   44  169 1    
    92   45   46 2    
    93   45   47 1    
    94   47   48 1    
    95   47   49 1    
    96   47  170 1    
    97   48  171 1    
    98   48  172 1    
    99   48  173 1    
   100   49   50 am   BACKBONE|DICT|INTERRES
   101   49  174 1    
   102   50   51 2    
   103   50   52 1    
   104   52   53 1    
   105   52   54 1    
   106   52  175 1    
   107   53  176 1    
   108   53  177 1    
   109   53  178 1    
   110   54   55 am   BACKBONE|DICT|INTERRES
   111   54  179 1    
   112   55   56 2    
   113   55   57 1    
   114   57   58 1    
   115   57   59 1    
   116   57  180 1    
   117   58  181 1    
   118   58  182 1    
   119   58  183 1    
   120   59   60 am   BACKBONE|DICT|INTERRES
   121   59  184 1    
   122   60   61 2    
   123   60   62 1    
   124   62   63 1    
   125   62   64 1    
   126   62  185 1    
   127   63  186 1    
   128   63  187 1    
   129   63  188 1    
   130   64   65 am   BACKBONE|DICT|INTERRES
   131   64  189 1    
   132   65   66 2    
   133   67   68 2    
   134   67   69 am   BACKBONE|DICT|INTERRES
   135   69   70 1    
   136   69  190 1    
   137   70   71 1    
   138   70   72 1    
   139   70  191 1    
   140   71  192 1    
   141   71  193 1    
   142   71  194 1    
   143   72   73 2    
   144   72   74 am   BACKBONE|DICT|INTERRES
   145   74   75 1    
   146   74  195 1    
   147   75   76 1    
   148   75   77 1    
   149   75  196 1    
   150   76  197 1    
   151   76  198 1    
   152   76  199 1    
   153   77   78 2    
   154   77   79 am   BACKBONE|DICT|INTERRES
   155   79   80 1    
   156   79  200 1    
   157   80   81 1    
   158   80   82 1    
   159   80  201 1    
   160   81  202 1    
   161   81  203 1    
   162   81  204 1    
   163   82   83 2    
   164   82   84 am   BACKBONE|DICT|INTERRES
   165   84   85 1    
   166   84  205 1    
   167   85   86 1    
   168   85   87 1    
   169   85  206 1    
   170   86  207 1    
   171   86  208 1    
   172   86  209 1    
   173   87   88 2    
   174   87   89 am   BACKBONE|DICT|INTERRES
   175   89   90 1    
   176   89  210 1    
   177   90   91 1    
   178   90   92 1    
   179   90  211 1    
   180   91  212 1    
   181   91  213 1    
   182   91  214 1    
   183   92   93 2    
   184   92   94 am   BACKBONE|DICT|INTERRES
   185   94   95 1    
   186   94  215 1    
   187   95   96 1    
   188   95   97 1    
   189   95  216 1    
   190   96  217 1    
   191   96  218 1    
   192   96  219 1    
   193   97   98 2    
   194   97   99 am   BACKBONE|DICT|INTERRES
   195   99  100 1    
   196   99  220 1    
   197  100  101 1    
   198  100  102 1    
   199  100  221 1    
   200  101  222 1    
   201  101  223 1    
   202  101  224 1    
   203  102  103 2    
   204  102  104 am   BACKBONE|DICT|INTERRES
   205  104  105 1    
   206  104  225 1    
   207  105  106 1    
   208  105  107 1    
   209  105  226 1    
   210  106  227 1    
   211  106  228 1    
   212  106  229 1    
   213  107  108 2    
   214  107  109 am   BACKBONE|DICT|INTERRES
   215  109  110 1    
   216  109  230 1    
   217  110  111 1    
   218  110  112 1    
   219  110  231 1    
   220  111  232 1    
   221  111  233 1    
   222  111  234 1    
   223  112  113 2    
   224  112  114 am   BACKBONE|DICT|INTERRES
   225  114  115 1    
   226  114  235 1    
   227  115  116 1    
   228  115  117 1    
   229  115  236 1    
   230  116  237 1    
   231  116  238 1    
   232  116  239 1    
   233  117  118 2    
   234  117  119 am   BACKBONE|DICT|INTERRES
   235  119  120 1    
   236  119  240 1    
   237  120  121 1    
   238  120  124 1    
   239  120  241 1    
   240  121  122 am   BACKBONE|DICT|INTERRES
   241  121  123 2    
   242  122  242 1    
   243  122  243 1    
   244  124  125 1    
   245  124  244 1    
   246  124  245 1    
   247  125  126 1    
   248  126  246 1    
   249  126  247 1    
@<TRIPOS>SUBSTRUCTURE
     1 UNK         1 GROUP             0       ****    0 ROOT    
