@<TRIPOS>MOLECULE
3R540
247   249    1
SMALL
USER_CHARGES


@<TRIPOS>ATOM
      1 CA         -4.8790  -15.0155  -43.7803 C.3       0 UNK        -0.1800 
      2 C          -4.7034  -15.1561  -45.2860 C.2       0 UNK         0.5000 
      3 O          -5.5798  -14.7365  -46.0421 O.2       0 UNK        -0.5000 
      4 N          -3.5882  -15.7562  -45.7209 N.am      1 UNK        -0.5000 
      5 CA         -3.2700  -15.9835  -47.1339 C.3       1 UNK         0.1400 
      6 C6         -2.4046  -17.2596  -47.3269 C.3       23 UNK        -0.0398 
      7 S7         -2.8848  -18.2191  -48.8059 S.3       23 UNK        -0.2404 
      8 C8         -1.5508  -17.8437  -49.9820 C.3       23 UNK        -0.0205 
      9 C9         -0.5269  -18.9608  -50.1076 C.ar      23 UNK        -0.0193 
     10 C10        -0.8093  -20.0866  -50.8890 C.ar      23 UNK        -0.1150 
     11 C11         0.1623  -21.0727  -51.0868 C.ar      23 UNK        -0.0193 
     12 C12         1.4216  -20.9236  -50.5031 C.ar      23 UNK        -0.1150 
     13 C13         1.7121  -19.8146  -49.7069 C.ar      23 UNK        -0.0193 
     14 C14         0.7300  -18.8393  -49.5055 C.ar      23 UNK        -0.1150 
     15 C15         3.1036  -19.6459  -49.1132 C.3       23 UNK        -0.0205 
     16 S16         3.2664  -20.3979  -47.4623 S.3       23 UNK        -0.2404 
     17 C17         3.4928  -22.1765  -47.8377 C.3       23 UNK        -0.0398 
     18 CA          2.4955  -23.1406  -47.1415 C.3       11 UNK         0.1400 
     19 N           2.5047  -23.0002  -45.6802 N.am      11 UNK        -0.5000 
     20 C           2.8283  -23.9720  -44.8162 C.2       10 UNK         0.5000 
     21 O           3.1519  -25.1097  -45.1598 O.2       10 UNK        -0.5000 
     22 CA          2.8049  -23.6331  -43.3099 C.3       10 UNK         0.1400 
     23 CB          4.2115  -23.2428  -42.8307 C.3       10 UNK        -0.1800 
     24 N           1.8726  -22.5663  -42.9453 N.am      10 UNK        -0.5000 
     25 C           0.5374  -22.6538  -43.0113 C.2       9 UNK         0.5000 
     26 O          -0.0643  -23.6710  -43.3569 O.2       9 UNK        -0.5000 
     27 CA         -0.2663  -21.3813  -42.6630 C.3       9 UNK         0.1400 
     28 CB         -0.6696  -21.4002  -41.1813 C.3       9 UNK        -0.1800 
     29 N           0.3837  -20.0958  -42.9647 N.am      9 UNK        -0.5000 
     30 C           0.9750  -19.7572  -44.1219 C.2       8 UNK         0.5000 
     31 O           1.1390  -20.5489  -45.0452 O.2       8 UNK        -0.5000 
     32 CA          1.4389  -18.3037  -44.3253 C.3       8 UNK         0.1400 
     33 CB          0.5588  -17.6440  -45.3924 C.3       8 UNK        -0.1800 
     34 N           1.3905  -17.4832  -43.1190 N.am      8 UNK        -0.5000 
     35 C           2.2152  -17.5927  -42.0688 C.2       7 UNK         0.5000 
     36 O           3.1447  -18.3983  -42.0142 O.2       7 UNK        -0.5000 
     37 CA          1.9420  -16.6647  -40.8666 C.3       7 UNK         0.1400 
     38 CB          2.9613  -15.5158  -40.8316 C.3       7 UNK        -0.1800 
     39 N           0.5916  -16.0954  -40.8581 N.am      7 UNK        -0.5000 
     40 C          -0.5467  -16.7925  -40.7265 C.2       6 UNK         0.5000 
     41 O          -0.5806  -18.0102  -40.5503 O.2       6 UNK        -0.5000 
     42 CA         -1.8656  -16.0057  -40.8563 C.3       6 UNK         0.1400 
     43 CB         -2.4542  -15.7078  -39.4694 C.3       6 UNK        -0.1800 
     44 N          -1.7200  -14.7464  -41.5935 N.am      6 UNK        -0.5000 
     45 C          -1.4789  -14.6501  -42.9080 C.2       5 UNK         0.5000 
     46 O          -1.3975  -15.6311  -43.6523 O.2       5 UNK        -0.5000 
     47 CA         -1.3531  -13.2246  -43.4893 C.3       5 UNK         0.1400 
     48 CB         -0.8038  -12.1929  -42.4781 C.3       5 UNK        -0.1800 
     49 N          -0.5811  -13.1818  -44.7337 N.am      5 UNK        -0.5000 
     50 C           0.7050  -13.5116  -44.9017 C.2       4 UNK         0.5000 
     51 O           1.4401  -13.9367  -44.0066 O.2       4 UNK        -0.5000 
     52 CA          1.2755  -13.3221  -46.3138 C.3       4 UNK         0.1400 
     53 CB          2.2283  -12.1146  -46.3594 C.3       4 UNK        -0.1800 
     54 N           1.9892  -14.5448  -46.6604 N.am      4 UNK        -0.5000 
     55 C           2.1879  -15.1024  -47.8609 C.2       3 UNK         0.5000 
     56 O           2.7223  -16.2046  -47.9546 O.2       3 UNK        -0.5000 
     57 CA          1.7281  -14.3782  -49.1431 C.3       3 UNK         0.1400 
     58 CB          2.3425  -14.9855  -50.4214 C.3       3 UNK        -0.1800 
     59 N           0.2719  -14.4133  -49.2641 N.am      3 UNK        -0.5000 
     60 C          -0.4681  -13.4141  -49.7631 C.2       2 UNK         0.5000 
     61 O           0.0019  -12.3315  -50.1142 O.2       2 UNK        -0.5000 
     62 CA         -1.9841  -13.6520  -49.9259 C.3       2 UNK         0.1400 
     63 CB         -2.3010  -13.9590  -51.3989 C.3       2 UNK        -0.1800 
     64 N          -2.5439  -14.7255  -49.0993 N.am      2 UNK        -0.5000 
     65 C          -2.6124  -14.7346  -47.7627 C.2       1 UNK         0.5000 
     66 O          -2.1638  -13.8311  -47.0528 O.2       1 UNK        -0.5000 
     67 C           1.0670  -23.0213  -47.7055 C.2       11 UNK         0.5000 
     68 O           0.7278  -23.7406  -48.6465 O.2       11 UNK        -0.5000 
     69 N           0.2418  -22.1554  -47.1000 N.am      12 UNK        -0.5000 
     70 CA         -1.1302  -21.8387  -47.4988 C.3       12 UNK         0.1400 
     71 CB         -1.6748  -20.7524  -46.5656 C.3       12 UNK        -0.1800 
     72 C          -2.0800  -23.0442  -47.5127 C.2       12 UNK         0.5000 
     73 O          -3.0183  -23.0667  -48.3110 O.2       12 UNK        -0.5000 
     74 N          -1.7977  -24.0394  -46.6608 N.am      13 UNK        -0.5000 
     75 CA         -2.5150  -25.3100  -46.5551 C.3       13 UNK         0.1400 
     76 CB         -1.8684  -26.1543  -45.4475 C.3       13 UNK        -0.1800 
     77 C          -2.5808  -26.1081  -47.8729 C.2       13 UNK         0.5000 
     78 O          -3.5515  -26.8357  -48.0809 O.2       13 UNK        -0.5000 
     79 N          -1.5941  -25.9178  -48.7629 N.am      14 UNK        -0.5000 
     80 CA         -1.5527  -26.5117  -50.1021 C.3       14 UNK         0.1400 
     81 CB         -0.1678  -26.2652  -50.7182 C.3       14 UNK        -0.1800 
     82 C          -2.6621  -25.9986  -51.0449 C.2       14 UNK         0.5000 
     83 O          -3.0156  -26.7032  -51.9910 O.2       14 UNK        -0.5000 
     84 N          -3.1998  -24.8038  -50.7643 N.am      15 UNK        -0.5000 
     85 CA         -4.3261  -24.1942  -51.4732 C.3       15 UNK         0.1400 
     86 CB         -3.8702  -22.8499  -52.0675 C.3       15 UNK        -0.1800 
     87 C          -5.5411  -24.0023  -50.5463 C.2       15 UNK         0.5000 
     88 O          -6.4600  -23.2719  -50.9130 O.2       15 UNK        -0.5000 
     89 N          -5.5172  -24.6097  -49.3482 N.am      16 UNK        -0.5000 
     90 CA         -6.5097  -24.4796  -48.2711 C.3       16 UNK         0.1400 
     91 CB         -7.8163  -25.2015  -48.6594 C.3       16 UNK        -0.1800 
     92 C          -6.7471  -23.0178  -47.8189 C.2       16 UNK         0.5000 
     93 O          -7.8547  -22.6711  -47.4051 O.2       16 UNK        -0.5000 
     94 N          -5.6977  -22.1886  -47.9263 N.am      17 UNK        -0.5000 
     95 CA         -5.6580  -20.7476  -47.6667 C.3       17 UNK         0.1400 
     96 CB         -5.7940  -20.4564  -46.1588 C.3       17 UNK        -0.1800 
     97 C          -6.6268  -19.9207  -48.5413 C.2       17 UNK         0.5000 
     98 O          -7.1288  -18.8882  -48.0960 O.2       17 UNK        -0.5000 
     99 N          -6.8487  -20.3621  -49.7887 N.am      18 UNK        -0.5000 
    100 CA        -7.7352  -19.7227  -50.7695 C.3       18 UNK         0.1400 
    101 CB        -8.1639  -20.7713  -51.8097 C.3       18 UNK        -0.1800 
    102 C         -7.1457  -18.4681  -51.4560 C.2       18 UNK         0.5000 
    103 O         -7.7308  -17.9936  -52.4306 O.2       18 UNK        -0.5000 
    104 N         -6.0101  -17.9541  -50.9567 N.am      19 UNK        -0.5000 
    105 CA        -5.2981  -16.7577  -51.4268 C.3       19 UNK         0.1400 
    106 CB        -6.1704  -15.4934  -51.2702 C.3       19 UNK        -0.1800 
    107 C         -4.6961  -16.9194  -52.8397 C.2       19 UNK         0.5000 
    108 O         -4.6054  -15.9488  -53.5918 O.2       19 UNK        -0.5000 
    109 N         -4.2759  -18.1502  -53.1649 N.am      20 UNK        -0.5000 
    110 CA        -3.7062  -18.5307  -54.4611 C.3       20 UNK         0.1400 
    111 CB        -3.7479  -20.0621  -54.5780 C.3       20 UNK        -0.1800 
    112 C         -2.2682  -18.0227  -54.6925 C.2       20 UNK         0.5000 
    113 O         -1.8226  -17.9813  -55.8395 O.2       20 UNK        -0.5000 
    114 N         -1.5593  -17.6919  -53.6029 N.am      21 UNK        -0.5000 
    115 CA        -0.1618  -17.2394  -53.4887 C.3       21 UNK         0.1400 
    116 CB         0.0773  -15.9361  -54.2731 C.3       21 UNK        -0.1800 
    117 C          0.8932  -18.3099  -53.8393 C.2       21 UNK         0.5000 
    118 O          1.9283  -18.3692  -53.1766 O.2       21 UNK        -0.5000 
    119 N          0.6052  -19.1402  -54.8481 N.am      22 UNK        -0.5000 
    120 CA         1.3586  -20.3380  -55.2600 C.3       22 UNK         0.1400 
    121 C          2.7844  -20.0647  -55.8319 C.2       22 UNK         0.5000 
    122 N          3.1123  -18.8429  -56.2340 N.am      22 UNK        -0.7600 
    123 O          3.5979  -20.9773  -55.9505 O.2       22 UNK        -0.5000 
    124 C124        1.3479  -21.4562  -54.1785 C.3       23 UNK        -0.0398 
    125 S125       -0.3469  -21.9383  -53.6874 S.3       23 UNK        -0.2404 
    126 C126       -0.1418  -22.3101  -51.9167 C.3       23 UNK        -0.0205 
    127 H127       -4.6361  -14.0018  -43.4631 H         1 UNK         0.0600 
    128 H128       -4.2445  -15.7145  -43.2359 H         1 UNK         0.0600 
    129 H129       -5.9126  -15.2208  -43.5014 H         1 UNK         0.0600 
    130 H130       -2.8561  -15.9843  -45.0558 H         1 UNK         0.3000 
    131 H131       -4.2178  -16.1369  -47.6556 H         1 UNK         0.0600 
    132 H132       -1.3371  -17.0382  -47.3443 H         1 UNK         0.0800 
    133 H133       -2.5498  -17.9312  -46.4802 H         1 UNK         0.0800 
    134 H134       -2.0102  -17.6704  -50.9520 H         1 UNK         0.0800 
    135 H135       -1.0516  -16.9129  -49.7207 H         1 UNK         0.0800 
    136 H136       -1.7786  -20.1924  -51.3549 H         1 UNK         0.1150 
    137 H137        2.1779  -21.6756  -50.6721 H         1 UNK         0.1150 
    138 H138        0.9605  -17.9707  -48.9061 H         1 UNK         0.1150 
    139 H139        3.8567  -20.0606  -49.7847 H         1 UNK         0.0800 
    140 H140        3.3341  -18.5832  -49.0314 H         1 UNK         0.0800 
    141 H141        4.5046  -22.4389  -47.5268 H         1 UNK         0.0800 
    142 H142        3.4801  -22.3368  -48.9155 H         1 UNK         0.0800 
    143 H143        2.8193  -24.1491  -47.4065 H         1 UNK         0.0600 
    144 H144        2.2161  -22.0944  -45.3211 H         1 UNK         0.3000 
    145 H145        2.5027  -24.5373  -42.7773 H         1 UNK         0.0600 
    146 H146        4.2323  -23.0860  -41.7521 H         1 UNK         0.0600 
    147 H147        4.9344  -24.0276  -43.0576 H         1 UNK         0.0600 
    148 H148        4.5593  -22.3271  -43.3109 H         1 UNK         0.0600 
    149 H149        2.2771  -21.6828  -42.6714 H         1 UNK         0.3000 
    150 H150       -1.1814  -21.4181  -43.2554 H         1 UNK         0.0600 
    151 H151       -1.1459  -22.3445  -40.9136 H         1 UNK         0.0600 
    152 H152       -1.3823  -20.6066  -40.9569 H         1 UNK         0.0600 
    153 H153        0.1947  -21.2698  -40.5290 H         1 UNK         0.0600 
    154 H154        0.2825  -19.3767  -42.2602 H         1 UNK         0.3000 
    155 H155        2.4689  -18.3262  -44.6873 H         1 UNK         0.0600 
    156 H156        0.7786  -16.5847  -45.4930 H         1 UNK         0.0600 
    157 H157       -0.4978  -17.7363  -45.1409 H         1 UNK         0.0600 
    158 H158        0.7152  -18.1083  -46.3671 H         1 UNK         0.0600 
    159 H159        0.6545  -16.7900  -43.0813 H         1 UNK         0.3000 
    160 H160        2.0622  -17.2612  -39.9600 H         1 UNK         0.0600 
    161 H161        2.8722  -14.8740  -41.7093 H         1 UNK         0.0600 
    162 H162        3.9825  -15.8986  -40.8072 H         1 UNK         0.0600 
    163 H163        2.8272  -14.8949  -39.9457 H         1 UNK         0.0600 
    164 H164        0.5239  -15.1014  -41.0191 H         1 UNK         0.3000 
    165 H165       -2.5708  -16.6394  -41.3982 H         1 UNK         0.0600 
    166 H166       -3.4251  -15.2185  -39.5498 H         1 UNK         0.0600 
    167 H167       -2.6019  -16.6278  -38.9020 H         1 UNK         0.0600 
    168 H168       -1.7987  -15.0623  -38.8835 H         1 UNK         0.0600 
    169 H169       -1.7927  -13.8983  -41.0502 H         1 UNK         0.3000 
    170 H170       -2.3644  -12.9187  -43.7592 H         1 UNK         0.0600 
    171 H171       -1.4890  -12.0458  -41.6428 H         1 UNK         0.0600 
    172 H172        0.1603  -12.4969  -42.0685 H         1 UNK         0.0600 
    173 H173       -0.6698  -11.2186  -42.9485 H         1 UNK         0.0600 
    174 H174       -1.1308  -12.9951  -45.5671 H         1 UNK         0.3000 
    175 H175        0.4478  -13.1474  -46.9983 H         1 UNK         0.0600 
    176 H176        3.0757  -12.2478  -45.6856 H         1 UNK         0.0600 
    177 H177        2.6241  -11.9437  -47.3594 H         1 UNK         0.0600 
    178 H178        1.7114  -11.2026  -46.0583 H         1 UNK         0.0600 
    179 H179        2.3025  -15.0518  -45.8436 H         1 UNK         0.3000 
    180 H180        2.0792  -13.3485  -49.0705 H         1 UNK         0.0600 
    181 H181        2.0712  -14.4055  -51.3036 H         1 UNK         0.0600 
    182 H182        2.0088  -16.0116  -50.5831 H         1 UNK         0.0600 
    183 H183        3.4316  -14.9982  -50.3648 H         1 UNK         0.0600 
    184 H184       -0.1833  -15.2546  -48.9484 H         1 UNK         0.3000 
    185 H185       -2.4871  -12.7224  -49.6515 H         1 UNK         0.0600 
    186 H186       -1.8936  -13.1912  -52.0582 H         1 UNK         0.0600 
    187 H187       -1.8802  -14.9147  -51.7133 H         1 UNK         0.0600 
    188 H188       -3.3747  -13.9892  -51.5755 H         1 UNK         0.0600 
    189 H189       -2.9555  -15.4958  -49.6008 H         1 UNK         0.3000 
    190 H190        0.6177  -21.5810  -46.3472 H         1 UNK         0.3000 
    191 H191       -1.0983  -21.4403  -48.5117 H         1 UNK         0.0600 
    192 H192       -1.0733  -19.8476  -46.6386 H         1 UNK         0.0600 
    193 H193       -2.6983  -20.4858  -46.8208 H         1 UNK         0.0600 
    194 H194       -1.6733  -21.0772  -45.5259 H         1 UNK         0.0600 
    195 H195       -1.0041  -23.9199  -46.0469 H         1 UNK         0.3000 
    196 H196       -3.5411  -25.0819  -46.2604 H         1 UNK         0.0600 
    197 H197       -2.3893  -27.1048  -45.3238 H         1 UNK         0.0600 
    198 H198       -1.9030  -25.6387  -44.4874 H         1 UNK         0.0600 
    199 H199       -0.8240  -26.3769  -45.6701 H         1 UNK         0.0600 
    200 H200       -0.8466  -25.2716  -48.5355 H         1 UNK         0.3000 
    201 H201       -1.6896  -27.5895  -49.9937 H         1 UNK         0.0600 
    202 H202        0.6235  -26.6740  -50.0897 H         1 UNK         0.0600 
    203 H203        0.0268  -25.2013  -50.8511 H         1 UNK         0.0600 
    204 H204       -0.0841  -26.7389  -51.6971 H         1 UNK         0.0600 
    205 H205       -2.8674  -24.2942  -49.9523 H         1 UNK         0.3000 
    206 H206       -4.6614  -24.8322  -52.2929 H         1 UNK         0.0600 
    207 H207       -3.0688  -22.9980  -52.7901 H         1 UNK         0.0600 
    208 H208       -4.6830  -22.3517  -52.5971 H         1 UNK         0.0600 
    209 H209       -3.5122  -22.1681  -51.2949 H         1 UNK         0.0600 
    210 H210       -4.7275  -25.2065  -49.1402 H         1 UNK         0.3000 
    211 H211       -6.0897  -24.9972  -47.4076 H         1 UNK         0.0600 
    212 H212       -8.3233  -24.7017  -49.4854 H         1 UNK         0.0600 
    213 H213       -8.5116  -25.2345  -47.8199 H         1 UNK         0.0600 
    214 H214       -7.6229  -26.2317  -48.9584 H         1 UNK         0.0600 
    215 H215       -4.8175  -22.5884  -48.2448 H         1 UNK         0.3000 
    216 H216       -4.6623  -20.4303  -47.9715 H         1 UNK         0.0600 
    217 H217       -5.6146  -19.4018  -45.9456 H         1 UNK         0.0600 
    218 H218       -5.0689  -21.0295  -45.5808 H         1 UNK         0.0600 
    219 H219       -6.7896  -20.7023  -45.7886 H         1 UNK         0.0600 
    220 H220       -6.4432  -21.2468  -50.0715 H         1 UNK         0.3000 
    221 H221       -8.6354  -19.3939  -50.2464 H         1 UNK         0.0600 
    222 H222       -7.3147  -21.1227  -52.3971 H         1 UNK         0.0600 
    223 H223       -8.6234  -21.6361  -51.3306 H         1 UNK         0.0600 
    224 H224       -8.8990  -20.3650  -52.5054 H         1 UNK         0.0600 
    225 H225       -5.6181  -18.4100  -50.1456 H         1 UNK         0.3000 
    226 H226       -4.4460  -16.6348  -50.7605 H         1 UNK         0.0600 
    227 H227       -6.5528  -15.4037  -50.2533 H         1 UNK         0.0600 
    228 H228       -5.6014  -14.5885  -51.4803 H         1 UNK         0.0600 
    229 H229       -7.0229  -15.4990  -51.9495 H         1 UNK         0.0600 
    230 H230       -4.4189  -18.8943  -52.4984 H         1 UNK         0.3000 
    231 H231       -4.3333  -18.1093  -55.2496 H         1 UNK         0.0600 
    232 H232       -3.1408  -20.5384  -53.8075 H         1 UNK         0.0600 
    233 H233       -3.3661  -20.3933  -55.5447 H         1 UNK         0.0600 
    234 H234       -4.7666  -20.4393  -54.4860 H         1 UNK         0.0600 
    235 H235       -2.0350  -17.8205  -52.7251 H         1 UNK         0.3000 
    236 H236       -0.0146  -17.0059  -52.4333 H         1 UNK         0.0600 
    237 H237       -0.6350  -15.1641  -53.9820 H         1 UNK         0.0600 
    238 H238        1.0770  -15.5457  -54.0789 H         1 UNK         0.0600 
    239 H239       -0.0102  -16.0846  -55.3495 H         1 UNK         0.0600 
    240 H240       -0.2541  -18.9597  -55.3576 H         1 UNK         0.3000 
    241 H241        0.8076  -20.7290  -56.1157 H         1 UNK         0.0600 
    242 H242        4.0304  -18.6729  -56.6137 H         1 UNK         0.3800 
    243 H243        2.4549  -18.0847  -56.1469 H         1 UNK         0.3800 
    244 H244        1.8440  -22.3548  -54.5481 H         1 UNK         0.0800 
    245 H245        1.9151  -21.1350  -53.3049 H         1 UNK         0.0800 
    246 H246       -1.0496  -22.7750  -51.5339 H         1 UNK         0.0800 
    247 H247        0.6464  -23.0554  -51.8019 H         1 UNK         0.0800 
@<TRIPOS>BOND
     1    1    2 1    
     2    1  127 1    
     3    1  128 1    
     4    1  129 1    
     5    2    3 2    
     6    2    4 am   BACKBONE|DICT|INTERRES
     7    4    5 1    
     8    4  130 1    
     9    5    6 1    
    10    5   65 1    
    11    5  131 1    
    12    6    7 1    
    13    6  132 1    
    14    6  133 1    
    15    7    8 1    
    16    8    9 1    
    17    8  134 1    
    18    8  135 1    
    19    9   10 ar   
    20    9   14 ar   
    21   10   11 ar   
    22   10  136 1    
    23   11   12 ar   
    24   11  126 1    
    25   12   13 ar   
    26   12  137 1    
    27   13   14 ar   
    28   13   15 1    
    29   14  138 1    
    30   15   16 1    
    31   15  139 1    
    32   15  140 1    
    33   16   17 1    
    34   17   18 1    
    35   17  141 1    
    36   17  142 1    
    37   18   19 1    
    38   18   67 1    
    39   18  143 1    
    40   19   20 am   BACKBONE|DICT|INTERRES
    41   19  144 1    
    42   20   21 2    
    43   20   22 1    
    44   22   23 1    
    45   22   24 1    
    46   22  145 1    
    47   23  146 1    
    48   23  147 1    
    49   23  148 1    
    50   24   25 am   BACKBONE|DICT|INTERRES
    51   24  149 1    
    52   25   26 2    
    53   25   27 1    
    54   27   28 1    
    55   27   29 1    
    56   27  150 1    
    57   28  151 1    
    58   28  152 1    
    59   28  153 1    
    60   29   30 am   BACKBONE|DICT|INTERRES
    61   29  154 1    
    62   30   31 2    
    63   30   32 1    
    64   32   33 1    
    65   32   34 1    
    66   32  155 1    
    67   33  156 1    
    68   33  157 1    
    69   33  158 1    
    70   34   35 am   BACKBONE|DICT|INTERRES
    71   34  159 1    
    72   35   36 2    
    73   35   37 1    
    74   37   38 1    
    75   37   39 1    
    76   37  160 1    
    77   38  161 1    
    78   38  162 1    
    79   38  163 1    
    80   39   40 am   BACKBONE|DICT|INTERRES
    81   39  164 1    
    82   40   41 2    
    83   40   42 1    
    84   42   43 1    
    85   42   44 1    
    86   42  165 1    
    87   43  166 1    
    88   43  167 1    
    89   43  168 1    
    90   44   45 am   BACKBONE|DICT|INTERRES
    91   44  169 1    
    92   45   46 2    
    93   45   47 1    
    94   47   48 1    
    95   47   49 1    
    96   47  170 1    
    97   48  171 1    
    98   48  172 1    
    99   48  173 1    
   100   49   50 am   BACKBONE|DICT|INTERRES
   101   49  174 1    
   102   50   51 2    
   103   50   52 1    
   104   52   53 1    
   105   52   54 1    
   106   52  175 1    
   107   53  176 1    
   108   53  177 1    
   109   53  178 1    
   110   54   55 am   BACKBONE|DICT|INTERRES
   111   54  179 1    
   112   55   56 2    
   113   55   57 1    
   114   57   58 1    
   115   57   59 1    
   116   57  180 1    
   117   58  181 1    
   118   58  182 1    
   119   58  183 1    
   120   59   60 am   BACKBONE|DICT|INTERRES
   121   59  184 1    
   122   60   61 2    
   123   60   62 1    
   124   62   63 1    
   125   62   64 1    
   126   62  185 1    
   127   63  186 1    
   128   63  187 1    
   129   63  188 1    
   130   64   65 am   BACKBONE|DICT|INTERRES
   131   64  189 1    
   132   65   66 2    
   133   67   68 2    
   134   67   69 am   BACKBONE|DICT|INTERRES
   135   69   70 1    
   136   69  190 1    
   137   70   71 1    
   138   70   72 1    
   139   70  191 1    
   140   71  192 1    
   141   71  193 1    
   142   71  194 1    
   143   72   73 2    
   144   72   74 am   BACKBONE|DICT|INTERRES
   145   74   75 1    
   146   74  195 1    
   147   75   76 1    
   148   75   77 1    
   149   75  196 1    
   150   76  197 1    
   151   76  198 1    
   152   76  199 1    
   153   77   78 2    
   154   77   79 am   BACKBONE|DICT|INTERRES
   155   79   80 1    
   156   79  200 1    
   157   80   81 1    
   158   80   82 1    
   159   80  201 1    
   160   81  202 1    
   161   81  203 1    
   162   81  204 1    
   163   82   83 2    
   164   82   84 am   BACKBONE|DICT|INTERRES
   165   84   85 1    
   166   84  205 1    
   167   85   86 1    
   168   85   87 1    
   169   85  206 1    
   170   86  207 1    
   171   86  208 1    
   172   86  209 1    
   173   87   88 2    
   174   87   89 am   BACKBONE|DICT|INTERRES
   175   89   90 1    
   176   89  210 1    
   177   90   91 1    
   178   90   92 1    
   179   90  211 1    
   180   91  212 1    
   181   91  213 1    
   182   91  214 1    
   183   92   93 2    
   184   92   94 am   BACKBONE|DICT|INTERRES
   185   94   95 1    
   186   94  215 1    
   187   95   96 1    
   188   95   97 1    
   189   95  216 1    
   190   96  217 1    
   191   96  218 1    
   192   96  219 1    
   193   97   98 2    
   194   97   99 am   BACKBONE|DICT|INTERRES
   195   99  100 1    
   196   99  220 1    
   197  100  101 1    
   198  100  102 1    
   199  100  221 1    
   200  101  222 1    
   201  101  223 1    
   202  101  224 1    
   203  102  103 2    
   204  102  104 am   BACKBONE|DICT|INTERRES
   205  104  105 1    
   206  104  225 1    
   207  105  106 1    
   208  105  107 1    
   209  105  226 1    
   210  106  227 1    
   211  106  228 1    
   212  106  229 1    
   213  107  108 2    
   214  107  109 am   BACKBONE|DICT|INTERRES
   215  109  110 1    
   216  109  230 1    
   217  110  111 1    
   218  110  112 1    
   219  110  231 1    
   220  111  232 1    
   221  111  233 1    
   222  111  234 1    
   223  112  113 2    
   224  112  114 am   BACKBONE|DICT|INTERRES
   225  114  115 1    
   226  114  235 1    
   227  115  116 1    
   228  115  117 1    
   229  115  236 1    
   230  116  237 1    
   231  116  238 1    
   232  116  239 1    
   233  117  118 2    
   234  117  119 am   BACKBONE|DICT|INTERRES
   235  119  120 1    
   236  119  240 1    
   237  120  121 1    
   238  120  124 1    
   239  120  241 1    
   240  121  122 am   BACKBONE|DICT|INTERRES
   241  121  123 2    
   242  122  242 1    
   243  122  243 1    
   244  124  125 1    
   245  124  244 1    
   246  124  245 1    
   247  125  126 1    
   248  126  246 1    
   249  126  247 1    
@<TRIPOS>SUBSTRUCTURE
     1 UNK         1 GROUP             0       ****    0 ROOT    
