@<TRIPOS>MOLECULE
3R540
247   249    1
SMALL
USER_CHARGES


@<TRIPOS>ATOM
      1 CA          6.7916  -12.3720  -47.1169 C.3       0 UNK        -0.1800 
      2 C           5.9566  -13.6090  -46.8221 C.2       0 UNK         0.5000 
      3 O           5.7859  -13.9782  -45.6601 O.2       0 UNK        -0.5000 
      4 N           5.4187  -14.2384  -47.8742 N.am      1 UNK        -0.5000 
      5 CA          4.6376  -15.4841  -47.8370 C.3       1 UNK         0.1400 
      6 C6          4.4770  -16.1166  -49.2457 C.3       23 UNK        -0.0398 
      7 S7          3.8606  -14.9644  -50.5222 S.3       23 UNK        -0.2404 
      8 C8          3.3034  -16.1299  -51.8178 C.3       23 UNK        -0.0205 
      9 C9          1.9706  -16.8350  -51.5527 C.ar      23 UNK        -0.0193 
     10 C10         1.6595  -17.9894  -52.2806 C.ar      23 UNK        -0.1150 
     11 C11         0.4357  -18.6452  -52.1040 C.ar      23 UNK        -0.0193 
     12 C12        -0.4848  -18.1387  -51.1814 C.ar      23 UNK        -0.1150 
     13 C13        -0.1928  -16.9842  -50.4510 C.ar      23 UNK        -0.0193 
     14 C14         1.0304  -16.3388  -50.6423 C.ar      23 UNK        -0.1150 
     15 C15        -1.1996  -16.4030  -49.4696 C.3       23 UNK        -0.0205 
     16 S16        -1.6082  -17.5099  -48.0811 S.3       23 UNK        -0.2404 
     17 C17         0.0076  -18.1870  -47.5154 C.3       23 UNK        -0.0398 
     18 CA          0.1818  -19.7428  -47.4284 C.3       11 UNK         0.1400 
     19 N           0.7565  -20.1719  -46.1478 N.am      11 UNK        -0.5000 
     20 C           1.1267  -21.4186  -45.8170 C.2       10 UNK         0.5000 
     21 O           1.1246  -22.3667  -46.6010 O.2       10 UNK        -0.5000 
     22 CA          1.5004  -21.6668  -44.3427 C.3       10 UNK         0.1400 
     23 CB          2.9715  -21.3194  -44.0700 C.3       10 UNK        -0.1800 
     24 N           0.6306  -20.9374  -43.4169 N.am      10 UNK        -0.5000 
     25 C          -0.6775  -21.1898  -43.2593 C.2       9 UNK         0.5000 
     26 O          -1.2669  -22.1086  -43.8299 O.2       9 UNK        -0.5000 
     27 CA         -1.4702  -20.2297  -42.3510 C.3       9 UNK         0.1400 
     28 CB         -1.2842  -20.5938  -40.8707 C.3       9 UNK        -0.1800 
     29 N          -1.1092  -18.8268  -42.5616 N.am      9 UNK        -0.5000 
     30 C          -1.3135  -18.1572  -43.7052 C.2       8 UNK         0.5000 
     31 O          -1.8985  -18.6349  -44.6769 O.2       8 UNK        -0.5000 
     32 CA         -0.7128  -16.7406  -43.8016 C.3       8 UNK         0.1400 
     33 CB         -1.6530  -15.6987  -43.1805 C.3       8 UNK        -0.1800 
     34 N           0.6135  -16.6364  -43.1880 N.am      8 UNK        -0.5000 
     35 C           1.6897  -17.3474  -43.5545 C.2       7 UNK         0.5000 
     36 O           1.6813  -18.1679  -44.4653 O.2       7 UNK        -0.5000 
     37 CA          2.9694  -17.1706  -42.7221 C.3       7 UNK         0.1400 
     38 CB          3.7326  -15.8978  -43.1188 C.3       7 UNK        -0.1800 
     39 N           2.6720  -17.1554  -41.2918 N.am      7 UNK        -0.5000 
     40 C           2.2712  -18.2306  -40.5984 C.2       6 UNK         0.5000 
     41 O           2.1733  -19.3592  -41.0816 O.2       6 UNK        -0.5000 
     42 CA          1.8748  -17.9908  -39.1299 C.3       6 UNK         0.1400 
     43 CB          3.1127  -18.0259  -38.2215 C.3       6 UNK        -0.1800 
     44 N           1.1699  -16.7207  -38.9413 N.am      6 UNK        -0.5000 
     45 C          -0.0544  -16.4599  -39.4210 C.2       5 UNK         0.5000 
     46 O          -0.7329  -17.2794  -40.0404 O.2       5 UNK        -0.5000 
     47 CA         -0.5877  -15.0279  -39.2163 C.3       5 UNK         0.1400 
     48 CB         -1.2591  -14.8944  -37.8414 C.3       5 UNK        -0.1800 
     49 N           0.4377  -13.9872  -39.3611 N.am      5 UNK        -0.5000 
     50 C           1.1527  -13.7731  -40.4731 C.2       4 UNK         0.5000 
     51 O           1.0486  -14.4607  -41.4915 O.2       4 UNK        -0.5000 
     52 CA          2.1782  -12.6323  -40.4353 C.3       4 UNK         0.1400 
     53 CB          3.3573  -12.9763  -39.5075 C.3       4 UNK        -0.1800 
     54 N           2.6760  -12.4175  -41.7899 N.am      4 UNK        -0.5000 
     55 C           3.1277  -11.2668  -42.2957 C.2       3 UNK         0.5000 
     56 O           3.1918  -10.2205  -41.6486 O.2       3 UNK        -0.5000 
     57 CA          3.6064  -11.2776  -43.7637 C.3       3 UNK         0.1400 
     58 CB          5.1382  -11.1688  -43.8195 C.3       3 UNK        -0.1800 
     59 N           3.1878  -12.4549  -44.5368 N.am      3 UNK        -0.5000 
     60 C           1.9401  -12.6705  -44.9830 C.2       2 UNK         0.5000 
     61 O           1.0049  -11.8985  -44.7694 O.2       2 UNK        -0.5000 
     62 CA          1.7149  -13.9467  -45.8158 C.3       2 UNK         0.1400 
     63 CB          0.3999  -13.9471  -46.6160 C.3       2 UNK        -0.1800 
     64 N           2.8524  -14.1869  -46.7033 N.am      2 UNK        -0.5000 
     65 C           3.2938  -15.3952  -47.0748 C.2       1 UNK         0.5000 
     66 O           2.7023  -16.4375  -46.8048 O.2       1 UNK        -0.5000 
     67 C          -1.0812  -20.5658  -47.7548 C.2       11 UNK         0.5000 
     68 O          -1.1413  -21.1693  -48.8225 O.2       11 UNK        -0.5000 
     69 N          -2.0378  -20.6136  -46.8156 N.am      12 UNK        -0.5000 
     70 CA         -3.2976  -21.3450  -46.9505 C.3       12 UNK         0.1400 
     71 CB         -4.1974  -21.0484  -45.7425 C.3       12 UNK        -0.1800 
     72 C          -3.1009  -22.8604  -47.1302 C.2       12 UNK         0.5000 
     73 O          -3.7965  -23.4670  -47.9464 O.2       12 UNK        -0.5000 
     74 N          -2.1373  -23.4346  -46.3968 N.am      13 UNK        -0.5000 
     75 CA         -1.7276  -24.8323  -46.5210 C.3       13 UNK         0.1400 
     76 CB         -0.7689  -25.1961  -45.3771 C.3       13 UNK        -0.1800 
     77 C          -1.1001  -25.1368  -47.8940 C.2       13 UNK         0.5000 
     78 O          -1.5181  -26.0912  -48.5506 O.2       13 UNK        -0.5000 
     79 N          -0.1431  -24.3003  -48.3220 N.am      14 UNK        -0.5000 
     80 CA          0.5346  -24.3954  -49.6183 C.3       14 UNK         0.1400 
     81 CB          1.6964  -23.3911  -49.6631 C.3       14 UNK        -0.1800 
     82 C          -0.4116  -24.1745  -50.8124 C.2       14 UNK         0.5000 
     83 O          -0.2736  -24.8468  -51.8344 O.2       14 UNK        -0.5000 
     84 N          -1.3694  -23.2538  -50.6502 N.am      15 UNK        -0.5000 
     85 CA         -2.4007  -22.9264  -51.6292 C.3       15 UNK         0.1400 
     86 CB         -3.0065  -21.5568  -51.2828 C.3       15 UNK        -0.1800 
     87 C          -3.5246  -23.9718  -51.7275 C.2       15 UNK         0.5000 
     88 O          -4.3567  -23.8477  -52.6272 O.2       15 UNK        -0.5000 
     89 N          -3.5663  -24.9397  -50.7993 N.am      16 UNK        -0.5000 
     90 CA         -4.6070  -25.9608  -50.6371 C.3       16 UNK         0.1400 
     91 CB         -4.5926  -26.9515  -51.8197 C.3       16 UNK        -0.1800 
     92 C          -5.9904  -25.3236  -50.3896 C.2       16 UNK         0.5000 
     93 O          -6.9600  -25.6403  -51.0802 O.2       16 UNK        -0.5000 
     94 N          -6.0217  -24.3869  -49.4306 N.am      17 UNK        -0.5000 
     95 CA         -7.1444  -23.5297  -49.0322 C.3       17 UNK         0.1400 
     96 CB         -8.3775  -24.3574  -48.6128 C.3       17 UNK        -0.1800 
     97 C          -7.4905  -22.4238  -50.0532 C.2       17 UNK         0.5000 
     98 O          -8.4947  -21.7357  -49.8666 O.2       17 UNK        -0.5000 
     99 N          -6.6410  -22.2420  -51.0774 N.am      18 UNK        -0.5000 
    100 CA        -6.7084  -21.2200  -52.1264 C.3       18 UNK         0.1400 
    101 CB        -6.4513  -19.8167  -51.5384 C.3       18 UNK        -0.1800 
    102 C         -8.0095  -21.3052  -52.9464 C.2       18 UNK         0.5000 
    103 O         -8.7958  -20.3553  -52.9807 O.2       18 UNK        -0.5000 
    104 N         -8.2179  -22.4625  -53.5864 N.am      19 UNK        -0.5000 
    105 CA        -9.3628  -22.7781  -54.4430 C.3       19 UNK         0.1400 
    106 CB        -9.4309  -24.3054  -54.6199 C.3       19 UNK        -0.1800 
    107 C         -9.2991  -22.0252  -55.7909 C.2       19 UNK         0.5000 
    108 O         -9.0460  -22.6339  -56.8312 O.2       19 UNK        -0.5000 
    109 N         -9.4822  -20.6986  -55.7247 N.am      20 UNK        -0.5000 
    110 CA        -9.4105  -19.6900  -56.7945 C.3       20 UNK         0.1400 
    111 CB       -10.3779  -20.0177  -57.9500 C.3       20 UNK        -0.1800 
    112 C         -7.9828  -19.3941  -57.3066 C.2       20 UNK         0.5000 
    113 O         -7.8042  -18.4602  -58.0897 O.2       20 UNK        -0.5000 
    114 N         -6.9932  -20.1568  -56.8365 N.am      21 UNK        -0.5000 
    115 CA        -5.5673  -20.0597  -57.1188 C.3       21 UNK         0.1400 
    116 CB        -5.2750  -20.5075  -58.5646 C.3       21 UNK        -0.1800 
    117 C         -4.8410  -20.9597  -56.1071 C.2       21 UNK         0.5000 
    118 O         -5.4937  -21.7463  -55.4135 O.2       21 UNK        -0.5000 
    119 N         -3.5104  -20.8415  -56.0412 N.am      22 UNK        -0.5000 
    120 CA        -2.6506  -21.7309  -55.2483 C.3       22 UNK         0.1400 
    121 C         -2.6025  -23.1533  -55.8733 C.2       22 UNK         0.5000 
    122 N         -3.1882  -24.1529  -55.2298 N.am      22 UNK        -0.7600 
    123 O         -2.0182  -23.3550  -56.9351 O.2       22 UNK        -0.5000 
    124 C124       -1.2200  -21.1562  -55.0682 C.3       23 UNK        -0.0398 
    125 S125       -1.1886  -19.5766  -54.1517 S.3       23 UNK        -0.2404 
    126 C126        0.1085  -19.8963  -52.9098 C.3       23 UNK        -0.0205 
    127 H127        7.5773  -12.2561  -46.3701 H         1 UNK         0.0600 
    128 H128        6.1654  -11.4804  -47.0992 H         1 UNK         0.0600 
    129 H129        7.2651  -12.4389  -48.0967 H         1 UNK         0.0600 
    130 H130        5.5665  -13.8622  -48.8007 H         1 UNK         0.3000 
    131 H131        5.2329  -16.1894  -47.2530 H         1 UNK         0.0600 
    132 H132        5.4468  -16.4848  -49.5827 H         1 UNK         0.0800 
    133 H133        3.8310  -16.9961  -49.2068 H         1 UNK         0.0800 
    134 H134        4.0878  -16.8707  -51.9809 H         1 UNK         0.0800 
    135 H135        3.2077  -15.5748  -52.7517 H         1 UNK         0.0800 
    136 H136        2.3712  -18.3730  -52.9984 H         1 UNK         0.1150 
    137 H137       -1.4341  -18.6343  -51.0381 H         1 UNK         0.1150 
    138 H138        1.2361  -15.4385  -50.0823 H         1 UNK         0.1150 
    139 H139       -0.8429  -15.4550  -49.0671 H         1 UNK         0.0800 
    140 H140       -2.1190  -16.1701  -50.0081 H         1 UNK         0.0800 
    141 H141        0.1888  -17.7395  -46.5417 H         1 UNK         0.0800 
    142 H142        0.8064  -17.7826  -48.1351 H         1 UNK         0.0800 
    143 H143        0.9161  -20.0176  -48.1888 H         1 UNK         0.0600 
    144 H144        0.8836  -19.4431  -45.4478 H         1 UNK         0.3000 
    145 H145        1.3704  -22.7329  -44.1459 H         1 UNK         0.0600 
    146 H146        3.2393  -21.5248  -43.0334 H         1 UNK         0.0600 
    147 H147        3.6326  -21.9138  -44.7017 H         1 UNK         0.0600 
    148 H148        3.1885  -20.2707  -44.2689 H         1 UNK         0.0600 
    149 H149        1.0468  -20.1669  -42.9088 H         1 UNK         0.3000 
    150 H150       -2.5284  -20.3416  -42.5961 H         1 UNK         0.0600 
    151 H151       -1.5727  -21.6290  -40.6843 H         1 UNK         0.0600 
    152 H152       -1.9010  -19.9632  -40.2300 H         1 UNK         0.0600 
    153 H153       -0.2478  -20.4790  -40.5530 H         1 UNK         0.0600 
    154 H154       -0.6780  -18.3411  -41.7820 H         1 UNK         0.3000 
    155 H155       -0.6045  -16.4925  -44.8578 H         1 UNK         0.0600 
    156 H156       -1.8212  -15.8889  -42.1211 H         1 UNK         0.0600 
    157 H157       -2.6255  -15.7105  -43.6739 H         1 UNK         0.0600 
    158 H158       -1.2482  -14.6913  -43.2815 H         1 UNK         0.0600 
    159 H159        0.7150  -15.9524  -42.4410 H         1 UNK         0.3000 
    160 H160        3.6198  -18.0244  -42.9246 H         1 UNK         0.0600 
    161 H161        3.1325  -15.0018  -42.9773 H         1 UNK         0.0600 
    162 H162        4.0243  -15.9337  -44.1687 H         1 UNK         0.0600 
    163 H163        4.6458  -15.7855  -42.5344 H         1 UNK         0.0600 
    164 H164        2.6715  -16.2564  -40.8348 H         1 UNK         0.3000 
    165 H165        1.2065  -18.8007  -38.8293 H         1 UNK         0.0600 
    166 H166        2.8340  -17.9310  -37.1718 H         1 UNK         0.0600 
    167 H167        3.6492  -18.9695  -38.3301 H         1 UNK         0.0600 
    168 H168        3.8110  -17.2220  -38.4579 H         1 UNK         0.0600 
    169 H169        1.6583  -15.9928  -38.4411 H         1 UNK         0.3000 
    170 H170       -1.3462  -14.8491  -39.9806 H         1 UNK         0.0600 
    171 H171       -2.0404  -15.6451  -37.7140 H         1 UNK         0.0600 
    172 H172       -0.5436  -15.0238  -37.0285 H         1 UNK         0.0600 
    173 H173       -1.7280  -13.9172  -37.7245 H         1 UNK         0.0600 
    174 H174        0.5835  -13.3871  -38.5619 H         1 UNK         0.3000 
    175 H175        1.6725  -11.7325  -40.0792 H         1 UNK         0.0600 
    176 H176        3.8707  -13.8831  -39.8300 H         1 UNK         0.0600 
    177 H177        4.0900  -12.1693  -39.4868 H         1 UNK         0.0600 
    178 H178        3.0235  -13.1325  -38.4812 H         1 UNK         0.0600 
    179 H179        2.5676  -13.2143  -42.4016 H         1 UNK         0.3000 
    180 H180        3.1887  -10.3887  -44.2412 H         1 UNK         0.0600 
    181 H181        5.6198  -12.0611  -43.4175 H         1 UNK         0.0600 
    182 H182        5.4957  -10.3141  -43.2437 H         1 UNK         0.0600 
    183 H183        5.4843  -11.0308  -44.8424 H         1 UNK         0.0600 
    184 H184        3.9138  -13.1288  -44.7519 H         1 UNK         0.3000 
    185 H185        1.6578  -14.7579  -45.0892 H         1 UNK         0.0600 
    186 H186       -0.4591  -13.7714  -45.9673 H         1 UNK         0.0600 
    187 H187        0.3992  -13.1783  -47.3891 H         1 UNK         0.0600 
    188 H188        0.2434  -14.9121  -47.0961 H         1 UNK         0.0600 
    189 H189        3.3915  -13.3751  -46.9703 H         1 UNK         0.3000 
    190 H190       -1.9234  -20.0470  -45.9789 H         1 UNK         0.3000 
    191 H191       -3.7981  -20.9706  -47.8457 H         1 UNK         0.0600 
    192 H192       -3.7391  -21.3753  -44.8088 H         1 UNK         0.0600 
    193 H193       -5.1572  -21.5583  -45.8353 H         1 UNK         0.0600 
    194 H194       -4.4017  -19.9809  -45.6575 H         1 UNK         0.0600 
    195 H195       -1.6434  -22.8691  -45.7142 H         1 UNK         0.3000 
    196 H196       -2.6216  -25.4511  -46.4196 H         1 UNK         0.0600 
    197 H197       -0.4769  -26.2455  -45.4320 H         1 UNK         0.0600 
    198 H198       -1.2381  -25.0385  -44.4057 H         1 UNK         0.0600 
    199 H199        0.1429  -24.5999  -45.4064 H         1 UNK         0.0600 
    200 H200        0.1553  -23.5407  -47.7140 H         1 UNK         0.3000 
    201 H201        0.9491  -25.4018  -49.7052 H         1 UNK         0.0600 
    202 H202        2.4180  -23.5881  -48.8701 H         1 UNK         0.0600 
    203 H203        1.3449  -22.3650  -49.5469 H         1 UNK         0.0600 
    204 H204        2.2305  -23.4510  -50.6122 H         1 UNK         0.0600 
    205 H205       -1.3549  -22.6800  -49.8082 H         1 UNK         0.3000 
    206 H206       -1.9203  -22.8620  -52.6054 H         1 UNK         0.0600 
    207 H207       -2.2406  -20.7904  -51.1950 H         1 UNK         0.0600 
    208 H208       -3.6968  -21.2218  -52.0551 H         1 UNK         0.0600 
    209 H209       -3.5536  -21.5868  -50.3397 H         1 UNK         0.0600 
    210 H210       -2.8444  -24.9406  -50.0896 H         1 UNK         0.3000 
    211 H211       -4.3550  -26.5185  -49.7338 H         1 UNK         0.0600 
    212 H212       -4.8781  -26.4737  -52.7574 H         1 UNK         0.0600 
    213 H213       -5.2893  -27.7725  -51.6472 H         1 UNK         0.0600 
    214 H214       -3.6029  -27.3880  -51.9542 H         1 UNK         0.0600 
    215 H215       -5.1498  -24.1793  -48.9438 H         1 UNK         0.3000 
    216 H216       -6.7960  -23.0028  -48.1427 H         1 UNK         0.0600 
    217 H217       -9.1255  -23.7255  -48.1327 H         1 UNK         0.0600 
    218 H218       -8.1074  -25.1360  -47.8995 H         1 UNK         0.0600 
    219 H219       -8.8594  -24.8337  -49.4668 H         1 UNK         0.0600 
    220 H220       -5.8841  -22.9053  -51.1740 H         1 UNK         0.3000 
    221 H221       -5.8959  -21.4369  -52.8193 H         1 UNK         0.0600 
    222 H222       -7.2418  -19.5110  -50.8524 H         1 UNK         0.0600 
    223 H223       -5.5070  -19.7811  -50.9955 H         1 UNK         0.0600 
    224 H224       -6.3987  -19.0687  -52.3303 H         1 UNK         0.0600 
    225 H225       -7.5046  -23.1752  -53.5204 H         1 UNK         0.3000 
    226 H226      -10.2755  -22.4626  -53.9333 H         1 UNK         0.0600 
    227 H227       -9.5470  -24.8081  -53.6594 H         1 UNK         0.0600 
    228 H228      -10.2819  -24.5898  -55.2401 H         1 UNK         0.0600 
    229 H229       -8.5306  -24.6974  -55.0951 H         1 UNK         0.0600 
    230 H230       -9.5792  -20.3154  -54.7881 H         1 UNK         0.3000 
    231 H231       -9.7567  -18.7619  -56.3375 H         1 UNK         0.0600 
    232 H232      -11.3857  -20.2074  -57.5807 H         1 UNK         0.0600 
    233 H233      -10.0559  -20.8912  -58.5172 H         1 UNK         0.0600 
    234 H234      -10.4414  -19.1847  -58.6510 H         1 UNK         0.0600 
    235 H235       -7.2158  -20.9019  -56.1872 H         1 UNK         0.3000 
    236 H236       -5.2415  -19.0286  -56.9700 H         1 UNK         0.0600 
    237 H237       -4.2075  -20.4658  -58.7833 H         1 UNK         0.0600 
    238 H238       -5.6062  -21.5321  -58.7391 H         1 UNK         0.0600 
    239 H239       -5.7742  -19.8672  -59.2915 H         1 UNK         0.0600 
    240 H240       -3.0375  -20.1822  -56.6414 H         1 UNK         0.3000 
    241 H241       -3.1026  -21.8102  -54.2603 H         1 UNK         0.0600 
    242 H242       -3.1578  -25.0765  -55.6307 H         1 UNK         0.3800 
    243 H243       -3.7204  -23.9979  -54.3767 H         1 UNK         0.3800 
    244 H244       -0.5923  -21.8788  -54.5435 H         1 UNK         0.0800 
    245 H245       -0.7463  -20.9970  -56.0384 H         1 UNK         0.0800 
    246 H246        1.0026  -20.2614  -53.4176 H         1 UNK         0.0800 
    247 H247       -0.2047  -20.6935  -52.2355 H         1 UNK         0.0800 
@<TRIPOS>BOND
     1    1    2 1    
     2    1  127 1    
     3    1  128 1    
     4    1  129 1    
     5    2    3 2    
     6    2    4 am   BACKBONE|DICT|INTERRES
     7    4    5 1    
     8    4  130 1    
     9    5    6 1    
    10    5   65 1    
    11    5  131 1    
    12    6    7 1    
    13    6  132 1    
    14    6  133 1    
    15    7    8 1    
    16    8    9 1    
    17    8  134 1    
    18    8  135 1    
    19    9   10 ar   
    20    9   14 ar   
    21   10   11 ar   
    22   10  136 1    
    23   11   12 ar   
    24   11  126 1    
    25   12   13 ar   
    26   12  137 1    
    27   13   14 ar   
    28   13   15 1    
    29   14  138 1    
    30   15   16 1    
    31   15  139 1    
    32   15  140 1    
    33   16   17 1    
    34   17   18 1    
    35   17  141 1    
    36   17  142 1    
    37   18   19 1    
    38   18   67 1    
    39   18  143 1    
    40   19   20 am   BACKBONE|DICT|INTERRES
    41   19  144 1    
    42   20   21 2    
    43   20   22 1    
    44   22   23 1    
    45   22   24 1    
    46   22  145 1    
    47   23  146 1    
    48   23  147 1    
    49   23  148 1    
    50   24   25 am   BACKBONE|DICT|INTERRES
    51   24  149 1    
    52   25   26 2    
    53   25   27 1    
    54   27   28 1    
    55   27   29 1    
    56   27  150 1    
    57   28  151 1    
    58   28  152 1    
    59   28  153 1    
    60   29   30 am   BACKBONE|DICT|INTERRES
    61   29  154 1    
    62   30   31 2    
    63   30   32 1    
    64   32   33 1    
    65   32   34 1    
    66   32  155 1    
    67   33  156 1    
    68   33  157 1    
    69   33  158 1    
    70   34   35 am   BACKBONE|DICT|INTERRES
    71   34  159 1    
    72   35   36 2    
    73   35   37 1    
    74   37   38 1    
    75   37   39 1    
    76   37  160 1    
    77   38  161 1    
    78   38  162 1    
    79   38  163 1    
    80   39   40 am   BACKBONE|DICT|INTERRES
    81   39  164 1    
    82   40   41 2    
    83   40   42 1    
    84   42   43 1    
    85   42   44 1    
    86   42  165 1    
    87   43  166 1    
    88   43  167 1    
    89   43  168 1    
    90   44   45 am   BACKBONE|DICT|INTERRES
    91   44  169 1    
    92   45   46 2    
    93   45   47 1    
    94   47   48 1    
    95   47   49 1    
    96   47  170 1    
    97   48  171 1    
    98   48  172 1    
    99   48  173 1    
   100   49   50 am   BACKBONE|DICT|INTERRES
   101   49  174 1    
   102   50   51 2    
   103   50   52 1    
   104   52   53 1    
   105   52   54 1    
   106   52  175 1    
   107   53  176 1    
   108   53  177 1    
   109   53  178 1    
   110   54   55 am   BACKBONE|DICT|INTERRES
   111   54  179 1    
   112   55   56 2    
   113   55   57 1    
   114   57   58 1    
   115   57   59 1    
   116   57  180 1    
   117   58  181 1    
   118   58  182 1    
   119   58  183 1    
   120   59   60 am   BACKBONE|DICT|INTERRES
   121   59  184 1    
   122   60   61 2    
   123   60   62 1    
   124   62   63 1    
   125   62   64 1    
   126   62  185 1    
   127   63  186 1    
   128   63  187 1    
   129   63  188 1    
   130   64   65 am   BACKBONE|DICT|INTERRES
   131   64  189 1    
   132   65   66 2    
   133   67   68 2    
   134   67   69 am   BACKBONE|DICT|INTERRES
   135   69   70 1    
   136   69  190 1    
   137   70   71 1    
   138   70   72 1    
   139   70  191 1    
   140   71  192 1    
   141   71  193 1    
   142   71  194 1    
   143   72   73 2    
   144   72   74 am   BACKBONE|DICT|INTERRES
   145   74   75 1    
   146   74  195 1    
   147   75   76 1    
   148   75   77 1    
   149   75  196 1    
   150   76  197 1    
   151   76  198 1    
   152   76  199 1    
   153   77   78 2    
   154   77   79 am   BACKBONE|DICT|INTERRES
   155   79   80 1    
   156   79  200 1    
   157   80   81 1    
   158   80   82 1    
   159   80  201 1    
   160   81  202 1    
   161   81  203 1    
   162   81  204 1    
   163   82   83 2    
   164   82   84 am   BACKBONE|DICT|INTERRES
   165   84   85 1    
   166   84  205 1    
   167   85   86 1    
   168   85   87 1    
   169   85  206 1    
   170   86  207 1    
   171   86  208 1    
   172   86  209 1    
   173   87   88 2    
   174   87   89 am   BACKBONE|DICT|INTERRES
   175   89   90 1    
   176   89  210 1    
   177   90   91 1    
   178   90   92 1    
   179   90  211 1    
   180   91  212 1    
   181   91  213 1    
   182   91  214 1    
   183   92   93 2    
   184   92   94 am   BACKBONE|DICT|INTERRES
   185   94   95 1    
   186   94  215 1    
   187   95   96 1    
   188   95   97 1    
   189   95  216 1    
   190   96  217 1    
   191   96  218 1    
   192   96  219 1    
   193   97   98 2    
   194   97   99 am   BACKBONE|DICT|INTERRES
   195   99  100 1    
   196   99  220 1    
   197  100  101 1    
   198  100  102 1    
   199  100  221 1    
   200  101  222 1    
   201  101  223 1    
   202  101  224 1    
   203  102  103 2    
   204  102  104 am   BACKBONE|DICT|INTERRES
   205  104  105 1    
   206  104  225 1    
   207  105  106 1    
   208  105  107 1    
   209  105  226 1    
   210  106  227 1    
   211  106  228 1    
   212  106  229 1    
   213  107  108 2    
   214  107  109 am   BACKBONE|DICT|INTERRES
   215  109  110 1    
   216  109  230 1    
   217  110  111 1    
   218  110  112 1    
   219  110  231 1    
   220  111  232 1    
   221  111  233 1    
   222  111  234 1    
   223  112  113 2    
   224  112  114 am   BACKBONE|DICT|INTERRES
   225  114  115 1    
   226  114  235 1    
   227  115  116 1    
   228  115  117 1    
   229  115  236 1    
   230  116  237 1    
   231  116  238 1    
   232  116  239 1    
   233  117  118 2    
   234  117  119 am   BACKBONE|DICT|INTERRES
   235  119  120 1    
   236  119  240 1    
   237  120  121 1    
   238  120  124 1    
   239  120  241 1    
   240  121  122 am   BACKBONE|DICT|INTERRES
   241  121  123 2    
   242  122  242 1    
   243  122  243 1    
   244  124  125 1    
   245  124  244 1    
   246  124  245 1    
   247  125  126 1    
   248  126  246 1    
   249  126  247 1    
@<TRIPOS>SUBSTRUCTURE
     1 UNK         1 GROUP             0       ****    0 ROOT    
