@<TRIPOS>MOLECULE
3R540
247   249    1
SMALL
USER_CHARGES


@<TRIPOS>ATOM
      1 CA          1.3568  -15.0003  -49.7120 C.3       0 UNK        -0.1800 
      2 C           1.3471  -14.6507  -48.2316 C.2       0 UNK         0.5000 
      3 O           2.4061  -14.5894  -47.6085 O.2       0 UNK        -0.5000 
      4 N           0.1589  -14.3919  -47.6704 N.am      1 UNK        -0.5000 
      5 CA         -0.0823  -14.0754  -46.2541 C.3       1 UNK         0.1400 
      6 C6         -1.5914  -14.0664  -45.8926 C.3       23 UNK        -0.0398 
      7 S7         -2.6572  -13.1316  -47.0520 S.3       23 UNK        -0.2404 
      8 C8         -3.8022  -14.4211  -47.6539 C.3       23 UNK        -0.0205 
      9 C9         -3.2259  -15.2159  -48.8187 C.ar      23 UNK        -0.0193 
     10 C10        -3.6383  -14.9529  -50.1304 C.ar      23 UNK        -0.1150 
     11 C11        -3.1170  -15.6884  -51.2005 C.ar      23 UNK        -0.0193 
     12 C12        -2.1540  -16.6691  -50.9512 C.ar      23 UNK        -0.1150 
     13 C13        -1.7428  -16.9507  -49.6468 C.ar      23 UNK        -0.0193 
     14 C14        -2.2963  -16.2328  -48.5857 C.ar      23 UNK        -0.1150 
     15 C15        -0.6949  -18.0209  -49.3862 C.3       23 UNK        -0.0205 
     16 S16        -1.4281  -19.6834  -49.3649 S.3       23 UNK        -0.2404 
     17 C17        -2.3151  -19.6827  -47.7714 C.3       23 UNK        -0.0398 
     18 CA         -2.1514  -21.0209  -47.0097 C.3       11 UNK         0.1400 
     19 N          -2.2455  -20.8544  -45.5545 N.am      11 UNK        -0.5000 
     20 C          -3.2927  -20.4499  -44.8213 C.2       10 UNK         0.5000 
     21 O          -4.4096  -20.2137  -45.2829 O.2       10 UNK        -0.5000 
     22 CA         -3.0362  -20.2535  -43.3162 C.3       10 UNK         0.1400 
     23 CB         -2.5534  -21.5498  -42.6453 C.3       10 UNK        -0.1800 
     24 N          -2.0660  -19.1879  -43.0773 N.am      10 UNK        -0.5000 
     25 C          -2.3014  -17.8826  -43.2767 C.2       9 UNK         0.5000 
     26 O          -3.3965  -17.4202  -43.5972 O.2       9 UNK        -0.5000 
     27 CA         -1.1023  -16.9325  -43.1096 C.3       9 UNK         0.1400 
     28 CB         -0.9042  -16.5466  -41.6362 C.3       9 UNK        -0.1800 
     29 N           0.1339  -17.5092  -43.6324 N.am      9 UNK        -0.5000 
     30 C           0.3743  -17.7613  -44.9248 C.2       8 UNK         0.5000 
     31 O          -0.3902  -17.4419  -45.8305 O.2       8 UNK        -0.5000 
     32 CA          1.6790  -18.5003  -45.2627 C.3       8 UNK         0.1400 
     33 CB          2.8352  -17.5045  -45.4339 C.3       8 UNK        -0.1800 
     34 N           2.0351  -19.4901  -44.2462 N.am      8 UNK        -0.5000 
     35 C           1.4172  -20.6678  -44.0799 C.2       7 UNK         0.5000 
     36 O           0.4826  -21.0598  -44.7782 O.2       7 UNK        -0.5000 
     37 CA          1.9089  -21.5446  -42.9143 C.3       7 UNK         0.1400 
     38 CB          3.1038  -22.4044  -43.3518 C.3       7 UNK        -0.1800 
     39 N           2.2787  -20.7594  -41.7353 N.am      7 UNK        -0.5000 
     40 C           1.4010  -20.0918  -40.9738 C.2       6 UNK         0.5000 
     41 O           0.1867  -20.0818  -41.1791 O.2       6 UNK        -0.5000 
     42 CA          1.9884  -19.2542  -39.8210 C.3       6 UNK         0.1400 
     43 CB          2.2820  -20.1411  -38.6017 C.3       6 UNK        -0.1800 
     44 N           3.1979  -18.5026  -40.1824 N.am      6 UNK        -0.5000 
     45 C           3.2546  -17.5888  -41.1597 C.2       5 UNK         0.5000 
     46 O           2.3206  -17.3622  -41.9287 O.2       5 UNK        -0.5000 
     47 CA          4.5734  -16.8179  -41.3409 C.3       5 UNK         0.1400 
     48 CB          5.4993  -17.5605  -42.3164 C.3       5 UNK        -0.1800 
     49 N           4.3058  -15.4784  -41.8672 N.am      5 UNK        -0.5000 
     50 C           3.7781  -14.4737  -41.1553 C.2       4 UNK         0.5000 
     51 O           3.6003  -14.5373  -39.9372 O.2       4 UNK        -0.5000 
     52 CA          3.3359  -13.2015  -41.9140 C.3       4 UNK         0.1400 
     53 CB          3.7864  -11.9123  -41.1964 C.3       4 UNK        -0.1800 
     54 N           3.6894  -13.1532  -43.3395 N.am      4 UNK        -0.5000 
     55 C           4.9131  -13.0715  -43.8871 C.2       3 UNK         0.5000 
     56 O           5.9591  -13.1108  -43.2393 O.2       3 UNK        -0.5000 
     57 CA          4.9876  -12.9282  -45.4222 C.3       3 UNK         0.1400 
     58 CB          5.3049  -14.2871  -46.0650 C.3       3 UNK        -0.1800 
     59 N           3.7625  -12.3888  -46.0200 N.am      3 UNK        -0.5000 
     60 C           3.3200  -11.1314  -45.8523 C.2       2 UNK         0.5000 
     61 O           3.9571  -10.2652  -45.2518 O.2       2 UNK        -0.5000 
     62 CA          1.9281  -10.7749  -46.4217 C.3       2 UNK         0.1400 
     63 CB          2.0703   -9.9783  -47.7276 C.3       2 UNK        -0.1800 
     64 N           1.0651  -11.9320  -46.6697 N.am      2 UNK        -0.5000 
     65 C           0.6437  -12.8093  -45.7476 C.2       1 UNK         0.5000 
     66 O           0.8707  -12.6879  -44.5427 O.2       1 UNK        -0.5000 
     67 C          -3.0588  -22.1305  -47.5892 C.2       11 UNK         0.5000 
     68 O          -2.5576  -23.0690  -48.2106 O.2       11 UNK        -0.5000 
     69 N          -4.3744  -22.0152  -47.3757 N.am      12 UNK        -0.5000 
     70 CA         -5.3965  -22.9305  -47.8815 C.3       12 UNK         0.1400 
     71 CB         -6.7814  -22.2894  -47.7142 C.3       12 UNK        -0.1800 
     72 C          -5.3403  -24.3007  -47.1890 C.2       12 UNK         0.5000 
     73 O          -5.4668  -25.3254  -47.8578 O.2       12 UNK        -0.5000 
     74 N          -5.0896  -24.2972  -45.8713 N.am      13 UNK        -0.5000 
     75 CA         -4.9075  -25.5030  -45.0563 C.3       13 UNK         0.1400 
     76 CB         -4.9434  -25.1193  -43.5699 C.3       13 UNK        -0.1800 
     77 C          -3.6050  -26.2582  -45.3876 C.2       13 UNK         0.5000 
     78 O          -3.5459  -27.4758  -45.2163 O.2       13 UNK        -0.5000 
     79 N          -2.5990  -25.5241  -45.8823 N.am      14 UNK        -0.5000 
     80 CA         -1.3400  -26.0628  -46.3976 C.3       14 UNK         0.1400 
     81 CB         -0.2551  -24.9790  -46.2699 C.3       14 UNK        -0.1800 
     82 C          -1.4559  -26.5497  -47.8583 C.2       14 UNK         0.5000 
     83 O          -0.5178  -27.1759  -48.3527 O.2       14 UNK        -0.5000 
     84 N          -2.5840  -26.2424  -48.5209 N.am      15 UNK        -0.5000 
     85 CA         -2.8936  -26.4855  -49.9339 C.3       15 UNK         0.1400 
     86 CB         -3.0490  -27.9952  -50.2094 C.3       15 UNK        -0.1800 
     87 C          -1.8980  -25.7885  -50.8852 C.2       15 UNK         0.5000 
     88 O          -1.5070  -26.3625  -51.9039 O.2       15 UNK        -0.5000 
     89 N          -1.4895  -24.5689  -50.5114 N.am      16 UNK        -0.5000 
     90 CA         -0.5346  -23.7411  -51.2395 C.3       16 UNK         0.1400 
     91 CB          0.3346  -22.9849  -50.2152 C.3       16 UNK        -0.1800 
     92 C          -1.2600  -22.8349  -52.2567 C.2       16 UNK         0.5000 
     93 O          -2.1679  -23.2961  -52.9524 O.2       16 UNK        -0.5000 
     94 N          -0.8394  -21.5666  -52.3589 N.am      17 UNK        -0.5000 
     95 CA         -1.3407  -20.5926  -53.3302 C.3       17 UNK         0.1400 
     96 CB         -0.4981  -19.3132  -53.2651 C.3       17 UNK        -0.1800 
     97 C          -2.8453  -20.2933  -53.2040 C.2       17 UNK         0.5000 
     98 O          -3.5093  -20.1618  -54.2312 O.2       17 UNK        -0.5000 
     99 N          -3.3916  -20.2977  -51.9809 N.am      18 UNK        -0.5000 
    100 CA        -4.8288  -20.1743  -51.6920 C.3       18 UNK         0.1400 
    101 CB        -5.0196  -19.6368  -50.2670 C.3       18 UNK        -0.1800 
    102 C         -5.6174  -21.4781  -51.9504 C.2       18 UNK         0.5000 
    103 O         -6.5243  -21.8273  -51.1942 O.2       18 UNK        -0.5000 
    104 N         -5.2525  -22.1621  -53.0342 N.am      19 UNK        -0.5000 
    105 CA        -5.8465  -23.3723  -53.5787 C.3       19 UNK         0.1400 
    106 CB        -5.5187  -24.5978  -52.7034 C.3       19 UNK        -0.1800 
    107 C         -5.3278  -23.5464  -55.0130 C.2       19 UNK         0.5000 
    108 O         -6.1235  -23.7645  -55.9266 O.2       19 UNK        -0.5000 
    109 N         -4.0042  -23.4166  -55.1883 N.am      20 UNK        -0.5000 
    110 CA        -3.3196  -23.5970  -56.4682 C.3       20 UNK         0.1400 
    111 CB        -1.8462  -23.9384  -56.1956 C.3       20 UNK        -0.1800 
    112 C         -3.4126  -22.3885  -57.4210 C.2       20 UNK         0.5000 
    113 O         -3.3437  -22.5918  -58.6343 O.2       20 UNK        -0.5000 
    114 N         -3.5264  -21.1670  -56.8803 N.am      21 UNK        -0.5000 
    115 CA        -3.4397  -19.9163  -57.6350 C.3       21 UNK         0.1400 
    116 CB        -2.1014  -19.2215  -57.3184 C.3       21 UNK        -0.1800 
    117 C         -4.6449  -19.0057  -57.3537 C.2       21 UNK         0.5000 
    118 O         -5.5011  -18.8554  -58.2264 O.2       21 UNK        -0.5000 
    119 N         -4.6888  -18.4030  -56.1583 N.am      22 UNK        -0.5000 
    120 CA        -5.7332  -17.4527  -55.7353 C.3       22 UNK         0.1400 
    121 C         -7.0034  -18.1207  -55.1277 C.2       22 UNK         0.5000 
    122 N         -7.0368  -19.4348  -54.9404 N.am      22 UNK        -0.7600 
    123 O         -7.9830  -17.4373  -54.8422 O.2       22 UNK        -0.5000 
    124 C124       -5.1606  -16.3161  -54.8417 C.3       23 UNK        -0.0398 
    125 S125       -4.5628  -16.8776  -53.2132 S.3       23 UNK        -0.2404 
    126 C126       -3.6010  -15.4504  -52.6247 C.3       23 UNK        -0.0205 
    127 H127        2.0168  -14.3221  -50.2526 H         1 UNK         0.0600 
    128 H128        1.7219  -16.0172  -49.8534 H         1 UNK         0.0600 
    129 H129        0.3622  -14.9279  -50.1525 H         1 UNK         0.0600 
    130 H130       -0.6759  -14.4407  -48.2390 H         1 UNK         0.3000 
    131 H131        0.3713  -14.8888  -45.6863 H         1 UNK         0.0600 
    132 H132       -1.7492  -13.6687  -44.8883 H         1 UNK         0.0800 
    133 H133       -1.9459  -15.0944  -45.8343 H         1 UNK         0.0800 
    134 H134       -4.7299  -13.9364  -47.9617 H         1 UNK         0.0800 
    135 H135       -4.0760  -15.0938  -46.8397 H         1 UNK         0.0800 
    136 H136       -4.3756  -14.1848  -50.3169 H         1 UNK         0.1150 
    137 H137       -1.7483  -17.2291  -51.7786 H         1 UNK         0.1150 
    138 H138       -1.9897  -16.4624  -47.5772 H         1 UNK         0.1150 
    139 H139        0.0681  -17.9791  -50.1635 H         1 UNK         0.0800 
    140 H140       -0.1715  -17.8323  -48.4481 H         1 UNK         0.0800 
    141 H141       -1.9103  -18.8769  -47.1647 H         1 UNK         0.0800 
    142 H142       -3.3615  -19.4182  -47.9204 H         1 UNK         0.0800 
    143 H143       -1.1253  -21.3612  -47.1612 H         1 UNK         0.0600 
    144 H144       -1.3578  -20.9953  -45.0768 H         1 UNK         0.3000 
    145 H145       -3.9817  -19.9678  -42.8501 H         1 UNK         0.0600 
    146 H146       -2.4524  -21.4172  -41.5679 H         1 UNK         0.0600 
    147 H147       -3.2657  -22.3581  -42.8060 H         1 UNK         0.0600 
    148 H148       -1.5866  -21.8778  -43.0281 H         1 UNK         0.0600 
    149 H149       -1.1468  -19.4701  -42.7576 H         1 UNK         0.3000 
    150 H150       -1.3147  -16.0215  -43.6705 H         1 UNK         0.0600 
    151 H151       -1.8065  -16.0912  -41.2267 H         1 UNK         0.0600 
    152 H152       -0.0946  -15.8249  -41.5243 H         1 UNK         0.0600 
    153 H153       -0.6645  -17.4145  -41.0213 H         1 UNK         0.0600 
    154 H154        0.8687  -17.7013  -42.9548 H         1 UNK         0.3000 
    155 H155        1.5323  -19.0196  -46.2124 H         1 UNK         0.0600 
    156 H156        3.7691  -18.0153  -45.6681 H         1 UNK         0.0600 
    157 H157        2.9922  -16.9045  -44.5373 H         1 UNK         0.0600 
    158 H158        2.6290  -16.8177  -46.2537 H         1 UNK         0.0600 
    159 H159        2.7511  -19.2244  -43.5872 H         1 UNK         0.3000 
    160 H160        1.0921  -22.2143  -42.6362 H         1 UNK         0.0600 
    161 H161        3.9647  -21.7922  -43.6233 H         1 UNK         0.0600 
    162 H162        2.8477  -23.0147  -44.2190 H         1 UNK         0.0600 
    163 H163        3.4119  -23.0843  -42.5573 H         1 UNK         0.0600 
    164 H164        3.2594  -20.7107  -41.5014 H         1 UNK         0.3000 
    165 H165        1.2278  -18.5258  -39.5321 H         1 UNK         0.0600 
    166 H166        3.0714  -20.8645  -38.8090 H         1 UNK         0.0600 
    167 H167        2.5909  -19.5430  -37.7442 H         1 UNK         0.0600 
    168 H168        1.3943  -20.7002  -38.3026 H         1 UNK         0.0600 
    169 H169        4.0097  -18.6496  -39.5999 H         1 UNK         0.3000 
    170 H170        5.0729  -16.7290  -40.3739 H         1 UNK         0.0600 
    171 H171        5.7419  -18.5568  -41.9448 H         1 UNK         0.0600 
    172 H172        5.0429  -17.6790  -43.2994 H         1 UNK         0.0600 
    173 H173        6.4405  -17.0262  -42.4479 H         1 UNK         0.0600 
    174 H174        4.3943  -15.3549  -42.8637 H         1 UNK         0.3000 
    175 H175        2.2452  -13.2177  -41.8914 H         1 UNK         0.0600 
    176 H176        3.4379  -11.0250  -41.7253 H         1 UNK         0.0600 
    177 H177        3.3822  -11.8639  -40.1846 H         1 UNK         0.0600 
    178 H178        4.8719  -11.8508  -41.1157 H         1 UNK         0.0600 
    179 H179        2.8928  -13.1048  -43.9647 H         1 UNK         0.3000 
    180 H180        5.8064  -12.2426  -45.6499 H         1 UNK         0.0600 
    181 H181        5.4058  -14.1986  -47.1469 H         1 UNK         0.0600 
    182 H182        6.2425  -14.6927  -45.6828 H         1 UNK         0.0600 
    183 H183        4.5233  -15.0196  -45.8615 H         1 UNK         0.0600 
    184 H184        3.1968  -13.0441  -46.5513 H         1 UNK         0.3000 
    185 H185        1.4292  -10.1424  -45.6848 H         1 UNK         0.0600 
    186 H186        1.0994   -9.6463  -48.0959 H         1 UNK         0.0600 
    187 H187        2.6812   -9.0869  -47.5782 H         1 UNK         0.0600 
    188 H188        2.5427  -10.5727  -48.5108 H         1 UNK         0.0600 
    189 H189        0.8423  -12.1276  -47.6346 H         1 UNK         0.3000 
    190 H190       -4.6863  -21.2495  -46.7823 H         1 UNK         0.3000 
    191 H191       -5.2176  -23.0860  -48.9478 H         1 UNK         0.0600 
    192 H192       -7.5634  -22.9457  -48.0983 H         1 UNK         0.0600 
    193 H193       -6.8484  -21.3516  -48.2660 H         1 UNK         0.0600 
    194 H194       -7.0079  -22.0803  -46.6680 H         1 UNK         0.0600 
    195 H195       -5.0036  -23.4087  -45.4002 H         1 UNK         0.3000 
    196 H196       -5.7428  -26.1776  -45.2563 H         1 UNK         0.0600 
    197 H197       -4.8860  -26.0069  -42.9384 H         1 UNK         0.0600 
    198 H198       -5.8676  -24.6000  -43.3156 H         1 UNK         0.0600 
    199 H199       -4.1071  -24.4745  -43.3013 H         1 UNK         0.0600 
    200 H200       -2.7431  -24.5329  -46.0037 H         1 UNK         0.3000 
    201 H201       -1.0401  -26.9178  -45.7882 H         1 UNK         0.0600 
    202 H202       -0.1525  -24.6398  -45.2389 H         1 UNK         0.0600 
    203 H203       -0.4750  -24.1085  -46.8882 H         1 UNK         0.0600 
    204 H204        0.7172  -25.3616  -46.5826 H         1 UNK         0.0600 
    205 H205       -3.2987  -25.7352  -48.0162 H         1 UNK         0.3000 
    206 H206       -3.8617  -26.0174  -50.1180 H         1 UNK         0.0600 
    207 H207       -3.7706  -28.4465  -49.5284 H         1 UNK         0.0600 
    208 H208       -3.4075  -28.1716  -51.2241 H         1 UNK         0.0600 
    209 H209       -2.1040  -28.5276  -50.0991 H         1 UNK         0.0600 
    210 H210       -1.8868  -24.1559  -49.6718 H         1 UNK         0.3000 
    211 H211        0.1323  -24.3821  -51.8192 H         1 UNK         0.0600 
    212 H212       -0.2598  -22.3129  -49.5981 H         1 UNK         0.0600 
    213 H213        1.1178  -22.4009  -50.6996 H         1 UNK         0.0600 
    214 H214        0.8334  -23.6837  -49.5431 H         1 UNK         0.0600 
    215 H215       -0.1046  -21.2518  -51.7424 H         1 UNK         0.3000 
    216 H216       -1.1971  -21.0241  -54.3229 H         1 UNK         0.0600 
    217 H217       -0.9309  -18.5180  -53.8739 H         1 UNK         0.0600 
    218 H218        0.5108  -19.4927  -53.6367 H         1 UNK         0.0600 
    219 H219       -0.4106  -18.9455  -52.2454 H         1 UNK         0.0600 
    220 H220       -2.7827  -20.4352  -51.1857 H         1 UNK         0.3000 
    221 H221       -5.2569  -19.4402  -52.3733 H         1 UNK         0.0600 
    222 H222       -4.6910  -20.3664  -49.5307 H         1 UNK         0.0600 
    223 H223       -4.4594  -18.7138  -50.1136 H         1 UNK         0.0600 
    224 H224       -6.0685  -19.4162  -50.0665 H         1 UNK         0.0600 
    225 H225       -4.5200  -21.7479  -53.5984 H         1 UNK         0.3000 
    226 H226       -6.9297  -23.2410  -53.6200 H         1 UNK         0.0600 
    227 H227       -5.9344  -25.5077  -53.1374 H         1 UNK         0.0600 
    228 H228       -4.4434  -24.7448  -52.6000 H         1 UNK         0.0600 
    229 H229       -5.9374  -24.4965  -51.7022 H         1 UNK         0.0600 
    230 H230       -3.4055  -23.3141  -54.3709 H         1 UNK         0.3000 
    231 H231       -3.7688  -24.4512  -56.9798 H         1 UNK         0.0600 
    232 H232       -1.3115  -24.1385  -57.1250 H         1 UNK         0.0600 
    233 H233       -1.7559  -24.8274  -55.5707 H         1 UNK         0.0600 
    234 H234       -1.3309  -23.1213  -55.6898 H         1 UNK         0.0600 
    235 H235       -3.5970  -21.0661  -55.8729 H         1 UNK         0.3000 
    236 H236       -3.4529  -20.1157  -58.7085 H         1 UNK         0.0600 
    237 H237       -1.9727  -19.0406  -56.2512 H         1 UNK         0.0600 
    238 H238       -1.2599  -19.8282  -57.6530 H         1 UNK         0.0600 
    239 H239       -2.0299  -18.2594  -57.8271 H         1 UNK         0.0600 
    240 H240       -4.0126  -18.6639  -55.4489 H         1 UNK         0.3000 
    241 H241       -6.0976  -16.9547  -56.6358 H         1 UNK         0.0600 
    242 H242       -7.8687  -19.8621  -54.5661 H         1 UNK         0.3800 
    243 H243       -6.2416  -19.9978  -55.1916 H         1 UNK         0.3800 
    244 H244       -5.9162  -15.5452  -54.6817 H         1 UNK         0.0800 
    245 H245       -4.3390  -15.8233  -55.3631 H         1 UNK         0.0800 
    246 H246       -2.7450  -15.2894  -53.2813 H         1 UNK         0.0800 
    247 H247       -4.2162  -14.5510  -52.6789 H         1 UNK         0.0800 
@<TRIPOS>BOND
     1    1    2 1    
     2    1  127 1    
     3    1  128 1    
     4    1  129 1    
     5    2    3 2    
     6    2    4 am   BACKBONE|DICT|INTERRES
     7    4    5 1    
     8    4  130 1    
     9    5    6 1    
    10    5   65 1    
    11    5  131 1    
    12    6    7 1    
    13    6  132 1    
    14    6  133 1    
    15    7    8 1    
    16    8    9 1    
    17    8  134 1    
    18    8  135 1    
    19    9   10 ar   
    20    9   14 ar   
    21   10   11 ar   
    22   10  136 1    
    23   11   12 ar   
    24   11  126 1    
    25   12   13 ar   
    26   12  137 1    
    27   13   14 ar   
    28   13   15 1    
    29   14  138 1    
    30   15   16 1    
    31   15  139 1    
    32   15  140 1    
    33   16   17 1    
    34   17   18 1    
    35   17  141 1    
    36   17  142 1    
    37   18   19 1    
    38   18   67 1    
    39   18  143 1    
    40   19   20 am   BACKBONE|DICT|INTERRES
    41   19  144 1    
    42   20   21 2    
    43   20   22 1    
    44   22   23 1    
    45   22   24 1    
    46   22  145 1    
    47   23  146 1    
    48   23  147 1    
    49   23  148 1    
    50   24   25 am   BACKBONE|DICT|INTERRES
    51   24  149 1    
    52   25   26 2    
    53   25   27 1    
    54   27   28 1    
    55   27   29 1    
    56   27  150 1    
    57   28  151 1    
    58   28  152 1    
    59   28  153 1    
    60   29   30 am   BACKBONE|DICT|INTERRES
    61   29  154 1    
    62   30   31 2    
    63   30   32 1    
    64   32   33 1    
    65   32   34 1    
    66   32  155 1    
    67   33  156 1    
    68   33  157 1    
    69   33  158 1    
    70   34   35 am   BACKBONE|DICT|INTERRES
    71   34  159 1    
    72   35   36 2    
    73   35   37 1    
    74   37   38 1    
    75   37   39 1    
    76   37  160 1    
    77   38  161 1    
    78   38  162 1    
    79   38  163 1    
    80   39   40 am   BACKBONE|DICT|INTERRES
    81   39  164 1    
    82   40   41 2    
    83   40   42 1    
    84   42   43 1    
    85   42   44 1    
    86   42  165 1    
    87   43  166 1    
    88   43  167 1    
    89   43  168 1    
    90   44   45 am   BACKBONE|DICT|INTERRES
    91   44  169 1    
    92   45   46 2    
    93   45   47 1    
    94   47   48 1    
    95   47   49 1    
    96   47  170 1    
    97   48  171 1    
    98   48  172 1    
    99   48  173 1    
   100   49   50 am   BACKBONE|DICT|INTERRES
   101   49  174 1    
   102   50   51 2    
   103   50   52 1    
   104   52   53 1    
   105   52   54 1    
   106   52  175 1    
   107   53  176 1    
   108   53  177 1    
   109   53  178 1    
   110   54   55 am   BACKBONE|DICT|INTERRES
   111   54  179 1    
   112   55   56 2    
   113   55   57 1    
   114   57   58 1    
   115   57   59 1    
   116   57  180 1    
   117   58  181 1    
   118   58  182 1    
   119   58  183 1    
   120   59   60 am   BACKBONE|DICT|INTERRES
   121   59  184 1    
   122   60   61 2    
   123   60   62 1    
   124   62   63 1    
   125   62   64 1    
   126   62  185 1    
   127   63  186 1    
   128   63  187 1    
   129   63  188 1    
   130   64   65 am   BACKBONE|DICT|INTERRES
   131   64  189 1    
   132   65   66 2    
   133   67   68 2    
   134   67   69 am   BACKBONE|DICT|INTERRES
   135   69   70 1    
   136   69  190 1    
   137   70   71 1    
   138   70   72 1    
   139   70  191 1    
   140   71  192 1    
   141   71  193 1    
   142   71  194 1    
   143   72   73 2    
   144   72   74 am   BACKBONE|DICT|INTERRES
   145   74   75 1    
   146   74  195 1    
   147   75   76 1    
   148   75   77 1    
   149   75  196 1    
   150   76  197 1    
   151   76  198 1    
   152   76  199 1    
   153   77   78 2    
   154   77   79 am   BACKBONE|DICT|INTERRES
   155   79   80 1    
   156   79  200 1    
   157   80   81 1    
   158   80   82 1    
   159   80  201 1    
   160   81  202 1    
   161   81  203 1    
   162   81  204 1    
   163   82   83 2    
   164   82   84 am   BACKBONE|DICT|INTERRES
   165   84   85 1    
   166   84  205 1    
   167   85   86 1    
   168   85   87 1    
   169   85  206 1    
   170   86  207 1    
   171   86  208 1    
   172   86  209 1    
   173   87   88 2    
   174   87   89 am   BACKBONE|DICT|INTERRES
   175   89   90 1    
   176   89  210 1    
   177   90   91 1    
   178   90   92 1    
   179   90  211 1    
   180   91  212 1    
   181   91  213 1    
   182   91  214 1    
   183   92   93 2    
   184   92   94 am   BACKBONE|DICT|INTERRES
   185   94   95 1    
   186   94  215 1    
   187   95   96 1    
   188   95   97 1    
   189   95  216 1    
   190   96  217 1    
   191   96  218 1    
   192   96  219 1    
   193   97   98 2    
   194   97   99 am   BACKBONE|DICT|INTERRES
   195   99  100 1    
   196   99  220 1    
   197  100  101 1    
   198  100  102 1    
   199  100  221 1    
   200  101  222 1    
   201  101  223 1    
   202  101  224 1    
   203  102  103 2    
   204  102  104 am   BACKBONE|DICT|INTERRES
   205  104  105 1    
   206  104  225 1    
   207  105  106 1    
   208  105  107 1    
   209  105  226 1    
   210  106  227 1    
   211  106  228 1    
   212  106  229 1    
   213  107  108 2    
   214  107  109 am   BACKBONE|DICT|INTERRES
   215  109  110 1    
   216  109  230 1    
   217  110  111 1    
   218  110  112 1    
   219  110  231 1    
   220  111  232 1    
   221  111  233 1    
   222  111  234 1    
   223  112  113 2    
   224  112  114 am   BACKBONE|DICT|INTERRES
   225  114  115 1    
   226  114  235 1    
   227  115  116 1    
   228  115  117 1    
   229  115  236 1    
   230  116  237 1    
   231  116  238 1    
   232  116  239 1    
   233  117  118 2    
   234  117  119 am   BACKBONE|DICT|INTERRES
   235  119  120 1    
   236  119  240 1    
   237  120  121 1    
   238  120  124 1    
   239  120  241 1    
   240  121  122 am   BACKBONE|DICT|INTERRES
   241  121  123 2    
   242  122  242 1    
   243  122  243 1    
   244  124  125 1    
   245  124  244 1    
   246  124  245 1    
   247  125  126 1    
   248  126  246 1    
   249  126  247 1    
@<TRIPOS>SUBSTRUCTURE
     1 UNK         1 GROUP             0       ****    0 ROOT    
