@<TRIPOS>MOLECULE
3R540
247   249    1
SMALL
USER_CHARGES


@<TRIPOS>ATOM
      1 CA          0.7118   -9.9456  -50.3418 C.3       0 UNK        -0.1800 
      2 C           1.3198  -11.2069  -49.7451 C.2       0 UNK         0.5000 
      3 O           0.8256  -11.7020  -48.7332 O.2       0 UNK        -0.5000 
      4 N           2.4001  -11.7115  -50.3583 N.am      1 UNK        -0.5000 
      5 CA          3.1321  -12.9427  -50.0097 C.3       1 UNK         0.1400 
      6 C6          2.2544  -14.2262  -50.0617 C.3       23 UNK        -0.0398 
      7 S7          1.6297  -14.5768  -51.7407 S.3       23 UNK        -0.2404 
      8 C8          2.7427  -15.9183  -52.2745 C.3       23 UNK        -0.0205 
      9 C9          2.3538  -17.2618  -51.6722 C.ar      23 UNK        -0.0193 
     10 C10         1.3700  -18.0455  -52.2860 C.ar      23 UNK        -0.1150 
     11 C11         1.0168  -19.2872  -51.7493 C.ar      23 UNK        -0.0193 
     12 C12         1.6505  -19.7376  -50.5918 C.ar      23 UNK        -0.1150 
     13 C13         2.6117  -18.9544  -49.9505 C.ar      23 UNK        -0.0193 
     14 C14         2.9763  -17.7262  -50.5076 C.ar      23 UNK        -0.1150 
     15 C15         3.2395  -19.4356  -48.6504 C.3       23 UNK        -0.0205 
     16 S16         2.4740  -18.6797  -47.1729 S.3       23 UNK        -0.2404 
     17 C17         0.6868  -18.9975  -47.3956 C.3       23 UNK        -0.0398 
     18 CA          0.3098  -20.4957  -47.3294 C.3       11 UNK         0.1400 
     19 N           0.5829  -21.1024  -46.0255 N.am      11 UNK        -0.5000 
     20 C           0.5673  -22.4229  -45.7981 C.2       10 UNK         0.5000 
     21 O           0.3632  -23.2638  -46.6736 O.2       10 UNK        -0.5000 
     22 CA          0.7566  -22.8776  -44.3421 C.3       10 UNK         0.1400 
     23 CB          2.2452  -22.9269  -43.9657 C.3       10 UNK        -0.1800 
     24 N           0.0335  -22.0136  -43.4095 N.am      10 UNK        -0.5000 
     25 C          -1.3017  -21.9796  -43.2977 C.2       9 UNK         0.5000 
     26 O          -2.0594  -22.7034  -43.9439 O.2       9 UNK        -0.5000 
     27 CA         -1.8892  -20.9337  -42.3328 C.3       9 UNK         0.1400 
     28 CB         -1.8663  -21.4541  -40.8881 C.3       9 UNK        -0.1800 
     29 N          -1.1893  -19.6503  -42.3949 N.am      9 UNK        -0.5000 
     30 C          -1.1916  -18.8365  -43.4611 C.2       8 UNK         0.5000 
     31 O          -1.7990  -19.0758  -44.5027 O.2       8 UNK        -0.5000 
     32 CA         -0.3373  -17.5597  -43.3638 C.3       8 UNK         0.1400 
     33 CB         -1.1343  -16.4605  -42.6455 C.3       8 UNK        -0.1800 
     34 N           0.9347  -17.7540  -42.6666 N.am      8 UNK        -0.5000 
     35 C           1.8538  -18.6960  -42.9263 C.2       7 UNK         0.5000 
     36 O           1.7556  -19.5117  -43.8417 O.2       7 UNK        -0.5000 
     37 CA          3.0663  -18.7663  -41.9769 C.3       7 UNK         0.1400 
     38 CB          4.3196  -18.1979  -42.6589 C.3       7 UNK        -0.1800 
     39 N           2.8541  -18.0606  -40.7101 N.am      7 UNK        -0.5000 
     40 C           1.9672  -18.3966  -39.7641 C.2       6 UNK         0.5000 
     41 O           1.2445  -19.3920  -39.8283 O.2       6 UNK        -0.5000 
     42 CA          1.8203  -17.4220  -38.5802 C.3       6 UNK         0.1400 
     43 CB          3.1782  -17.0458  -37.9510 C.3       6 UNK        -0.1800 
     44 N           1.0358  -16.2248  -38.9169 N.am      6 UNK        -0.5000 
     45 C           1.3216  -15.2667  -39.8107 C.2       5 UNK         0.5000 
     46 O           2.3258  -15.2631  -40.5293 O.2       5 UNK        -0.5000 
     47 CA          0.3106  -14.1149  -39.9190 C.3       5 UNK         0.1400 
     48 CB          0.3786  -13.1917  -38.6893 C.3       5 UNK        -0.1800 
     49 N           0.6088  -13.3495  -41.1237 N.am      5 UNK        -0.5000 
     50 C          -0.2564  -12.6212  -41.8374 C.2       4 UNK         0.5000 
     51 O          -1.4403  -12.4759  -41.5308 O.2       4 UNK        -0.5000 
     52 CA          0.2870  -11.9380  -43.1089 C.3       4 UNK         0.1400 
     53 CB          0.5379  -10.4444  -42.8507 C.3       4 UNK        -0.1800 
     54 N           1.5264  -12.5425  -43.6028 N.am      4 UNK        -0.5000 
     55 C           1.6051  -13.6938  -44.2795 C.2       3 UNK         0.5000 
     56 O           0.6205  -14.3523  -44.6156 O.2       3 UNK        -0.5000 
     57 CA          3.0251  -14.1658  -44.6543 C.3       3 UNK         0.1400 
     58 CB          3.0392  -15.6085  -45.1878 C.3       3 UNK        -0.1800 
     59 N           3.6368  -13.3054  -45.6630 N.am      3 UNK        -0.5000 
     60 C           4.0865  -12.0560  -45.5084 C.2       2 UNK         0.5000 
     61 O           4.0821  -11.4660  -44.4267 O.2       2 UNK        -0.5000 
     62 CA          4.6155  -11.3284  -46.7651 C.3       2 UNK         0.1400 
     63 CB          6.1445  -11.4749  -46.8802 C.3       2 UNK        -0.1800 
     64 N           3.9509  -11.6840  -48.0319 N.am      2 UNK        -0.5000 
     65 C           3.9325  -12.8557  -48.6872 C.2       1 UNK         0.5000 
     66 O           4.5245  -13.8577  -48.2848 O.2       1 UNK        -0.5000 
     67 C          -1.1456  -20.7308  -47.7858 C.2       11 UNK         0.5000 
     68 O          -1.3644  -21.0417  -48.9564 O.2       11 UNK        -0.5000 
     69 N          -2.1096  -20.6383  -46.8576 N.am      12 UNK        -0.5000 
     70 CA         -3.5142  -20.9721  -47.0971 C.3       12 UNK         0.1400 
     71 CB         -4.3718  -20.5651  -45.8907 C.3       12 UNK        -0.1800 
     72 C          -3.7137  -22.4599  -47.4295 C.2       12 UNK         0.5000 
     73 O          -4.4588  -22.7705  -48.3578 O.2       12 UNK        -0.5000 
     74 N          -3.0199  -23.3502  -46.7050 N.am      13 UNK        -0.5000 
     75 CA         -3.0091  -24.7929  -46.9580 C.3       13 UNK         0.1400 
     76 CB         -2.2581  -25.5192  -45.8328 C.3       13 UNK        -0.1800 
     77 C          -2.4240  -25.1506  -48.3374 C.2       13 UNK         0.5000 
     78 O          -3.0034  -25.9793  -49.0400 O.2       13 UNK        -0.5000 
     79 N          -1.3314  -24.4780  -48.7295 N.am      14 UNK        -0.5000 
     80 CA         -0.7197  -24.5780  -50.0593 C.3       14 UNK         0.1400 
     81 CB          0.6083  -23.8086  -50.0724 C.3       14 UNK        -0.1800 
     82 C          -1.6488  -24.0896  -51.1901 C.2       14 UNK         0.5000 
     83 O          -1.6336  -24.6622  -52.2793 O.2       14 UNK        -0.5000 
     84 N          -2.4897  -23.0918  -50.8874 N.am      15 UNK        -0.5000 
     85 CA         -3.5739  -22.5946  -51.7359 C.3       15 UNK         0.1400 
     86 CB         -3.8435  -21.1208  -51.3836 C.3       15 UNK        -0.1800 
     87 C          -4.8638  -23.4440  -51.6421 C.2       15 UNK         0.5000 
     88 O          -5.9290  -22.9539  -52.0157 O.2       15 UNK        -0.5000 
     89 N          -4.7700  -24.6856  -51.1411 N.am      16 UNK        -0.5000 
     90 CA         -5.8461  -25.6740  -51.0037 C.3       16 UNK         0.1400 
     91 CB         -6.3718  -26.1031  -52.3908 C.3       16 UNK        -0.1800 
     92 C          -6.9653  -25.2019  -50.0544 C.2       16 UNK         0.5000 
     93 O          -8.1438  -25.2719  -50.4019 O.2       16 UNK        -0.5000 
     94 N          -6.5630  -24.6871  -48.8839 N.am      17 UNK        -0.5000 
     95 CA         -7.4006  -24.0251  -47.8743 C.3       17 UNK         0.1400 
     96 CB         -8.4343  -24.9976  -47.2685 C.3       17 UNK        -0.1800 
     97 C          -8.0237  -22.7218  -48.4186 C.2       17 UNK         0.5000 
     98 O          -9.1871  -22.4213  -48.1470 O.2       17 UNK        -0.5000 
     99 N          -7.2185  -21.9912  -49.2038 N.am      18 UNK        -0.5000 
    100 CA        -7.5303  -20.7545  -49.9275 C.3       18 UNK         0.1400 
    101 CB        -7.8165  -19.6050  -48.9397 C.3       18 UNK        -0.1800 
    102 C         -8.6231  -20.9005  -51.0123 C.2       18 UNK         0.5000 
    103 O         -9.1918  -19.8928  -51.4368 O.2       18 UNK        -0.5000 
    104 N         -8.8942  -22.1347  -51.4605 N.am      19 UNK        -0.5000 
    105 CA        -9.8269  -22.4318  -52.5501 C.3       19 UNK         0.1400 
    106 CB       -10.3500  -23.8670  -52.3913 C.3       19 UNK        -0.1800 
    107 C         -9.1859  -22.2507  -53.9393 C.2       19 UNK         0.5000 
    108 O         -9.9082  -22.0262  -54.9119 O.2       19 UNK        -0.5000 
    109 N         -7.8552  -22.3594  -54.0084 N.am      20 UNK        -0.5000 
    110 CA        -7.0333  -22.1876  -55.2002 C.3       20 UNK         0.1400 
    111 CB        -6.3780  -23.5422  -55.5389 C.3       20 UNK        -0.1800 
    112 C         -6.0073  -21.0651  -54.9483 C.2       20 UNK         0.5000 
    113 O         -6.2526  -20.1754  -54.1297 O.2       20 UNK        -0.5000 
    114 N         -4.8783  -21.1124  -55.6607 N.am      21 UNK        -0.5000 
    115 CA        -3.7533  -20.1928  -55.5426 C.3       21 UNK         0.1400 
    116 CB        -4.0331  -18.9123  -56.3506 C.3       21 UNK        -0.1800 
    117 C         -2.4884  -20.9035  -56.0447 C.2       21 UNK         0.5000 
    118 O         -2.5902  -21.9121  -56.7494 O.2       21 UNK        -0.5000 
    119 N         -1.3246  -20.3569  -55.6807 N.am      22 UNK        -0.5000 
    120 CA         0.0025  -20.8808  -56.0536 C.3       22 UNK         0.1400 
    121 C          0.5269  -20.3657  -57.4272 C.2       22 UNK         0.5000 
    122 N         -0.1709  -19.4733  -58.1197 N.am      22 UNK        -0.7600 
    123 O          1.5840  -20.7940  -57.8825 O.2       22 UNK        -0.5000 
    124 C124        1.0449  -20.6416  -54.9301 C.3       23 UNK        -0.0398 
    125 S125        0.5992  -21.4975  -53.3804 S.3       23 UNK        -0.2404 
    126 C126       -0.0750  -20.1377  -52.3780 C.3       23 UNK        -0.0205 
    127 H127       -0.3222  -10.1305  -50.6328 H         1 UNK         0.0600 
    128 H128        1.2578   -9.6092  -51.2235 H         1 UNK         0.0600 
    129 H129        0.7216   -9.1401  -49.6075 H         1 UNK         0.0600 
    130 H130        2.7530  -11.2338  -51.1763 H         1 UNK         0.3000 
    131 H131        3.8980  -13.0478  -50.7796 H         1 UNK         0.0600 
    132 H132        2.8122  -15.0931  -49.7128 H         1 UNK         0.0800 
    133 H133        1.4028  -14.1469  -49.3857 H         1 UNK         0.0800 
    134 H134        2.7090  -15.9870  -53.3628 H         1 UNK         0.0800 
    135 H135        3.7737  -15.6666  -52.0209 H         1 UNK         0.0800 
    136 H136        0.8772  -17.6835  -53.1772 H         1 UNK         0.1150 
    137 H137        1.3745  -20.6968  -50.1838 H         1 UNK         0.1150 
    138 H138        3.7361  -17.1300  -50.0227 H         1 UNK         0.1150 
    139 H139        3.1791  -20.5221  -48.5743 H         1 UNK         0.0800 
    140 H140        4.3039  -19.1965  -48.6519 H         1 UNK         0.0800 
    141 H141        0.3769  -18.5561  -48.3442 H         1 UNK         0.0800 
    142 H142        0.1499  -18.4435  -46.6242 H         1 UNK         0.0800 
    143 H143        0.9348  -21.0292  -48.0441 H         1 UNK         0.0600 
    144 H144        0.8233  -20.4745  -45.2634 H         1 UNK         0.3000 
    145 H145        0.3537  -23.8886  -44.2522 H         1 UNK         0.0600 
    146 H146        2.3819  -23.2770  -42.9425 H         1 UNK         0.0600 
    147 H147        2.7864  -23.6124  -44.6189 H         1 UNK         0.0600 
    148 H148        2.7219  -21.9506  -44.0530 H         1 UNK         0.0600 
    149 H149        0.5821  -21.3331  -42.9034 H         1 UNK         0.3000 
    150 H150       -2.9297  -20.7661  -42.6186 H         1 UNK         0.0600 
    151 H151       -2.3883  -22.4086  -40.8081 H         1 UNK         0.0600 
    152 H152       -2.3593  -20.7567  -40.2106 H         1 UNK         0.0600 
    153 H153       -0.8470  -21.6046  -40.5297 H         1 UNK         0.0600 
    154 H154       -0.6381  -19.3921  -41.5878 H         1 UNK         0.3000 
    155 H155       -0.1100  -17.2241  -44.3775 H         1 UNK         0.0600 
    156 H156       -2.0661  -16.2471  -43.1708 H         1 UNK         0.0600 
    157 H157       -1.3889  -16.7460  -41.6241 H         1 UNK         0.0600 
    158 H158       -0.5714  -15.5306  -42.5995 H         1 UNK         0.0600 
    159 H159        1.1294  -17.1235  -41.9036 H         1 UNK         0.3000 
    160 H160        3.2418  -19.8208  -41.7548 H         1 UNK         0.0600 
    161 H161        4.2305  -17.1255  -42.8349 H         1 UNK         0.0600 
    162 H162        4.4946  -18.6770  -43.6234 H         1 UNK         0.0600 
    163 H163        5.2076  -18.3633  -42.0487 H         1 UNK         0.0600 
    164 H164        3.3207  -17.1672  -40.6086 H         1 UNK         0.3000 
    165 H165        1.2498  -17.9518  -37.8155 H         1 UNK         0.0600 
    166 H166        3.0365  -16.4658  -37.0391 H         1 UNK         0.0600 
    167 H167        3.7425  -17.9394  -37.6811 H         1 UNK         0.0600 
    168 H168        3.8029  -16.4562  -38.6221 H         1 UNK         0.0600 
    169 H169        0.1723  -16.1356  -38.3992 H         1 UNK         0.3000 
    170 H170       -0.6890  -14.5468  -40.0018 H         1 UNK         0.0600 
    171 H171        1.3692  -12.7496  -38.5754 H         1 UNK         0.0600 
    172 H172       -0.3429  -12.3781  -38.7655 H         1 UNK         0.0600 
    173 H173        0.1536  -13.7363  -37.7718 H         1 UNK         0.0600 
    174 H174        1.5547  -13.4681  -41.4637 H         1 UNK         0.3000 
    175 H175       -0.4778  -12.0271  -43.8834 H         1 UNK         0.0600 
    176 H176        0.8644   -9.9370  -43.7588 H         1 UNK         0.0600 
    177 H177        1.3017  -10.2912  -42.0872 H         1 UNK         0.0600 
    178 H178       -0.3717   -9.9475  -42.5105 H         1 UNK         0.0600 
    179 H179        2.3858  -12.0253  -43.4492 H         1 UNK         0.3000 
    180 H180        3.6343  -14.1345  -43.7487 H         1 UNK         0.0600 
    181 H181        2.5018  -15.6929  -46.1333 H         1 UNK         0.0600 
    182 H182        2.5668  -16.2918  -44.4840 H         1 UNK         0.0600 
    183 H183        4.0575  -15.9620  -45.3505 H         1 UNK         0.0600 
    184 H184        3.7409  -13.7073  -46.5896 H         1 UNK         0.3000 
    185 H185        4.4015  -10.2693  -46.6134 H         1 UNK         0.0600 
    186 H186        6.6388  -11.1025  -45.9821 H         1 UNK         0.0600 
    187 H187        6.4471  -12.5144  -47.0086 H         1 UNK         0.0600 
    188 H188        6.5330  -10.9050  -47.7242 H         1 UNK         0.0600 
    189 H189        3.3993  -10.9424  -48.4397 H         1 UNK         0.3000 
    190 H190       -1.8749  -20.3043  -45.9264 H         1 UNK         0.3000 
    191 H191       -3.8521  -20.3930  -47.9587 H         1 UNK         0.0600 
    192 H192       -4.3055  -19.4930  -45.7054 H         1 UNK         0.0600 
    193 H193       -5.4231  -20.8005  -46.0621 H         1 UNK         0.0600 
    194 H194       -4.0619  -21.0813  -44.9819 H         1 UNK         0.0600 
    195 H195       -2.4667  -23.0214  -45.9205 H         1 UNK         0.3000 
    196 H196       -4.0455  -25.1361  -46.9415 H         1 UNK         0.0600 
    197 H197       -2.2757  -26.5988  -45.9864 H         1 UNK         0.0600 
    198 H198       -2.7150  -25.3214  -44.8630 H         1 UNK         0.0600 
    199 H199       -1.2138  -25.2135  -45.7784 H         1 UNK         0.0600 
    200 H200       -0.8816  -23.8528  -48.0666 H         1 UNK         0.3000 
    201 H201       -0.5023  -25.6317  -50.2451 H         1 UNK         0.0600 
    202 H202        1.2999  -24.1997  -49.3260 H         1 UNK         0.0600 
    203 H203        0.4554  -22.7514  -49.8649 H         1 UNK         0.0600 
    204 H204        1.0966  -23.8847  -51.0447 H         1 UNK         0.0600 
    205 H205       -2.4043  -22.6566  -49.9761 H         1 UNK         0.3000 
    206 H206       -3.2489  -22.6313  -52.7776 H         1 UNK         0.0600 
    207 H207       -2.9494  -20.5119  -51.5011 H         1 UNK         0.0600 
    208 H208       -4.6059  -20.6899  -52.0323 H         1 UNK         0.0600 
    209 H209       -4.1856  -21.0092  -50.3556 H         1 UNK         0.0600 
    210 H210       -3.8685  -24.9879  -50.7939 H         1 UNK         0.3000 
    211 H211       -5.3983  -26.5519  -50.5360 H         1 UNK         0.0600 
    212 H212       -6.8912  -25.2907  -52.9002 H         1 UNK         0.0600 
    213 H213       -7.0753  -26.9314  -52.3009 H         1 UNK         0.0600 
    214 H214       -5.5585  -26.4364  -53.0353 H         1 UNK         0.0600 
    215 H215       -5.5661  -24.5788  -48.7431 H         1 UNK         0.3000 
    216 H216       -6.7285  -23.7254  -47.0691 H         1 UNK         0.0600 
    217 H217       -8.9440  -24.5417  -46.4190 H         1 UNK         0.0600 
    218 H218       -7.9551  -25.9079  -46.9085 H         1 UNK         0.0600 
    219 H219       -9.2000  -25.2832  -47.9900 H         1 UNK         0.0600 
    220 H220       -6.2743  -22.3389  -49.3289 H         1 UNK         0.3000 
    221 H221       -6.6215  -20.4945  -50.4704 H         1 UNK         0.0600 
    222 H222       -8.7535  -19.7563  -48.4033 H         1 UNK         0.0600 
    223 H223       -7.0184  -19.5110  -48.2031 H         1 UNK         0.0600 
    224 H224       -7.8889  -18.6492  -49.4597 H         1 UNK         0.0600 
    225 H225       -8.3764  -22.9151  -51.0780 H         1 UNK         0.3000 
    226 H226      -10.6801  -21.7536  -52.4823 H         1 UNK         0.0600 
    227 H227      -10.7753  -24.0279  -51.4004 H         1 UNK         0.0600 
    228 H228      -11.1323  -24.0783  -53.1213 H         1 UNK         0.0600 
    229 H229       -9.5582  -24.6016  -52.5414 H         1 UNK         0.0600 
    230 H230       -7.3272  -22.4972  -53.1488 H         1 UNK         0.3000 
    231 H231       -7.6467  -21.8745  -56.0470 H         1 UNK         0.0600 
    232 H232       -5.6575  -23.8427  -54.7769 H         1 UNK         0.0600 
    233 H233       -5.8582  -23.5085  -56.4968 H         1 UNK         0.0600 
    234 H234       -7.1270  -24.3308  -55.6134 H         1 UNK         0.0600 
    235 H235       -4.7059  -21.8881  -56.2887 H         1 UNK         0.3000 
    236 H236       -3.6056  -19.9395  -54.4904 H         1 UNK         0.0600 
    237 H237       -4.9241  -18.4008  -55.9861 H         1 UNK         0.0600 
    238 H238       -3.2048  -18.2072  -56.2735 H         1 UNK         0.0600 
    239 H239       -4.1835  -19.1312  -57.4085 H         1 UNK         0.0600 
    240 H240       -1.3269  -19.5115  -55.1307 H         1 UNK         0.3000 
    241 H241       -0.0841  -21.9624  -56.1755 H         1 UNK         0.0600 
    242 H242       -1.0459  -19.1194  -57.7693 H         1 UNK         0.3800 
    243 H243        0.1782  -19.1542  -59.0101 H         1 UNK         0.3800 
    244 H244        1.1804  -19.5752  -54.7489 H         1 UNK         0.0800 
    245 H245        2.0235  -21.0212  -55.2290 H         1 UNK         0.0800 
    246 H246       -0.6760  -20.5762  -51.5812 H         1 UNK         0.0800 
    247 H247       -0.7550  -19.5257  -52.9706 H         1 UNK         0.0800 
@<TRIPOS>BOND
     1    1    2 1    
     2    1  127 1    
     3    1  128 1    
     4    1  129 1    
     5    2    3 2    
     6    2    4 am   BACKBONE|DICT|INTERRES
     7    4    5 1    
     8    4  130 1    
     9    5    6 1    
    10    5   65 1    
    11    5  131 1    
    12    6    7 1    
    13    6  132 1    
    14    6  133 1    
    15    7    8 1    
    16    8    9 1    
    17    8  134 1    
    18    8  135 1    
    19    9   10 ar   
    20    9   14 ar   
    21   10   11 ar   
    22   10  136 1    
    23   11   12 ar   
    24   11  126 1    
    25   12   13 ar   
    26   12  137 1    
    27   13   14 ar   
    28   13   15 1    
    29   14  138 1    
    30   15   16 1    
    31   15  139 1    
    32   15  140 1    
    33   16   17 1    
    34   17   18 1    
    35   17  141 1    
    36   17  142 1    
    37   18   19 1    
    38   18   67 1    
    39   18  143 1    
    40   19   20 am   BACKBONE|DICT|INTERRES
    41   19  144 1    
    42   20   21 2    
    43   20   22 1    
    44   22   23 1    
    45   22   24 1    
    46   22  145 1    
    47   23  146 1    
    48   23  147 1    
    49   23  148 1    
    50   24   25 am   BACKBONE|DICT|INTERRES
    51   24  149 1    
    52   25   26 2    
    53   25   27 1    
    54   27   28 1    
    55   27   29 1    
    56   27  150 1    
    57   28  151 1    
    58   28  152 1    
    59   28  153 1    
    60   29   30 am   BACKBONE|DICT|INTERRES
    61   29  154 1    
    62   30   31 2    
    63   30   32 1    
    64   32   33 1    
    65   32   34 1    
    66   32  155 1    
    67   33  156 1    
    68   33  157 1    
    69   33  158 1    
    70   34   35 am   BACKBONE|DICT|INTERRES
    71   34  159 1    
    72   35   36 2    
    73   35   37 1    
    74   37   38 1    
    75   37   39 1    
    76   37  160 1    
    77   38  161 1    
    78   38  162 1    
    79   38  163 1    
    80   39   40 am   BACKBONE|DICT|INTERRES
    81   39  164 1    
    82   40   41 2    
    83   40   42 1    
    84   42   43 1    
    85   42   44 1    
    86   42  165 1    
    87   43  166 1    
    88   43  167 1    
    89   43  168 1    
    90   44   45 am   BACKBONE|DICT|INTERRES
    91   44  169 1    
    92   45   46 2    
    93   45   47 1    
    94   47   48 1    
    95   47   49 1    
    96   47  170 1    
    97   48  171 1    
    98   48  172 1    
    99   48  173 1    
   100   49   50 am   BACKBONE|DICT|INTERRES
   101   49  174 1    
   102   50   51 2    
   103   50   52 1    
   104   52   53 1    
   105   52   54 1    
   106   52  175 1    
   107   53  176 1    
   108   53  177 1    
   109   53  178 1    
   110   54   55 am   BACKBONE|DICT|INTERRES
   111   54  179 1    
   112   55   56 2    
   113   55   57 1    
   114   57   58 1    
   115   57   59 1    
   116   57  180 1    
   117   58  181 1    
   118   58  182 1    
   119   58  183 1    
   120   59   60 am   BACKBONE|DICT|INTERRES
   121   59  184 1    
   122   60   61 2    
   123   60   62 1    
   124   62   63 1    
   125   62   64 1    
   126   62  185 1    
   127   63  186 1    
   128   63  187 1    
   129   63  188 1    
   130   64   65 am   BACKBONE|DICT|INTERRES
   131   64  189 1    
   132   65   66 2    
   133   67   68 2    
   134   67   69 am   BACKBONE|DICT|INTERRES
   135   69   70 1    
   136   69  190 1    
   137   70   71 1    
   138   70   72 1    
   139   70  191 1    
   140   71  192 1    
   141   71  193 1    
   142   71  194 1    
   143   72   73 2    
   144   72   74 am   BACKBONE|DICT|INTERRES
   145   74   75 1    
   146   74  195 1    
   147   75   76 1    
   148   75   77 1    
   149   75  196 1    
   150   76  197 1    
   151   76  198 1    
   152   76  199 1    
   153   77   78 2    
   154   77   79 am   BACKBONE|DICT|INTERRES
   155   79   80 1    
   156   79  200 1    
   157   80   81 1    
   158   80   82 1    
   159   80  201 1    
   160   81  202 1    
   161   81  203 1    
   162   81  204 1    
   163   82   83 2    
   164   82   84 am   BACKBONE|DICT|INTERRES
   165   84   85 1    
   166   84  205 1    
   167   85   86 1    
   168   85   87 1    
   169   85  206 1    
   170   86  207 1    
   171   86  208 1    
   172   86  209 1    
   173   87   88 2    
   174   87   89 am   BACKBONE|DICT|INTERRES
   175   89   90 1    
   176   89  210 1    
   177   90   91 1    
   178   90   92 1    
   179   90  211 1    
   180   91  212 1    
   181   91  213 1    
   182   91  214 1    
   183   92   93 2    
   184   92   94 am   BACKBONE|DICT|INTERRES
   185   94   95 1    
   186   94  215 1    
   187   95   96 1    
   188   95   97 1    
   189   95  216 1    
   190   96  217 1    
   191   96  218 1    
   192   96  219 1    
   193   97   98 2    
   194   97   99 am   BACKBONE|DICT|INTERRES
   195   99  100 1    
   196   99  220 1    
   197  100  101 1    
   198  100  102 1    
   199  100  221 1    
   200  101  222 1    
   201  101  223 1    
   202  101  224 1    
   203  102  103 2    
   204  102  104 am   BACKBONE|DICT|INTERRES
   205  104  105 1    
   206  104  225 1    
   207  105  106 1    
   208  105  107 1    
   209  105  226 1    
   210  106  227 1    
   211  106  228 1    
   212  106  229 1    
   213  107  108 2    
   214  107  109 am   BACKBONE|DICT|INTERRES
   215  109  110 1    
   216  109  230 1    
   217  110  111 1    
   218  110  112 1    
   219  110  231 1    
   220  111  232 1    
   221  111  233 1    
   222  111  234 1    
   223  112  113 2    
   224  112  114 am   BACKBONE|DICT|INTERRES
   225  114  115 1    
   226  114  235 1    
   227  115  116 1    
   228  115  117 1    
   229  115  236 1    
   230  116  237 1    
   231  116  238 1    
   232  116  239 1    
   233  117  118 2    
   234  117  119 am   BACKBONE|DICT|INTERRES
   235  119  120 1    
   236  119  240 1    
   237  120  121 1    
   238  120  124 1    
   239  120  241 1    
   240  121  122 am   BACKBONE|DICT|INTERRES
   241  121  123 2    
   242  122  242 1    
   243  122  243 1    
   244  124  125 1    
   245  124  244 1    
   246  124  245 1    
   247  125  126 1    
   248  126  246 1    
   249  126  247 1    
@<TRIPOS>SUBSTRUCTURE
     1 UNK         1 GROUP             0       ****    0 ROOT    
