@<TRIPOS>MOLECULE
3R540
247   249    1
SMALL
USER_CHARGES


@<TRIPOS>ATOM
      1 CA         -4.7462  -14.6190  -50.8350 C.3       0 UNK        -0.1800 
      2 C          -3.4221  -14.1354  -50.2609 C.2       0 UNK         0.5000 
      3 O          -2.8660  -13.1496  -50.7463 O.2       0 UNK        -0.5000 
      4 N          -2.9153  -14.8265  -49.2330 N.am      1 UNK        -0.5000 
      5 CA         -1.6865  -14.4778  -48.5162 C.3       1 UNK         0.1400 
      6 C6         -1.1605  -15.6866  -47.6997 C.3       23 UNK        -0.0398 
      7 S7          0.5973  -15.5681  -47.2049 S.3       23 UNK        -0.2404 
      8 C8          1.4952  -15.5963  -48.7926 C.3       23 UNK        -0.0205 
      9 C9          1.0919  -16.7666  -49.6760 C.ar      23 UNK        -0.0193 
     10 C10         0.2907  -16.5558  -50.8035 C.ar      23 UNK        -0.1150 
     11 C11        -0.0948  -17.6299  -51.6093 C.ar      23 UNK        -0.0193 
     12 C12         0.3358  -18.9187  -51.2887 C.ar      23 UNK        -0.1150 
     13 C13         1.1433  -19.1394  -50.1701 C.ar      23 UNK        -0.0193 
     14 C14         1.5188  -18.0609  -49.3651 C.ar      23 UNK        -0.1150 
     15 C15         1.5994  -20.5486  -49.8399 C.3       23 UNK        -0.0205 
     16 S16         0.2391  -21.5168  -49.1294 S.3       23 UNK        -0.2404 
     17 C17         0.2240  -20.9547  -47.3922 C.3       23 UNK        -0.0398 
     18 CA         -0.2252  -22.1134  -46.4725 C.3       11 UNK         0.1400 
     19 N           0.3922  -22.0851  -45.1459 N.am      11 UNK        -0.5000 
     20 C           0.4712  -23.1707  -44.3613 C.2       10 UNK         0.5000 
     21 O           0.0576  -24.2817  -44.6932 O.2       10 UNK        -0.5000 
     22 CA          1.0790  -22.9860  -42.9619 C.3       10 UNK         0.1400 
     23 CB          2.6129  -22.9765  -43.0357 C.3       10 UNK        -0.1800 
     24 N           0.6019  -21.7752  -42.2951 N.am      10 UNK        -0.5000 
     25 C          -0.6767  -21.5470  -41.9616 C.2       9 UNK         0.5000 
     26 O          -1.5876  -22.3539  -42.1523 O.2       9 UNK        -0.5000 
     27 CA         -0.9999  -20.1678  -41.3581 C.3       9 UNK         0.1400 
     28 CB         -0.6186  -20.1180  -39.8714 C.3       9 UNK        -0.1800 
     29 N          -0.3438  -19.0689  -42.0679 N.am      9 UNK        -0.5000 
     30 C          -0.5465  -18.7599  -43.3569 C.2       8 UNK         0.5000 
     31 O          -1.3282  -19.3587  -44.0928 O.2       8 UNK        -0.5000 
     32 CA          0.3140  -17.6287  -43.9380 C.3       8 UNK         0.1400 
     33 CB         -0.2254  -16.2522  -43.5200 C.3       8 UNK        -0.1800 
     34 N           1.7144  -17.7687  -43.5422 N.am      8 UNK        -0.5000 
     35 C           2.5180  -18.7529  -43.9712 C.2       7 UNK         0.5000 
     36 O           2.1758  -19.6124  -44.7848 O.2       7 UNK        -0.5000 
     37 CA          3.9230  -18.8151  -43.3470 C.3       7 UNK         0.1400 
     38 CB          4.8963  -17.8943  -44.0955 C.3       7 UNK        -0.1800 
     39 N           3.9148  -18.4720  -41.9233 N.am      7 UNK        -0.5000 
     40 C           3.3879  -19.2592  -40.9740 C.2       6 UNK         0.5000 
     41 O           2.8715  -20.3509  -41.2052 O.2       6 UNK        -0.5000 
     42 CA          3.3960  -18.7289  -39.5291 C.3       6 UNK         0.1400 
     43 CB          4.7128  -19.0940  -38.8284 C.3       6 UNK        -0.1800 
     44 N           3.1804  -17.2856  -39.4304 N.am      6 UNK        -0.5000 
     45 C           2.0995  -16.6323  -39.8768 C.2       5 UNK         0.5000 
     46 O           1.1576  -17.1836  -40.4479 O.2       5 UNK        -0.5000 
     47 CA          2.0628  -15.1051  -39.6763 C.3       5 UNK         0.1400 
     48 CB          3.1332  -14.5695  -38.6986 C.3       5 UNK        -0.1800 
     49 N           2.1352  -14.3828  -40.9487 N.am      5 UNK        -0.5000 
     50 C           3.0976  -14.4520  -41.8817 C.2       4 UNK         0.5000 
     51 O           4.0485  -15.2336  -41.8233 O.2       4 UNK        -0.5000 
     52 CA          2.9813  -13.4901  -43.0848 C.3       4 UNK         0.1400 
     53 CB          3.1970  -14.2201  -44.4219 C.3       4 UNK        -0.1800 
     54 N           1.6993  -12.7821  -43.1361 N.am      4 UNK        -0.5000 
     55 C           1.4050  -11.6333  -42.5155 C.2       3 UNK         0.5000 
     56 O           2.2017  -11.0315  -41.7940 O.2       3 UNK        -0.5000 
     57 CA         -0.0187  -11.0738  -42.7521 C.3       3 UNK         0.1400 
     58 CB         -0.2786   -9.7675  -41.9802 C.3       3 UNK        -0.1800 
     59 N          -0.3045  -10.8438  -44.1719 N.am      3 UNK        -0.5000 
     60 C          -0.5293  -11.7955  -45.0866 C.2       2 UNK         0.5000 
     61 O          -0.5588  -12.9967  -44.8061 O.2       2 UNK        -0.5000 
     62 CA         -0.7098  -11.3234  -46.5458 C.3       2 UNK         0.1400 
     63 CB          0.4677  -10.4422  -47.0019 C.3       2 UNK        -0.1800 
     64 N          -0.8092  -12.4541  -47.4668 N.am      2 UNK        -0.5000 
     65 C          -1.8885  -13.2269  -47.6337 C.2       1 UNK         0.5000 
     66 O          -2.9863  -12.9997  -47.1165 O.2       1 UNK        -0.5000 
     67 C          -1.7605  -22.2436  -46.4002 C.2       11 UNK         0.5000 
     68 O          -2.3369  -22.9492  -47.2252 O.2       11 UNK        -0.5000 
     69 N          -2.4040  -21.6264  -45.3986 N.am      12 UNK        -0.5000 
     70 CA         -3.8372  -21.7757  -45.1269 C.3       12 UNK         0.1400 
     71 CB         -4.2686  -20.8085  -44.0152 C.3       12 UNK        -0.1800 
     72 C          -4.2228  -23.2252  -44.7768 C.2       12 UNK         0.5000 
     73 O          -5.2328  -23.7210  -45.2770 O.2       12 UNK        -0.5000 
     74 N          -3.3745  -23.9048  -43.9912 N.am      13 UNK        -0.5000 
     75 CA         -3.4845  -25.3355  -43.6888 C.3       13 UNK         0.1400 
     76 CB         -2.4871  -25.6976  -42.5783 C.3       13 UNK        -0.1800 
     77 C          -3.2843  -26.2396  -44.9251 C.2       13 UNK         0.5000 
     78 O          -3.8376  -27.3385  -44.9674 O.2       13 UNK        -0.5000 
     79 N          -2.5370  -25.7467  -45.9217 N.am      14 UNK        -0.5000 
     80 CA         -2.3318  -26.3665  -47.2328 C.3       14 UNK         0.1400 
     81 CB         -0.8979  -26.0652  -47.7040 C.3       14 UNK        -0.1800 
     82 C          -3.3723  -25.9048  -48.2788 C.2       14 UNK         0.5000 
     83 O          -3.1707  -26.1420  -49.4709 O.2       14 UNK        -0.5000 
     84 N          -4.4502  -25.2394  -47.8328 N.am      15 UNK        -0.5000 
     85 CA         -5.5758  -24.7275  -48.6230 C.3       15 UNK         0.1400 
     86 CB         -6.3993  -25.8934  -49.2092 C.3       15 UNK        -0.1800 
     87 C          -5.1631  -23.6858  -49.6857 C.2       15 UNK         0.5000 
     88 O          -5.7326  -23.6624  -50.7765 O.2       15 UNK        -0.5000 
     89 N          -4.1725  -22.8500  -49.3421 N.am      16 UNK        -0.5000 
     90 CA         -3.5447  -21.8044  -50.1589 C.3       16 UNK         0.1400 
     91 CB         -4.5740  -20.7626  -50.6465 C.3       16 UNK        -0.1800 
     92 C          -2.6630  -22.3494  -51.3016 C.2       16 UNK         0.5000 
     93 O          -2.2911  -21.5794  -52.1884 O.2       16 UNK        -0.5000 
     94 N          -2.3190  -23.6477  -51.2453 N.am      17 UNK        -0.5000 
     95 CA         -1.4825  -24.3920  -52.1894 C.3       17 UNK         0.1400 
     96 CB         -0.0080  -23.9457  -52.0693 C.3       17 UNK        -0.1800 
     97 C          -2.0497  -24.3178  -53.6214 C.2       17 UNK         0.5000 
     98 O          -3.0615  -24.9626  -53.9048 O.2       17 UNK        -0.5000 
     99 N          -1.4250  -23.5095  -54.4872 N.am      18 UNK        -0.5000 
    100 CA        -1.9091  -23.1545  -55.8199 C.3       18 UNK         0.1400 
    101 CB        -0.7234  -22.6444  -56.6583 C.3       18 UNK        -0.1800 
    102 C         -3.0492  -22.1200  -55.7237 C.2       18 UNK         0.5000 
    103 O         -2.8799  -20.9669  -56.1241 O.2       18 UNK        -0.5000 
    104 N         -4.1937  -22.5478  -55.1751 N.am      19 UNK        -0.5000 
    105 CA        -5.3642  -21.7200  -54.8692 C.3       19 UNK         0.1400 
    106 CB        -6.4480  -22.6012  -54.2341 C.3       19 UNK        -0.1800 
    107 C         -5.9370  -20.9538  -56.0765 C.2       19 UNK         0.5000 
    108 O         -6.4191  -19.8337  -55.9085 O.2       19 UNK        -0.5000 
    109 N         -5.8335  -21.5491  -57.2728 N.am      20 UNK        -0.5000 
    110 CA        -6.2327  -20.9457  -58.5456 C.3       20 UNK         0.1400 
    111 CB        -6.1913  -22.0203  -59.6427 C.3       20 UNK        -0.1800 
    112 C         -5.3714  -19.7310  -58.9475 C.2       20 UNK         0.5000 
    113 O         -5.8783  -18.8309  -59.6180 O.2       20 UNK        -0.5000 
    114 N         -4.0981  -19.7209  -58.5292 N.am      21 UNK        -0.5000 
    115 CA        -3.1800  -18.5971  -58.7087 C.3       21 UNK         0.1400 
    116 CB        -1.7444  -19.1276  -58.8531 C.3       21 UNK        -0.1800 
    117 C         -3.2809  -17.6086  -57.5343 C.2       21 UNK         0.5000 
    118 O         -3.2123  -16.3987  -57.7542 O.2       21 UNK        -0.5000 
    119 N         -3.4394  -18.1416  -56.3151 N.am      22 UNK        -0.5000 
    120 CA        -3.5934  -17.3762  -55.0700 C.3       22 UNK         0.1400 
    121 C         -4.8967  -16.5293  -55.0056 C.2       22 UNK         0.5000 
    122 N         -6.0381  -17.0599  -55.4265 N.am      22 UNK        -0.7600 
    123 O         -4.8699  -15.3745  -54.5904 O.2       22 UNK        -0.5000 
    124 C124       -3.4411  -18.2959  -53.8293 C.3       23 UNK        -0.0398 
    125 S125       -2.7368  -17.4388  -52.3827 S.3       23 UNK        -0.2404 
    126 C126       -0.9724  -17.4058  -52.8282 C.3       23 UNK        -0.0205 
    127 H127       -4.6390  -14.8218  -51.9004 H         1 UNK         0.0600 
    128 H128       -5.5134  -13.8555  -50.7073 H         1 UNK         0.0600 
    129 H129       -5.0890  -15.5337  -50.3508 H         1 UNK         0.0600 
    130 H130       -3.4359  -15.6071  -48.8608 H         1 UNK         0.3000 
    131 H131       -0.9472  -14.2275  -49.2777 H         1 UNK         0.0600 
    132 H132       -1.7596  -15.8317  -46.7988 H         1 UNK         0.0800 
    133 H133       -1.2766  -16.6070  -48.2735 H         1 UNK         0.0800 
    134 H134        1.3491  -14.6498  -49.3141 H         1 UNK         0.0800 
    135 H135        2.5643  -15.6578  -48.5845 H         1 UNK         0.0800 
    136 H136       -0.0442  -15.5588  -51.0524 H         1 UNK         0.1150 
    137 H137        0.0319  -19.7555  -51.9031 H         1 UNK         0.1150 
    138 H138        2.1345  -18.2264  -48.4920 H         1 UNK         0.1150 
    139 H139        1.9369  -21.0391  -50.7541 H         1 UNK         0.0800 
    140 H140        2.4554  -20.5417  -49.1636 H         1 UNK         0.0800 
    141 H141       -0.4071  -20.0702  -47.2858 H         1 UNK         0.0800 
    142 H142        1.2341  -20.6397  -47.1282 H         1 UNK         0.0800 
    143 H143        0.1334  -23.0382  -46.9303 H         1 UNK         0.0600 
    144 H144        0.7778  -21.2025  -44.8280 H         1 UNK         0.3000 
    145 H145        0.7746  -23.8410  -42.3545 H         1 UNK         0.0600 
    146 H146        3.0545  -22.9613  -42.0393 H         1 UNK         0.0600 
    147 H147        2.9863  -23.8678  -43.5415 H         1 UNK         0.0600 
    148 H148        2.9846  -22.1082  -43.5807 H         1 UNK         0.0600 
    149 H149        1.3077  -21.0852  -42.0533 H         1 UNK         0.3000 
    150 H150       -2.0778  -20.0145  -41.4377 H         1 UNK         0.0600 
    151 H151       -1.1294  -20.9021  -39.3112 H         1 UNK         0.0600 
    152 H152       -0.8969  -19.1633  -39.4246 H         1 UNK         0.0600 
    153 H153        0.4529  -20.2550  -39.7259 H         1 UNK         0.0600 
    154 H154        0.2978  -18.4946  -41.5271 H         1 UNK         0.3000 
    155 H155        0.2595  -17.6965  -45.0266 H         1 UNK         0.0600 
    156 H156        0.3250  -15.4494  -44.0063 H         1 UNK         0.0600 
    157 H157       -0.1673  -16.0952  -42.4435 H         1 UNK         0.0600 
    158 H158       -1.2705  -16.1405  -43.8113 H         1 UNK         0.0600 
    159 H159        2.0513  -17.1502  -42.8193 H         1 UNK         0.3000 
    160 H160        4.2850  -19.8403  -43.4499 H         1 UNK         0.0600 
    161 H161        4.6096  -16.8479  -44.0032 H         1 UNK         0.0600 
    162 H162        4.9237  -18.1356  -45.1589 H         1 UNK         0.0600 
    163 H163        5.9111  -17.9981  -43.7113 H         1 UNK         0.0600 
    164 H164        4.2756  -17.5618  -41.6652 H         1 UNK         0.3000 
    165 H165        2.5799  -19.2193  -38.9951 H         1 UNK         0.0600 
    166 H166        4.6933  -18.8077  -37.7768 H         1 UNK         0.0600 
    167 H167        4.8906  -20.1697  -38.8676 H         1 UNK         0.0600 
    168 H168        5.5673  -18.6026  -39.2955 H         1 UNK         0.0600 
    169 H169        3.9183  -16.7474  -39.0004 H         1 UNK         0.3000 
    170 H170        1.0850  -14.8817  -39.2473 H         1 UNK         0.0600 
    171 H171        3.0620  -15.0602  -37.7270 H         1 UNK         0.0600 
    172 H172        4.1471  -14.7126  -39.0738 H         1 UNK         0.0600 
    173 H173        2.9978  -13.5017  -38.5258 H         1 UNK         0.0600 
    174 H174        1.3803  -13.7364  -41.1229 H         1 UNK         0.3000 
    175 H175        3.7810  -12.7545  -42.9789 H         1 UNK         0.0600 
    176 H176        2.5311  -15.0746  -44.5363 H         1 UNK         0.0600 
    177 H177        3.0321  -13.5538  -45.2690 H         1 UNK         0.0600 
    178 H178        4.2200  -14.5878  -44.5009 H         1 UNK         0.0600 
    179 H179        0.9777  -13.1824  -43.7314 H         1 UNK         0.3000 
    180 H180       -0.7204  -11.8217  -42.3766 H         1 UNK         0.0600 
    181 H181       -1.3063   -9.4290  -42.1129 H         1 UNK         0.0600 
    182 H182        0.3839   -8.9660  -42.3093 H         1 UNK         0.0600 
    183 H183       -0.1214   -9.9064  -40.9097 H         1 UNK         0.0600 
    184 H184       -0.2658   -9.8821  -44.4769 H         1 UNK         0.3000 
    185 H185       -1.6301  -10.7384  -46.6006 H         1 UNK         0.0600 
    186 H186        0.3617  -10.1547  -48.0483 H         1 UNK         0.0600 
    187 H187        0.5254   -9.5185  -46.4254 H         1 UNK         0.0600 
    188 H188        1.4224  -10.9590  -46.8929 H         1 UNK         0.0600 
    189 H189        0.0593  -12.7506  -47.8862 H         1 UNK         0.3000 
    190 H190       -1.8890  -20.9977  -44.7867 H         1 UNK         0.3000 
    191 H191       -4.3754  -21.5030  -46.0371 H         1 UNK         0.0600 
    192 H192       -5.3373  -20.8952  -43.8154 H         1 UNK         0.0600 
    193 H193       -4.0740  -19.7735  -44.2965 H         1 UNK         0.0600 
    194 H194       -3.7432  -21.0059  -43.0811 H         1 UNK         0.0600 
    195 H195       -2.5908  -23.4096  -43.5765 H         1 UNK         0.3000 
    196 H196       -4.4923  -25.5187  -43.3107 H         1 UNK         0.0600 
    197 H197       -1.4566  -25.5282  -42.8900 H         1 UNK         0.0600 
    198 H198       -2.6653  -25.1059  -41.6801 H         1 UNK         0.0600 
    199 H199       -2.5771  -26.7483  -42.2996 H         1 UNK         0.0600 
    200 H200       -2.1182  -24.8343  -45.7972 H         1 UNK         0.3000 
    201 H201       -2.4312  -27.4495  -47.1382 H         1 UNK         0.0600 
    202 H202       -0.7632  -25.0097  -47.9387 H         1 UNK         0.0600 
    203 H203       -0.6548  -26.6307  -48.6043 H         1 UNK         0.0600 
    204 H204       -0.1651  -26.3362  -46.9436 H         1 UNK         0.0600 
    205 H205       -4.5019  -25.0370  -46.8419 H         1 UNK         0.3000 
    206 H206       -6.2186  -24.1957  -47.9203 H         1 UNK         0.0600 
    207 H207       -6.6912  -26.5996  -48.4320 H         1 UNK         0.0600 
    208 H208       -7.3157  -25.5301  -49.6758 H         1 UNK         0.0600 
    209 H209       -5.8413  -26.4416  -49.9690 H         1 UNK         0.0600 
    210 H210       -3.7138  -22.9998  -48.4449 H         1 UNK         0.3000 
    211 H211       -2.8606  -21.2851  -49.4866 H         1 UNK         0.0600 
    212 H212       -4.0724  -19.8936  -51.0727 H         1 UNK         0.0600 
    213 H213       -5.1960  -20.4057  -49.8259 H         1 UNK         0.0600 
    214 H214       -5.2294  -21.1665  -51.4184 H         1 UNK         0.0600 
    215 H215       -2.7151  -24.2052  -50.4984 H         1 UNK         0.3000 
    216 H216       -1.5357  -25.4400  -51.8909 H         1 UNK         0.0600 
    217 H217        0.6283  -24.4980  -52.7619 H         1 UNK         0.0600 
    218 H218        0.1241  -22.8818  -52.2689 H         1 UNK         0.0600 
    219 H219        0.3707  -24.1364  -51.0650 H         1 UNK         0.0600 
    220 H220       -0.6465  -22.9680  -54.1411 H         1 UNK         0.3000 
    221 H221       -2.3073  -24.0465  -56.3079 H         1 UNK         0.0600 
    222 H222        0.0495  -23.4073  -56.7526 H         1 UNK         0.0600 
    223 H223       -0.2670  -21.7577  -56.2162 H         1 UNK         0.0600 
    224 H224       -1.0433  -22.3806  -57.6673 H         1 UNK         0.0600 
    225 H225       -4.2105  -23.5005  -54.8276 H         1 UNK         0.3000 
    226 H226       -5.0500  -20.9821  -54.1294 H         1 UNK         0.0600 
    227 H227       -6.7966  -23.3711  -54.9235 H         1 UNK         0.0600 
    228 H228       -6.0744  -23.0985  -53.3397 H         1 UNK         0.0600 
    229 H229       -7.3128  -22.0064  -53.9374 H         1 UNK         0.0600 
    230 H230       -5.4210  -22.4694  -57.3140 H         1 UNK         0.3000 
    231 H231       -7.2634  -20.5990  -58.4448 H         1 UNK         0.0600 
    232 H232       -5.1861  -22.4229  -59.7741 H         1 UNK         0.0600 
    233 H233       -6.5090  -21.6109  -60.6026 H         1 UNK         0.0600 
    234 H234       -6.8585  -22.8500  -59.4083 H         1 UNK         0.0600 
    235 H235       -3.7728  -20.4717  -57.9325 H         1 UNK         0.3000 
    236 H236       -3.4310  -18.0598  -59.6258 H         1 UNK         0.0600 
    237 H237       -1.0439  -18.3096  -59.0251 H         1 UNK         0.0600 
    238 H238       -1.4136  -19.6582  -57.9599 H         1 UNK         0.0600 
    239 H239       -1.6605  -19.8109  -59.6983 H         1 UNK         0.0600 
    240 H240       -3.4225  -19.1530  -56.2270 H         1 UNK         0.3000 
    241 H241       -2.7632  -16.6672  -55.0631 H         1 UNK         0.0600 
    242 H242       -6.8787  -16.5062  -55.3962 H         1 UNK         0.3800 
    243 H243       -6.0924  -18.0322  -55.7233 H         1 UNK         0.3800 
    244 H244       -2.7964  -19.1480  -54.0508 H         1 UNK         0.0800 
    245 H245       -4.3993  -18.7322  -53.5433 H         1 UNK         0.0800 
    246 H246       -0.7381  -16.4457  -53.2903 H         1 UNK         0.0800 
    247 H247       -0.7519  -18.1659  -53.5792 H         1 UNK         0.0800 
@<TRIPOS>BOND
     1    1    2 1    
     2    1  127 1    
     3    1  128 1    
     4    1  129 1    
     5    2    3 2    
     6    2    4 am   BACKBONE|DICT|INTERRES
     7    4    5 1    
     8    4  130 1    
     9    5    6 1    
    10    5   65 1    
    11    5  131 1    
    12    6    7 1    
    13    6  132 1    
    14    6  133 1    
    15    7    8 1    
    16    8    9 1    
    17    8  134 1    
    18    8  135 1    
    19    9   10 ar   
    20    9   14 ar   
    21   10   11 ar   
    22   10  136 1    
    23   11   12 ar   
    24   11  126 1    
    25   12   13 ar   
    26   12  137 1    
    27   13   14 ar   
    28   13   15 1    
    29   14  138 1    
    30   15   16 1    
    31   15  139 1    
    32   15  140 1    
    33   16   17 1    
    34   17   18 1    
    35   17  141 1    
    36   17  142 1    
    37   18   19 1    
    38   18   67 1    
    39   18  143 1    
    40   19   20 am   BACKBONE|DICT|INTERRES
    41   19  144 1    
    42   20   21 2    
    43   20   22 1    
    44   22   23 1    
    45   22   24 1    
    46   22  145 1    
    47   23  146 1    
    48   23  147 1    
    49   23  148 1    
    50   24   25 am   BACKBONE|DICT|INTERRES
    51   24  149 1    
    52   25   26 2    
    53   25   27 1    
    54   27   28 1    
    55   27   29 1    
    56   27  150 1    
    57   28  151 1    
    58   28  152 1    
    59   28  153 1    
    60   29   30 am   BACKBONE|DICT|INTERRES
    61   29  154 1    
    62   30   31 2    
    63   30   32 1    
    64   32   33 1    
    65   32   34 1    
    66   32  155 1    
    67   33  156 1    
    68   33  157 1    
    69   33  158 1    
    70   34   35 am   BACKBONE|DICT|INTERRES
    71   34  159 1    
    72   35   36 2    
    73   35   37 1    
    74   37   38 1    
    75   37   39 1    
    76   37  160 1    
    77   38  161 1    
    78   38  162 1    
    79   38  163 1    
    80   39   40 am   BACKBONE|DICT|INTERRES
    81   39  164 1    
    82   40   41 2    
    83   40   42 1    
    84   42   43 1    
    85   42   44 1    
    86   42  165 1    
    87   43  166 1    
    88   43  167 1    
    89   43  168 1    
    90   44   45 am   BACKBONE|DICT|INTERRES
    91   44  169 1    
    92   45   46 2    
    93   45   47 1    
    94   47   48 1    
    95   47   49 1    
    96   47  170 1    
    97   48  171 1    
    98   48  172 1    
    99   48  173 1    
   100   49   50 am   BACKBONE|DICT|INTERRES
   101   49  174 1    
   102   50   51 2    
   103   50   52 1    
   104   52   53 1    
   105   52   54 1    
   106   52  175 1    
   107   53  176 1    
   108   53  177 1    
   109   53  178 1    
   110   54   55 am   BACKBONE|DICT|INTERRES
   111   54  179 1    
   112   55   56 2    
   113   55   57 1    
   114   57   58 1    
   115   57   59 1    
   116   57  180 1    
   117   58  181 1    
   118   58  182 1    
   119   58  183 1    
   120   59   60 am   BACKBONE|DICT|INTERRES
   121   59  184 1    
   122   60   61 2    
   123   60   62 1    
   124   62   63 1    
   125   62   64 1    
   126   62  185 1    
   127   63  186 1    
   128   63  187 1    
   129   63  188 1    
   130   64   65 am   BACKBONE|DICT|INTERRES
   131   64  189 1    
   132   65   66 2    
   133   67   68 2    
   134   67   69 am   BACKBONE|DICT|INTERRES
   135   69   70 1    
   136   69  190 1    
   137   70   71 1    
   138   70   72 1    
   139   70  191 1    
   140   71  192 1    
   141   71  193 1    
   142   71  194 1    
   143   72   73 2    
   144   72   74 am   BACKBONE|DICT|INTERRES
   145   74   75 1    
   146   74  195 1    
   147   75   76 1    
   148   75   77 1    
   149   75  196 1    
   150   76  197 1    
   151   76  198 1    
   152   76  199 1    
   153   77   78 2    
   154   77   79 am   BACKBONE|DICT|INTERRES
   155   79   80 1    
   156   79  200 1    
   157   80   81 1    
   158   80   82 1    
   159   80  201 1    
   160   81  202 1    
   161   81  203 1    
   162   81  204 1    
   163   82   83 2    
   164   82   84 am   BACKBONE|DICT|INTERRES
   165   84   85 1    
   166   84  205 1    
   167   85   86 1    
   168   85   87 1    
   169   85  206 1    
   170   86  207 1    
   171   86  208 1    
   172   86  209 1    
   173   87   88 2    
   174   87   89 am   BACKBONE|DICT|INTERRES
   175   89   90 1    
   176   89  210 1    
   177   90   91 1    
   178   90   92 1    
   179   90  211 1    
   180   91  212 1    
   181   91  213 1    
   182   91  214 1    
   183   92   93 2    
   184   92   94 am   BACKBONE|DICT|INTERRES
   185   94   95 1    
   186   94  215 1    
   187   95   96 1    
   188   95   97 1    
   189   95  216 1    
   190   96  217 1    
   191   96  218 1    
   192   96  219 1    
   193   97   98 2    
   194   97   99 am   BACKBONE|DICT|INTERRES
   195   99  100 1    
   196   99  220 1    
   197  100  101 1    
   198  100  102 1    
   199  100  221 1    
   200  101  222 1    
   201  101  223 1    
   202  101  224 1    
   203  102  103 2    
   204  102  104 am   BACKBONE|DICT|INTERRES
   205  104  105 1    
   206  104  225 1    
   207  105  106 1    
   208  105  107 1    
   209  105  226 1    
   210  106  227 1    
   211  106  228 1    
   212  106  229 1    
   213  107  108 2    
   214  107  109 am   BACKBONE|DICT|INTERRES
   215  109  110 1    
   216  109  230 1    
   217  110  111 1    
   218  110  112 1    
   219  110  231 1    
   220  111  232 1    
   221  111  233 1    
   222  111  234 1    
   223  112  113 2    
   224  112  114 am   BACKBONE|DICT|INTERRES
   225  114  115 1    
   226  114  235 1    
   227  115  116 1    
   228  115  117 1    
   229  115  236 1    
   230  116  237 1    
   231  116  238 1    
   232  116  239 1    
   233  117  118 2    
   234  117  119 am   BACKBONE|DICT|INTERRES
   235  119  120 1    
   236  119  240 1    
   237  120  121 1    
   238  120  124 1    
   239  120  241 1    
   240  121  122 am   BACKBONE|DICT|INTERRES
   241  121  123 2    
   242  122  242 1    
   243  122  243 1    
   244  124  125 1    
   245  124  244 1    
   246  124  245 1    
   247  125  126 1    
   248  126  246 1    
   249  126  247 1    
@<TRIPOS>SUBSTRUCTURE
     1 UNK         1 GROUP             0       ****    0 ROOT    
