@<TRIPOS>MOLECULE
3R540
247   249    1
SMALL
USER_CHARGES


@<TRIPOS>ATOM
      1 CA         -1.1527  -13.5760  -49.1370 C.3       0 UNK        -0.1800 
      2 C           0.1388  -12.7947  -48.9357 C.2       0 UNK         0.5000 
      3 O           0.3208  -11.7457  -49.5540 O.2       0 UNK        -0.5000 
      4 N           1.0369  -13.3026  -48.0827 N.am      1 UNK        -0.5000 
      5 CA          2.3022  -12.6556  -47.7235 C.3       1 UNK         0.1400 
      6 C6          3.3121  -13.6464  -47.0925 C.3       23 UNK        -0.0398 
      7 S7          3.8066  -14.9777  -48.2399 S.3       23 UNK        -0.2404 
      8 C8          2.9423  -16.4205  -47.5388 C.3       23 UNK        -0.0205 
      9 C9          2.3108  -17.2774  -48.6257 C.ar      23 UNK        -0.0193 
     10 C10         1.2725  -16.7599  -49.4052 C.ar      23 UNK        -0.1150 
     11 C11         0.6704  -17.5345  -50.3974 C.ar      23 UNK        -0.0193 
     12 C12         1.1176  -18.8390  -50.6127 C.ar      23 UNK        -0.1150 
     13 C13         2.1421  -19.3798  -49.8308 C.ar      23 UNK        -0.0193 
     14 C14         2.7380  -18.5921  -48.8393 C.ar      23 UNK        -0.1150 
     15 C15         2.5943  -20.8186  -50.0524 C.3       23 UNK        -0.0205 
     16 S16         1.2475  -22.0231  -49.7947 S.3       23 UNK        -0.2404 
     17 C17         0.7054  -21.5755  -48.1125 C.3       23 UNK        -0.0398 
     18 CA          0.0522  -22.7387  -47.3317 C.3       11 UNK         0.1400 
     19 N          -0.0128  -22.4375  -45.8991 N.am      11 UNK        -0.5000 
     20 C          -0.4090  -23.2894  -44.9437 C.2       10 UNK         0.5000 
     21 O          -0.7304  -24.4567  -45.1574 O.2       10 UNK        -0.5000 
     22 CA         -0.5152  -22.7273  -43.5154 C.3       10 UNK         0.1400 
     23 CB          0.8688  -22.6409  -42.8554 C.3       10 UNK        -0.1800 
     24 N          -1.1677  -21.4177  -43.4803 N.am      10 UNK        -0.5000 
     25 C          -2.4394  -21.1994  -43.8456 C.2       9 UNK         0.5000 
     26 O          -3.2107  -22.0935  -44.1935 O.2       9 UNK        -0.5000 
     27 CA         -2.9190  -19.7363  -43.8716 C.3       9 UNK         0.1400 
     28 CB         -3.2919  -19.2572  -42.4612 C.3       9 UNK        -0.1800 
     29 N          -1.9354  -18.8248  -44.4579 N.am      9 UNK        -0.5000 
     30 C          -1.4979  -18.8853  -45.7242 C.2       8 UNK         0.5000 
     31 O          -1.9022  -19.7022  -46.5495 O.2       8 UNK        -0.5000 
     32 CA         -0.3761  -17.9085  -46.1168 C.3       8 UNK         0.1400 
     33 CB         -0.9383  -16.5054  -46.3898 C.3       8 UNK        -0.1800 
     34 N           0.6734  -17.8415  -45.0980 N.am      8 UNK        -0.5000 
     35 C           1.4577  -18.8766  -44.7612 C.2       7 UNK         0.5000 
     36 O           1.4223  -19.9730  -45.3178 O.2       7 UNK        -0.5000 
     37 CA          2.3965  -18.6739  -43.5615 C.3       7 UNK         0.1400 
     38 CB          3.7032  -17.9917  -43.9928 C.3       7 UNK        -0.1800 
     39 N           1.7522  -17.9056  -42.4957 N.am      7 UNK        -0.5000 
     40 C           0.7625  -18.3828  -41.7254 C.2       6 UNK         0.5000 
     41 O           0.3268  -19.5301  -41.8112 O.2       6 UNK        -0.5000 
     42 CA          0.1217  -17.4073  -40.7203 C.3       6 UNK         0.1400 
     43 CB          0.8995  -17.4086  -39.3963 C.3       6 UNK        -0.1800 
     44 N           0.0393  -16.0393  -41.2315 N.am      6 UNK        -0.5000 
     45 C          -0.6977  -15.6600  -42.2856 C.2       5 UNK         0.5000 
     46 O          -1.4413  -16.4203  -42.9043 O.2       5 UNK        -0.5000 
     47 CA         -0.5301  -14.2035  -42.7599 C.3       5 UNK         0.1400 
     48 CB         -1.5783  -13.2945  -42.1030 C.3       5 UNK        -0.1800 
     49 N           0.8077  -13.6697  -42.4918 N.am      5 UNK        -0.5000 
     50 C           1.9404  -14.1274  -43.0388 C.2       4 UNK         0.5000 
     51 O           1.9621  -15.0403  -43.8672 O.2       4 UNK        -0.5000 
     52 CA          3.2542  -13.4820  -42.5454 C.3       4 UNK         0.1400 
     53 CB          4.4944  -14.0145  -43.2843 C.3       4 UNK        -0.1800 
     54 N           3.2426  -12.0223  -42.6419 N.am      4 UNK        -0.5000 
     55 C           2.6126  -11.1668  -41.8289 C.2       3 UNK         0.5000 
     56 O           1.9288  -11.5289  -40.8703 O.2       3 UNK        -0.5000 
     57 CA          2.7317   -9.6614  -42.1496 C.3       3 UNK         0.1400 
     58 CB          4.0422   -9.0746  -41.5913 C.3       3 UNK        -0.1800 
     59 N           2.5475   -9.3248  -43.5701 N.am      3 UNK        -0.5000 
     60 C           3.3201   -9.6457  -44.6164 C.2       2 UNK         0.5000 
     61 O           4.3833  -10.2656  -44.5314 O.2       2 UNK        -0.5000 
     62 CA          2.7933   -9.2467  -46.0059 C.3       2 UNK         0.1400 
     63 CB          3.6414   -8.1167  -46.6090 C.3       2 UNK        -0.1800 
     64 N           2.8062  -10.3978  -46.9088 N.am      2 UNK        -0.5000 
     65 C           2.0369  -11.4841  -46.7583 C.2       1 UNK         0.5000 
     66 O           1.1718  -11.5949  -45.8851 O.2       1 UNK        -0.5000 
     67 C          -1.3327  -23.1149  -47.9024 C.2       11 UNK         0.5000 
     68 O          -1.4458  -24.1233  -48.6012 O.2       11 UNK        -0.5000 
     69 N          -2.3610  -22.3292  -47.5484 N.am      12 UNK        -0.5000 
     70 CA         -3.7629  -22.5501  -47.9032 C.3       12 UNK         0.1400 
     71 CB         -4.6129  -21.3798  -47.3867 C.3       12 UNK        -0.1800 
     72 C          -4.3168  -23.8861  -47.3775 C.2       12 UNK         0.5000 
     73 O          -5.0007  -24.5924  -48.1184 O.2       12 UNK        -0.5000 
     74 N          -4.0052  -24.2059  -46.1141 N.am      13 UNK        -0.5000 
     75 CA         -4.4041  -25.4462  -45.4494 C.3       13 UNK         0.1400 
     76 CB         -4.1583  -25.3097  -43.9389 C.3       13 UNK        -0.1800 
     77 C          -3.6860  -26.6916  -46.0032 C.2       13 UNK         0.5000 
     78 O          -4.2897  -27.7646  -46.0452 O.2       13 UNK        -0.5000 
     79 N          -2.4159  -26.5300  -46.3948 N.am      14 UNK        -0.5000 
     80 CA         -1.5636  -27.5733  -46.9545 C.3       14 UNK         0.1400 
     81 CB         -0.0950  -27.2588  -46.6030 C.3       14 UNK        -0.1800 
     82 C          -1.8142  -27.7499  -48.4666 C.2       14 UNK         0.5000 
     83 O          -2.8205  -28.3452  -48.8543 O.2       14 UNK        -0.5000 
     84 N          -0.8710  -27.2827  -49.2938 N.am      15 UNK        -0.5000 
     85 CA         -0.8336  -27.5052  -50.7392 C.3       15 UNK         0.1400 
     86 CB          0.5951  -27.2318  -51.2359 C.3       15 UNK        -0.1800 
     87 C          -1.8441  -26.6659  -51.5428 C.2       15 UNK         0.5000 
     88 O          -2.1783  -27.0622  -52.6607 O.2       15 UNK        -0.5000 
     89 N          -2.2839  -25.5309  -50.9778 N.am      16 UNK        -0.5000 
     90 CA         -3.0650  -24.4558  -51.6017 C.3       16 UNK         0.1400 
     91 CB         -4.3829  -24.9818  -52.2102 C.3       16 UNK        -0.1800 
     92 C          -2.2365  -23.6396  -52.6169 C.2       16 UNK         0.5000 
     93 O          -1.1413  -24.0468  -53.0134 O.2       16 UNK        -0.5000 
     94 N          -2.7686  -22.4796  -53.0125 N.am      17 UNK        -0.5000 
     95 CA         -2.1384  -21.5564  -53.9500 C.3       17 UNK         0.1400 
     96 CB         -1.4622  -20.4212  -53.1699 C.3       17 UNK        -0.1800 
     97 C          -3.2115  -21.0559  -54.9209 C.2       17 UNK         0.5000 
     98 O          -4.1874  -20.4403  -54.4864 O.2       17 UNK        -0.5000 
     99 N          -3.0438  -21.3952  -56.2071 N.am      18 UNK        -0.5000 
    100 CA        -4.0196  -21.2313  -57.2950 C.3       18 UNK         0.1400 
    101 CB        -4.2796  -19.7397  -57.5911 C.3       18 UNK        -0.1800 
    102 C         -5.3166  -22.0368  -57.0493 C.2       18 UNK         0.5000 
    103 O         -6.4011  -21.6005  -57.4379 O.2       18 UNK        -0.5000 
    104 N         -5.1657  -23.1956  -56.3853 N.am      19 UNK        -0.5000 
    105 CA        -6.2158  -24.1150  -55.9283 C.3       19 UNK         0.1400 
    106 CB        -6.9450  -24.7563  -57.1277 C.3       19 UNK        -0.1800 
    107 C         -7.1856  -23.4866  -54.9015 C.2       19 UNK         0.5000 
    108 O         -8.3348  -23.9196  -54.7977 O.2       19 UNK        -0.5000 
    109 N         -6.7082  -22.4839  -54.1552 N.am      20 UNK        -0.5000 
    110 CA        -7.4617  -21.7343  -53.1577 C.3       20 UNK         0.1400 
    111 CB        -8.2192  -20.5883  -53.8592 C.3       20 UNK        -0.1800 
    112 C         -6.5062  -21.2180  -52.0687 C.2       20 UNK         0.5000 
    113 O         -5.3271  -21.5859  -52.0407 O.2       20 UNK        -0.5000 
    114 N         -7.0257  -20.3549  -51.1904 N.am      21 UNK        -0.5000 
    115 CA        -6.2543  -19.6179  -50.1949 C.3       21 UNK         0.1400 
    116 CB        -7.1681  -19.2932  -48.9990 C.3       21 UNK        -0.1800 
    117 C         -5.6429  -18.3589  -50.8377 C.2       21 UNK         0.5000 
    118 O         -6.1275  -17.2507  -50.6018 O.2       21 UNK        -0.5000 
    119 N         -4.6143  -18.5690  -51.6687 N.am      22 UNK        -0.5000 
    120 CA        -3.9114  -17.5391  -52.4539 C.3       22 UNK         0.1400 
    121 C         -4.8086  -16.9537  -53.5801 C.2       22 UNK         0.5000 
    122 N         -5.3567  -17.8045  -54.4376 N.am      22 UNK        -0.7600 
    123 O         -5.0117  -15.7467  -53.6867 O.2       22 UNK        -0.5000 
    124 C124       -3.2082  -16.4551  -51.5868 C.3       23 UNK        -0.0398 
    125 S125       -2.0549  -17.1684  -50.3640 S.3       23 UNK        -0.2404 
    126 C126       -0.4680  -16.9643  -51.2255 C.3       23 UNK        -0.0205 
    127 H127       -1.2898  -13.8109  -50.1924 H         1 UNK         0.0600 
    128 H128       -1.1545  -14.5128  -48.5815 H         1 UNK         0.0600 
    129 H129       -2.0053  -12.9834  -48.8058 H         1 UNK         0.0600 
    130 H130        0.8148  -14.1371  -47.5637 H         1 UNK         0.3000 
    131 H131        2.7490  -12.2534  -48.6357 H         1 UNK         0.0600 
    132 H132        2.9120  -14.0725  -46.1720 H         1 UNK         0.0800 
    133 H133        4.2246  -13.1207  -46.8051 H         1 UNK         0.0800 
    134 H134        3.6534  -17.0014  -46.9503 H         1 UNK         0.0800 
    135 H135        2.1629  -16.1044  -46.8472 H         1 UNK         0.0800 
    136 H136        0.9306  -15.7506  -49.2410 H         1 UNK         0.1150 
    137 H137        0.6548  -19.4446  -51.3760 H         1 UNK         0.1150 
    138 H138        3.5294  -19.0042  -48.2291 H         1 UNK         0.1150 
    139 H139        2.9704  -20.9205  -51.0711 H         1 UNK         0.0800 
    140 H140        3.4246  -21.0703  -49.3910 H         1 UNK         0.0800 
    141 H141        0.0407  -20.7118  -48.1696 H         1 UNK         0.0800 
    142 H142        1.5903  -21.2378  -47.5725 H         1 UNK         0.0800 
    143 H143        0.6950  -23.6156  -47.4339 H         1 UNK         0.0600 
    144 H144        0.2721  -21.5009  -45.6262 H         1 UNK         0.3000 
    145 H145       -1.1255  -23.4193  -42.9315 H         1 UNK         0.0600 
    146 H146        0.7897  -22.3209  -41.8164 H         1 UNK         0.0600 
    147 H147        1.3645  -23.6123  -42.8598 H         1 UNK         0.0600 
    148 H148        1.5204  -21.9369  -43.3731 H         1 UNK         0.0600 
    149 H149       -0.6096  -20.6386  -43.1448 H         1 UNK         0.3000 
    150 H150       -3.8169  -19.6933  -44.4912 H         1 UNK         0.0600 
    151 H151       -4.0557  -19.8991  -42.0206 H         1 UNK         0.0600 
    152 H152       -3.6908  -18.2428  -42.4819 H         1 UNK         0.0600 
    153 H153       -2.4315  -19.2642  -41.7923 H         1 UNK         0.0600 
    154 H154       -1.5875  -18.0826  -43.8571 H         1 UNK         0.3000 
    155 H155        0.0755  -18.2783  -47.0396 H         1 UNK         0.0600 
    156 H156       -1.4445  -16.0905  -45.5189 H         1 UNK         0.0600 
    157 H157       -1.6636  -16.5357  -47.2038 H         1 UNK         0.0600 
    158 H158       -0.1524  -15.8107  -46.6796 H         1 UNK         0.0600 
    159 H159        0.7680  -16.9754  -44.5845 H         1 UNK         0.3000 
    160 H160        2.6497  -19.6594  -43.1649 H         1 UNK         0.0600 
    161 H161        4.3765  -17.8557  -43.1466 H         1 UNK         0.0600 
    162 H162        3.5256  -17.0153  -44.4417 H         1 UNK         0.0600 
    163 H163        4.2287  -18.5970  -44.7324 H         1 UNK         0.0600 
    164 H164        2.0182  -16.9353  -42.4107 H         1 UNK         0.3000 
    165 H165       -0.8942  -17.7542  -40.5207 H         1 UNK         0.0600 
    166 H166        0.4115  -16.7797  -38.6515 H         1 UNK         0.0600 
    167 H167        0.9594  -18.4154  -38.9806 H         1 UNK         0.0600 
    168 H168        1.9199  -17.0459  -39.5267 H         1 UNK         0.0600 
    169 H169        0.6148  -15.3463  -40.7765 H         1 UNK         0.3000 
    170 H170       -0.6882  -14.1870  -43.8403 H         1 UNK         0.0600 
    171 H171       -2.5882  -13.6553  -42.3027 H         1 UNK         0.0600 
    172 H172       -1.4519  -13.2506  -41.0205 H         1 UNK         0.0600 
    173 H173       -1.5146  -12.2773  -42.4901 H         1 UNK         0.0600 
    174 H174        0.8823  -12.9139  -41.8183 H         1 UNK         0.3000 
    175 H175        3.3597  -13.7540  -41.4933 H         1 UNK         0.0600 
    176 H176        4.4708  -13.7649  -44.3445 H         1 UNK         0.0600 
    177 H177        5.4098  -13.5962  -42.8654 H         1 UNK         0.0600 
    178 H178        4.5696  -15.0989  -43.1999 H         1 UNK         0.0600 
    179 H179        3.7639  -11.6136  -43.4133 H         1 UNK         0.3000 
    180 H180        1.9103   -9.1696  -41.6260 H         1 UNK         0.0600 
    181 H181        4.9229   -9.5351  -42.0393 H         1 UNK         0.0600 
    182 H182        4.1083   -9.2316  -40.5140 H         1 UNK         0.0600 
    183 H183        4.0992   -8.0004  -41.7668 H         1 UNK         0.0600 
    184 H184        1.6793   -8.8474  -43.7702 H         1 UNK         0.3000 
    185 H185        1.7635   -8.8943  -45.9154 H         1 UNK         0.0600 
    186 H186        3.6353   -7.2380  -45.9627 H         1 UNK         0.0600 
    187 H187        4.6811   -8.4189  -46.7418 H         1 UNK         0.0600 
    188 H188        3.2545   -7.8077  -47.5803 H         1 UNK         0.0600 
    189 H189        3.5123  -10.3888  -47.6304 H         1 UNK         0.3000 
    190 H190       -2.1667  -21.4900  -47.0065 H         1 UNK         0.3000 
    191 H191       -3.8334  -22.5557  -48.9907 H         1 UNK         0.0600 
    192 H192       -4.5836  -21.3047  -46.3006 H         1 UNK         0.0600 
    193 H193       -5.6571  -21.5042  -47.6737 H         1 UNK         0.0600 
    194 H194       -4.2673  -20.4290  -47.7920 H         1 UNK         0.0600 
    195 H195       -3.4835  -23.5375  -45.5549 H         1 UNK         0.3000 
    196 H196       -5.4758  -25.5845  -45.6071 H         1 UNK         0.0600 
    197 H197       -3.1043  -25.1367  -43.7179 H         1 UNK         0.0600 
    198 H198       -4.4625  -26.2130  -43.4089 H         1 UNK         0.0600 
    199 H199       -4.7274  -24.4792  -43.5206 H         1 UNK         0.0600 
    200 H200       -1.9865  -25.6189  -46.2732 H         1 UNK         0.3000 
    201 H201       -1.8114  -28.5253  -46.4804 H         1 UNK         0.0600 
    202 H202        0.0486  -27.2418  -45.5224 H         1 UNK         0.0600 
    203 H203        0.2215  -26.2885  -46.9880 H         1 UNK         0.0600 
    204 H204        0.5794  -28.0173  -47.0027 H         1 UNK         0.0600 
    205 H205       -0.0931  -26.7771  -48.8965 H         1 UNK         0.3000 
    206 H206       -1.0614  -28.5566  -50.9276 H         1 UNK         0.0600 
    207 H207        1.3189  -27.8756  -50.7359 H         1 UNK         0.0600 
    208 H208        0.6796  -27.4202  -52.3070 H         1 UNK         0.0600 
    209 H209        0.8877  -26.1951  -51.0624 H         1 UNK         0.0600 
    210 H210       -1.9129  -25.2908  -50.0617 H         1 UNK         0.3000 
    211 H211       -3.3235  -23.7771  -50.7912 H         1 UNK         0.0600 
    212 H212       -4.2168  -25.5508  -53.1248 H         1 UNK         0.0600 
    213 H213       -5.0530  -24.1621  -52.4632 H         1 UNK         0.0600 
    214 H214       -4.9139  -25.6216  -51.5051 H         1 UNK         0.0600 
    215 H215       -3.6835  -22.1929  -52.6658 H         1 UNK         0.3000 
    216 H216       -1.3691  -22.0655  -54.5345 H         1 UNK         0.0600 
    217 H217       -1.1500  -19.6105  -53.8291 H         1 UNK         0.0600 
    218 H218       -0.5725  -20.7970  -52.6662 H         1 UNK         0.0600 
    219 H219       -2.1186  -20.0075  -52.4054 H         1 UNK         0.0600 
    220 H220       -2.2029  -21.8958  -56.4607 H         1 UNK         0.3000 
    221 H221       -3.5605  -21.6649  -58.1846 H         1 UNK         0.0600 
    222 H222       -4.8362  -19.2573  -56.7887 H         1 UNK         0.0600 
    223 H223       -3.3458  -19.1945  -57.7276 H         1 UNK         0.0600 
    224 H224       -4.8616  -19.6202  -58.5056 H         1 UNK         0.0600 
    225 H225       -4.2254  -23.4540  -56.1227 H         1 UNK         0.3000 
    226 H226       -5.7015  -24.9158  -55.3950 H         1 UNK         0.0600 
    227 H227       -6.2374  -25.1963  -57.8303 H         1 UNK         0.0600 
    228 H228       -7.6117  -25.5546  -56.7997 H         1 UNK         0.0600 
    229 H229       -7.5498  -24.0295  -57.6705 H         1 UNK         0.0600 
    230 H230       -5.7507  -22.1779  -54.2732 H         1 UNK         0.3000 
    231 H231       -8.1780  -22.3969  -52.6679 H         1 UNK         0.0600 
    232 H232       -8.8652  -20.0468  -53.1681 H         1 UNK         0.0600 
    233 H233       -8.8580  -20.9676  -54.6570 H         1 UNK         0.0600 
    234 H234       -7.5294  -19.8691  -54.3028 H         1 UNK         0.0600 
    235 H235       -7.9925  -20.0823  -51.2906 H         1 UNK         0.3000 
    236 H236       -5.4335  -20.2402  -49.8366 H         1 UNK         0.0600 
    237 H237       -6.6178  -18.7591  -48.2234 H         1 UNK         0.0600 
    238 H238       -8.0146  -18.6705  -49.2914 H         1 UNK         0.0600 
    239 H239       -7.5657  -20.2024  -48.5482 H         1 UNK         0.0600 
    240 H240       -4.3520  -19.5265  -51.8638 H         1 UNK         0.3000 
    241 H241       -3.1180  -18.0562  -52.9908 H         1 UNK         0.0600 
    242 H242       -5.9456  -17.4548  -55.1755 H         1 UNK         0.3800 
    243 H243       -5.1184  -18.7927  -54.4005 H         1 UNK         0.3800 
    244 H244       -2.6638  -15.7553  -52.2228 H         1 UNK         0.0800 
    245 H245       -3.9431  -15.8542  -51.0501 H         1 UNK         0.0800 
    246 H246       -0.5142  -17.4596  -52.1966 H         1 UNK         0.0800 
    247 H247       -0.2895  -15.9061  -51.4223 H         1 UNK         0.0800 
@<TRIPOS>BOND
     1    1    2 1    
     2    1  127 1    
     3    1  128 1    
     4    1  129 1    
     5    2    3 2    
     6    2    4 am   BACKBONE|DICT|INTERRES
     7    4    5 1    
     8    4  130 1    
     9    5    6 1    
    10    5   65 1    
    11    5  131 1    
    12    6    7 1    
    13    6  132 1    
    14    6  133 1    
    15    7    8 1    
    16    8    9 1    
    17    8  134 1    
    18    8  135 1    
    19    9   10 ar   
    20    9   14 ar   
    21   10   11 ar   
    22   10  136 1    
    23   11   12 ar   
    24   11  126 1    
    25   12   13 ar   
    26   12  137 1    
    27   13   14 ar   
    28   13   15 1    
    29   14  138 1    
    30   15   16 1    
    31   15  139 1    
    32   15  140 1    
    33   16   17 1    
    34   17   18 1    
    35   17  141 1    
    36   17  142 1    
    37   18   19 1    
    38   18   67 1    
    39   18  143 1    
    40   19   20 am   BACKBONE|DICT|INTERRES
    41   19  144 1    
    42   20   21 2    
    43   20   22 1    
    44   22   23 1    
    45   22   24 1    
    46   22  145 1    
    47   23  146 1    
    48   23  147 1    
    49   23  148 1    
    50   24   25 am   BACKBONE|DICT|INTERRES
    51   24  149 1    
    52   25   26 2    
    53   25   27 1    
    54   27   28 1    
    55   27   29 1    
    56   27  150 1    
    57   28  151 1    
    58   28  152 1    
    59   28  153 1    
    60   29   30 am   BACKBONE|DICT|INTERRES
    61   29  154 1    
    62   30   31 2    
    63   30   32 1    
    64   32   33 1    
    65   32   34 1    
    66   32  155 1    
    67   33  156 1    
    68   33  157 1    
    69   33  158 1    
    70   34   35 am   BACKBONE|DICT|INTERRES
    71   34  159 1    
    72   35   36 2    
    73   35   37 1    
    74   37   38 1    
    75   37   39 1    
    76   37  160 1    
    77   38  161 1    
    78   38  162 1    
    79   38  163 1    
    80   39   40 am   BACKBONE|DICT|INTERRES
    81   39  164 1    
    82   40   41 2    
    83   40   42 1    
    84   42   43 1    
    85   42   44 1    
    86   42  165 1    
    87   43  166 1    
    88   43  167 1    
    89   43  168 1    
    90   44   45 am   BACKBONE|DICT|INTERRES
    91   44  169 1    
    92   45   46 2    
    93   45   47 1    
    94   47   48 1    
    95   47   49 1    
    96   47  170 1    
    97   48  171 1    
    98   48  172 1    
    99   48  173 1    
   100   49   50 am   BACKBONE|DICT|INTERRES
   101   49  174 1    
   102   50   51 2    
   103   50   52 1    
   104   52   53 1    
   105   52   54 1    
   106   52  175 1    
   107   53  176 1    
   108   53  177 1    
   109   53  178 1    
   110   54   55 am   BACKBONE|DICT|INTERRES
   111   54  179 1    
   112   55   56 2    
   113   55   57 1    
   114   57   58 1    
   115   57   59 1    
   116   57  180 1    
   117   58  181 1    
   118   58  182 1    
   119   58  183 1    
   120   59   60 am   BACKBONE|DICT|INTERRES
   121   59  184 1    
   122   60   61 2    
   123   60   62 1    
   124   62   63 1    
   125   62   64 1    
   126   62  185 1    
   127   63  186 1    
   128   63  187 1    
   129   63  188 1    
   130   64   65 am   BACKBONE|DICT|INTERRES
   131   64  189 1    
   132   65   66 2    
   133   67   68 2    
   134   67   69 am   BACKBONE|DICT|INTERRES
   135   69   70 1    
   136   69  190 1    
   137   70   71 1    
   138   70   72 1    
   139   70  191 1    
   140   71  192 1    
   141   71  193 1    
   142   71  194 1    
   143   72   73 2    
   144   72   74 am   BACKBONE|DICT|INTERRES
   145   74   75 1    
   146   74  195 1    
   147   75   76 1    
   148   75   77 1    
   149   75  196 1    
   150   76  197 1    
   151   76  198 1    
   152   76  199 1    
   153   77   78 2    
   154   77   79 am   BACKBONE|DICT|INTERRES
   155   79   80 1    
   156   79  200 1    
   157   80   81 1    
   158   80   82 1    
   159   80  201 1    
   160   81  202 1    
   161   81  203 1    
   162   81  204 1    
   163   82   83 2    
   164   82   84 am   BACKBONE|DICT|INTERRES
   165   84   85 1    
   166   84  205 1    
   167   85   86 1    
   168   85   87 1    
   169   85  206 1    
   170   86  207 1    
   171   86  208 1    
   172   86  209 1    
   173   87   88 2    
   174   87   89 am   BACKBONE|DICT|INTERRES
   175   89   90 1    
   176   89  210 1    
   177   90   91 1    
   178   90   92 1    
   179   90  211 1    
   180   91  212 1    
   181   91  213 1    
   182   91  214 1    
   183   92   93 2    
   184   92   94 am   BACKBONE|DICT|INTERRES
   185   94   95 1    
   186   94  215 1    
   187   95   96 1    
   188   95   97 1    
   189   95  216 1    
   190   96  217 1    
   191   96  218 1    
   192   96  219 1    
   193   97   98 2    
   194   97   99 am   BACKBONE|DICT|INTERRES
   195   99  100 1    
   196   99  220 1    
   197  100  101 1    
   198  100  102 1    
   199  100  221 1    
   200  101  222 1    
   201  101  223 1    
   202  101  224 1    
   203  102  103 2    
   204  102  104 am   BACKBONE|DICT|INTERRES
   205  104  105 1    
   206  104  225 1    
   207  105  106 1    
   208  105  107 1    
   209  105  226 1    
   210  106  227 1    
   211  106  228 1    
   212  106  229 1    
   213  107  108 2    
   214  107  109 am   BACKBONE|DICT|INTERRES
   215  109  110 1    
   216  109  230 1    
   217  110  111 1    
   218  110  112 1    
   219  110  231 1    
   220  111  232 1    
   221  111  233 1    
   222  111  234 1    
   223  112  113 2    
   224  112  114 am   BACKBONE|DICT|INTERRES
   225  114  115 1    
   226  114  235 1    
   227  115  116 1    
   228  115  117 1    
   229  115  236 1    
   230  116  237 1    
   231  116  238 1    
   232  116  239 1    
   233  117  118 2    
   234  117  119 am   BACKBONE|DICT|INTERRES
   235  119  120 1    
   236  119  240 1    
   237  120  121 1    
   238  120  124 1    
   239  120  241 1    
   240  121  122 am   BACKBONE|DICT|INTERRES
   241  121  123 2    
   242  122  242 1    
   243  122  243 1    
   244  124  125 1    
   245  124  244 1    
   246  124  245 1    
   247  125  126 1    
   248  126  246 1    
   249  126  247 1    
@<TRIPOS>SUBSTRUCTURE
     1 UNK         1 GROUP             0       ****    0 ROOT    
