@<TRIPOS>MOLECULE
3R540
247   249    1
SMALL
USER_CHARGES


@<TRIPOS>ATOM
      1 CA         -0.9231  -12.6951  -48.2813 C.3       0 UNK        -0.1800 
      2 C           0.3825  -11.9281  -48.1392 C.2       0 UNK         0.5000 
      3 O           0.4153  -10.7145  -48.3457 O.2       0 UNK        -0.5000 
      4 N           1.4601  -12.6317  -47.7731 N.am      1 UNK        -0.5000 
      5 CA          2.8157  -12.1078  -47.5634 C.3       1 UNK         0.1400 
      6 C6          3.8902  -13.2121  -47.7596 C.3       23 UNK        -0.0398 
      7 S7          3.6175  -14.7330  -46.7780 S.3       23 UNK        -0.2404 
      8 C8          4.8078  -15.8752  -47.5559 C.3       23 UNK        -0.0205 
      9 C9          4.1551  -16.8935  -48.4867 C.ar      23 UNK        -0.0193 
     10 C10         3.3382  -16.4828  -49.5468 C.ar      23 UNK        -0.1150 
     11 C11         2.7663  -17.4218  -50.4096 C.ar      23 UNK        -0.0193 
     12 C12         3.0333  -18.7793  -50.2251 C.ar      23 UNK        -0.1150 
     13 C13         3.8599  -19.2050  -49.1841 C.ar      23 UNK        -0.0193 
     14 C14         4.4092  -18.2593  -48.3122 C.ar      23 UNK        -0.1150 
     15 C15         4.1862  -20.6835  -49.0316 C.3       23 UNK        -0.0205 
     16 S16         3.1025  -21.5157  -47.8331 S.3       23 UNK        -0.2404 
     17 C17         1.4816  -21.4311  -48.6694 C.3       23 UNK        -0.0398 
     18 CA          0.4409  -22.3476  -47.9869 C.3       11 UNK         0.1400 
     19 N           0.1112  -21.9130  -46.6260 N.am      11 UNK        -0.5000 
     20 C          -0.5874  -22.6382  -45.7430 C.2       10 UNK         0.5000 
     21 O          -1.0020  -23.7738  -45.9716 O.2       10 UNK        -0.5000 
     22 CA         -0.9185  -21.9741  -44.3943 C.3       10 UNK         0.1400 
     23 CB          0.2734  -22.0599  -43.4294 C.3       10 UNK        -0.1800 
     24 N          -1.3446  -20.5818  -44.5413 N.am      10 UNK        -0.5000 
     25 C          -2.4659  -20.1991  -45.1692 C.2       9 UNK         0.5000 
     26 O          -3.2809  -20.9870  -45.6490 O.2       9 UNK        -0.5000 
     27 CA         -2.6978  -18.6850  -45.3294 C.3       9 UNK         0.1400 
     28 CB         -3.2487  -18.0728  -44.0335 C.3       9 UNK        -0.1800 
     29 N          -1.4907  -17.9675  -45.7377 N.am      9 UNK        -0.5000 
     30 C          -0.8335  -18.1781  -46.8871 C.2       8 UNK         0.5000 
     31 O          -1.2021  -18.9706  -47.7531 O.2       8 UNK        -0.5000 
     32 CA          0.4853  -17.4087  -47.0740 C.3       8 UNK         0.1400 
     33 CB          0.2089  -15.9655  -47.5215 C.3       8 UNK        -0.1800 
     34 N           1.3178  -17.4075  -45.8681 N.am      8 UNK        -0.5000 
     35 C           1.7821  -18.5112  -45.2647 C.2       7 UNK         0.5000 
     36 O           1.5796  -19.6508  -45.6746 O.2       7 UNK        -0.5000 
     37 CA          2.5266  -18.3160  -43.9345 C.3       7 UNK         0.1400 
     38 CB          3.9545  -17.8008  -44.1667 C.3       7 UNK        -0.1800 
     39 N           1.8002  -17.4122  -43.0425 N.am      7 UNK        -0.5000 
     40 C           0.6214  -17.7114  -42.4718 C.2       6 UNK         0.5000 
     41 O           0.0703  -18.8061  -42.5848 O.2       6 UNK        -0.5000 
     42 CA         -0.0896  -16.5941  -41.6800 C.3       6 UNK         0.1400 
     43 CB          0.3267  -16.6325  -40.2024 C.3       6 UNK        -0.1800 
     44 N           0.1692  -15.2587  -42.2173 N.am      6 UNK        -0.5000 
     45 C          -0.1410  -14.8599  -43.4581 C.2       5 UNK         0.5000 
     46 O          -0.8205  -15.5333  -44.2326 O.2       5 UNK        -0.5000 
     47 CA          0.4476  -13.5180  -43.9408 C.3       5 UNK         0.1400 
     48 CB         -0.6516  -12.4523  -44.0632 C.3       5 UNK        -0.1800 
     49 N           1.5457  -12.9881  -43.1225 N.am      5 UNK        -0.5000 
     50 C           2.7317  -13.5789  -42.9096 C.2       4 UNK         0.5000 
     51 O           2.9846  -14.7213  -43.2935 O.2       4 UNK        -0.5000 
     52 CA          3.7980  -12.7818  -42.1216 C.3       4 UNK         0.1400 
     53 CB          5.2277  -13.2079  -42.5009 C.3       4 UNK        -0.1800 
     54 N           3.6848  -11.3282  -42.2869 N.am      4 UNK        -0.5000 
     55 C           2.8390  -10.5284  -41.6257 C.2       3 UNK         0.5000 
     56 O           2.0239  -10.9477  -40.8051 O.2       3 UNK        -0.5000 
     57 CA          2.8585   -9.0218  -41.9618 C.3       3 UNK         0.1400 
     58 CB          3.3986   -8.2215  -40.7664 C.3       3 UNK        -0.1800 
     59 N           3.6486   -8.6687  -43.1485 N.am      3 UNK        -0.5000 
     60 C           3.3255   -8.8184  -44.4427 C.2       2 UNK         0.5000 
     61 O           4.0712   -8.4089  -45.3335 O.2       2 UNK        -0.5000 
     62 CA          1.9859   -9.4865  -44.8390 C.3       2 UNK         0.1400 
     63 CB          0.9043   -8.4233  -45.0824 C.3       2 UNK        -0.1800 
     64 N           2.0895  -10.3301  -46.0310 N.am      2 UNK        -0.5000 
     65 C           2.9459  -11.3433  -46.2231 C.2       1 UNK         0.5000 
     66 O           3.7871  -11.6839  -45.3914 O.2       1 UNK        -0.5000 
     67 C          -0.8207  -22.5217  -48.8577 C.2       11 UNK         0.5000 
     68 O          -0.9161  -23.5176  -49.5750 O.2       11 UNK        -0.5000 
     69 N          -1.7913  -21.6030  -48.7379 N.am      12 UNK        -0.5000 
     70 CA         -3.1021  -21.7090  -49.3800 C.3       12 UNK         0.1400 
     71 CB         -3.8883  -20.4017  -49.2017 C.3       12 UNK        -0.1800 
     72 C          -3.9089  -22.9108  -48.8561 C.2       12 UNK         0.5000 
     73 O          -4.4674  -23.6576  -49.6569 O.2       12 UNK        -0.5000 
     74 N          -3.9252  -23.1126  -47.5304 N.am      13 UNK        -0.5000 
     75 CA         -4.5702  -24.2567  -46.8816 C.3       13 UNK         0.1400 
     76 CB         -4.5227  -24.0917  -45.3559 C.3       13 UNK        -0.1800 
     77 C          -3.9662  -25.6071  -47.3126 C.2       13 UNK         0.5000 
     78 O          -4.7161  -26.5388  -47.6101 O.2       13 UNK        -0.5000 
     79 N          -2.6289  -25.6693  -47.3893 N.am      14 UNK        -0.5000 
     80 CA         -1.8701  -26.8158  -47.8925 C.3       14 UNK         0.1400 
     81 CB         -0.3706  -26.5864  -47.6529 C.3       14 UNK        -0.1800 
     82 C          -2.1454  -27.1167  -49.3781 C.2       14 UNK         0.5000 
     83 O          -2.1802  -28.2872  -49.7616 O.2       14 UNK        -0.5000 
     84 N          -2.3910  -26.0712  -50.1797 N.am      15 UNK        -0.5000 
     85 CA         -2.8241  -26.1461  -51.5754 C.3       15 UNK         0.1400 
     86 CB         -2.4773  -24.8279  -52.2882 C.3       15 UNK        -0.1800 
     87 C          -4.3198  -26.5117  -51.6923 C.2       15 UNK         0.5000 
     88 O          -5.1107  -25.7423  -52.2433 O.2       15 UNK        -0.5000 
     89 N          -4.6643  -27.6939  -51.1622 N.am      16 UNK        -0.5000 
     90 CA         -5.9619  -28.3715  -51.2129 C.3       16 UNK         0.1400 
     91 CB         -6.1956  -28.9493  -52.6232 C.3       16 UNK        -0.1800 
     92 C          -7.1375  -27.5122  -50.7036 C.2       16 UNK         0.5000 
     93 O          -8.1785  -27.4438  -51.3594 O.2       16 UNK        -0.5000 
     94 N          -6.9433  -26.8800  -49.5358 N.am      17 UNK        -0.5000 
     95 CA         -7.9003  -26.0152  -48.8382 C.3       17 UNK         0.1400 
     96 CB         -9.1156  -26.8266  -48.3410 C.3       17 UNK        -0.1800 
     97 C          -8.2896  -24.7787  -49.6737 C.2       17 UNK         0.5000 
     98 O          -9.4749  -24.5238  -49.8959 O.2       17 UNK        -0.5000 
     99 N          -7.2649  -24.0384  -50.1174 N.am      18 UNK        -0.5000 
    100 CA        -7.3333  -22.8218  -50.9276 C.3       18 UNK         0.1400 
    101 CB        -8.0362  -21.6778  -50.1670 C.3       18 UNK        -0.1800 
    102 C         -7.8945  -23.0690  -52.3401 C.2       18 UNK         0.5000 
    103 O         -8.6971  -22.2749  -52.8356 O.2       18 UNK        -0.5000 
    104 N         -7.4342  -24.1523  -52.9843 N.am      19 UNK        -0.5000 
    105 CA        -7.6408  -24.3882  -54.4155 C.3       19 UNK         0.1400 
    106 CB        -7.3544  -25.8579  -54.7520 C.3       19 UNK        -0.1800 
    107 C         -6.7573  -23.4496  -55.2598 C.2       19 UNK         0.5000 
    108 O         -7.1869  -22.9999  -56.3229 O.2       19 UNK        -0.5000 
    109 N         -5.5637  -23.1353  -54.7390 N.am      20 UNK        -0.5000 
    110 CA        -4.7285  -22.0221  -55.1770 C.3       20 UNK         0.1400 
    111 CB        -3.2549  -22.4567  -55.1651 C.3       20 UNK        -0.1800 
    112 C         -4.9416  -20.8493  -54.2070 C.2       20 UNK         0.5000 
    113 O         -5.1802  -21.0731  -53.0178 O.2       20 UNK        -0.5000 
    114 N         -4.8209  -19.6192  -54.7195 N.am      21 UNK        -0.5000 
    115 CA        -4.9979  -18.3845  -53.9475 C.3       21 UNK         0.1400 
    116 CB        -5.1360  -17.2051  -54.9229 C.3       21 UNK        -0.1800 
    117 C         -3.8670  -18.1133  -52.9341 C.2       21 UNK         0.5000 
    118 O         -4.0796  -17.3641  -51.9804 O.2       21 UNK        -0.5000 
    119 N         -2.6936  -18.7140  -53.1600 N.am      22 UNK        -0.5000 
    120 CA        -1.5055  -18.6094  -52.3054 C.3       22 UNK         0.1400 
    121 C         -0.5307  -19.7935  -52.5426 C.2       22 UNK         0.5000 
    122 N         -0.3185  -20.2257  -53.7814 N.am      22 UNK        -0.7600 
    123 O          0.0222  -20.3453  -51.5974 O.2       22 UNK        -0.5000 
    124 C124       -0.8027  -17.2306  -52.4443 C.3       23 UNK        -0.0398 
    125 S125        0.1512  -16.7873  -50.9582 S.3       23 UNK        -0.2404 
    126 C126        1.8597  -16.9809  -51.5448 C.3       23 UNK        -0.0205 
    127 H127       -1.7272  -12.0327  -48.6022 H         1 UNK         0.0600 
    128 H128       -1.2108  -13.1404  -47.3289 H         1 UNK         0.0600 
    129 H129       -0.8218  -13.4882  -49.0223 H         1 UNK         0.0600 
    130 H130        1.3677  -13.6219  -47.6009 H         1 UNK         0.3000 
    131 H131        3.0023  -11.3617  -48.3390 H         1 UNK         0.0600 
    132 H132        3.9193  -13.4858  -48.8140 H         1 UNK         0.0800 
    133 H133        4.8862  -12.8255  -47.5363 H         1 UNK         0.0800 
    134 H134        5.3449  -16.3869  -46.7562 H         1 UNK         0.0800 
    135 H135        5.5611  -15.3154  -48.1113 H         1 UNK         0.0800 
    136 H136        3.1343  -15.4337  -49.6984 H         1 UNK         0.1150 
    137 H137        2.5964  -19.5065  -50.8955 H         1 UNK         0.1150 
    138 H138        5.0493  -18.5905  -47.5067 H         1 UNK         0.1150 
    139 H139        4.1192  -21.1913  -49.9950 H         1 UNK         0.0800 
    140 H140        5.2206  -20.7951  -48.7035 H         1 UNK         0.0800 
    141 H141        1.6230  -21.7222  -49.7120 H         1 UNK         0.0800 
    142 H142        1.1340  -20.3965  -48.6793 H         1 UNK         0.0800 
    143 H143        0.8896  -23.3397  -47.9003 H         1 UNK         0.0600 
    144 H144        0.4809  -21.0091  -46.3383 H         1 UNK         0.3000 
    145 H145       -1.7477  -22.5278  -43.9496 H         1 UNK         0.0600 
    146 H146        0.0143  -21.6625  -42.4480 H         1 UNK         0.0600 
    147 H147        0.5875  -23.0949  -43.2894 H         1 UNK         0.0600 
    148 H148        1.1346  -21.5029  -43.7981 H         1 UNK         0.0600 
    149 H149       -0.7342  -19.8754  -44.1441 H         1 UNK         0.3000 
    150 H150       -3.4440  -18.5453  -46.1143 H         1 UNK         0.0600 
    151 H151       -4.1831  -18.5540  -43.7424 H         1 UNK         0.0600 
    152 H152       -3.4531  -17.0088  -44.1549 H         1 UNK         0.0600 
    153 H153       -2.5498  -18.1867  -43.2052 H         1 UNK         0.0600 
    154 H154       -1.1416  -17.2547  -45.1036 H         1 UNK         0.3000 
    155 H155        1.0440  -17.9107  -47.8668 H         1 UNK         0.0600 
    156 H156       -0.5913  -15.9282  -48.2610 H         1 UNK         0.0600 
    157 H157        1.0901  -15.5295  -47.9866 H         1 UNK         0.0600 
    158 H158       -0.0925  -15.3278  -46.6930 H         1 UNK         0.0600 
    159 H159        1.5226  -16.5109  -45.4538 H         1 UNK         0.3000 
    160 H160        2.5981  -19.2900  -43.4456 H         1 UNK         0.0600 
    161 H161        3.9582  -16.8192  -44.6392 H         1 UNK         0.0600 
    162 H162        4.5119  -18.4780  -44.8150 H         1 UNK         0.0600 
    163 H163        4.5022  -17.7205  -43.2278 H         1 UNK         0.0600 
    164 H164        2.1776  -16.4734  -42.9479 H         1 UNK         0.3000 
    165 H165       -1.1644  -16.7757  -41.7392 H         1 UNK         0.0600 
    166 H166       -0.2253  -15.8967  -39.6173 H         1 UNK         0.0600 
    167 H167        0.1246  -17.6115  -39.7659 H         1 UNK         0.0600 
    168 H168        1.3916  -16.4311  -40.0789 H         1 UNK         0.0600 
    169 H169        0.7313  -14.6420  -41.6503 H         1 UNK         0.3000 
    170 H170        0.8523  -13.6991  -44.9383 H         1 UNK         0.0600 
    171 H171       -1.4911  -12.8199  -44.6551 H         1 UNK         0.0600 
    172 H172       -1.0406  -12.1622  -43.0866 H         1 UNK         0.0600 
    173 H173       -0.2811  -11.5565  -44.5603 H         1 UNK         0.0600 
    174 H174        1.3949  -12.0876  -42.6919 H         1 UNK         0.3000 
    175 H175        3.6521  -13.0243  -41.0672 H         1 UNK         0.0600 
    176 H176        5.9710  -12.6547  -41.9267 H         1 UNK         0.0600 
    177 H177        5.3906  -14.2677  -42.3011 H         1 UNK         0.0600 
    178 H178        5.4265  -13.0396  -43.5602 H         1 UNK         0.0600 
    179 H179        4.2721  -10.9228  -43.0031 H         1 UNK         0.3000 
    180 H180        1.8250   -8.7111  -42.1246 H         1 UNK         0.0600 
    181 H181        4.4365   -8.4759  -40.5474 H         1 UNK         0.0600 
    182 H182        2.8158   -8.4180  -39.8653 H         1 UNK         0.0600 
    183 H183        3.3480   -7.1487  -40.9539 H         1 UNK         0.0600 
    184 H184        4.5369   -8.2346  -42.9447 H         1 UNK         0.3000 
    185 H185        1.6406  -10.1420  -44.0439 H         1 UNK         0.0600 
    186 H186        0.7687   -7.7899  -44.2051 H         1 UNK         0.0600 
    187 H187        1.1639   -7.7732  -45.9190 H         1 UNK         0.0600 
    188 H188       -0.0596   -8.8830  -45.3024 H         1 UNK         0.0600 
    189 H189        1.4365  -10.1350  -46.7837 H         1 UNK         0.3000 
    190 H190       -1.6213  -20.7727  -48.1756 H         1 UNK         0.3000 
    191 H191       -2.9374  -21.8572  -50.4495 H         1 UNK         0.0600 
    192 H192       -4.0849  -20.1872  -48.1512 H         1 UNK         0.0600 
    193 H193       -4.8497  -20.4540  -49.7145 H         1 UNK         0.0600 
    194 H194       -3.3454  -19.5536  -49.6178 H         1 UNK         0.0600 
    195 H195       -3.4813  -22.4309  -46.9208 H         1 UNK         0.3000 
    196 H196       -5.6182  -24.2507  -47.1845 H         1 UNK         0.0600 
    197 H197       -5.0280  -24.9201  -44.8581 H         1 UNK         0.0600 
    198 H198       -5.0194  -23.1728  -45.0437 H         1 UNK         0.0600 
    199 H199       -3.4990  -24.0606  -44.9837 H         1 UNK         0.0600 
    200 H200       -2.0853  -24.8705  -47.0710 H         1 UNK         0.3000 
    201 H201       -2.1758  -27.6920  -47.3174 H         1 UNK         0.0600 
    202 H202       -0.1577  -26.4449  -46.5932 H         1 UNK         0.0600 
    203 H203       -0.0077  -25.7082  -48.1870 H         1 UNK         0.0600 
    204 H204        0.2148  -27.4422  -47.9913 H         1 UNK         0.0600 
    205 H205       -2.3215  -25.1389  -49.7881 H         1 UNK         0.3000 
    206 H206       -2.2604  -26.9395  -52.0703 H         1 UNK         0.0600 
    207 H207       -1.4126  -24.6061  -52.2146 H         1 UNK         0.0600 
    208 H208       -2.7242  -24.8893  -53.3483 H         1 UNK         0.0600 
    209 H209       -3.0235  -23.9826  -51.8700 H         1 UNK         0.0600 
    210 H210       -3.9244  -28.2028  -50.6879 H         1 UNK         0.3000 
    211 H211       -5.8916  -29.2149  -50.5245 H         1 UNK         0.0600 
    212 H212       -6.2542  -28.1644  -53.3754 H         1 UNK         0.0600 
    213 H213       -7.1241  -29.5198  -52.6682 H         1 UNK         0.0600 
    214 H214       -5.3889  -29.6240  -52.9094 H         1 UNK         0.0600 
    215 H215       -6.0413  -26.9726  -49.0779 H         1 UNK         0.3000 
    216 H216       -7.3863  -25.6381  -47.9541 H         1 UNK         0.0600 
    217 H217       -9.7709  -26.2077  -47.7271 H         1 UNK         0.0600 
    218 H218       -8.8006  -27.6713  -47.7284 H         1 UNK         0.0600 
    219 H219       -9.7140  -27.2150  -49.1656 H         1 UNK         0.0600 
    220 H220       -6.3159  -24.3339  -49.9069 H         1 UNK         0.3000 
    221 H221       -6.3014  -22.5076  -51.0810 H         1 UNK         0.0600 
    222 H222       -9.0983  -21.8756  -50.0212 H         1 UNK         0.0600 
    223 H223       -7.5838  -21.5210  -49.1878 H         1 UNK         0.0600 
    224 H224       -7.9511  -20.7391  -50.7158 H         1 UNK         0.0600 
    225 H225       -6.7618  -24.7583  -52.5203 H         1 UNK         0.3000 
    226 H226       -8.6858  -24.1832  -54.6570 H         1 UNK         0.0600 
    227 H227       -7.9537  -26.5273  -54.1346 H         1 UNK         0.0600 
    228 H228       -7.5953  -26.0709  -55.7940 H         1 UNK         0.0600 
    229 H229       -6.3038  -26.1077  -54.6033 H         1 UNK         0.0600 
    230 H230       -5.3322  -23.5230  -53.8345 H         1 UNK         0.3000 
    231 H231       -4.9986  -21.7142  -56.1892 H         1 UNK         0.0600 
    232 H232       -3.1049  -23.3675  -55.7450 H         1 UNK         0.0600 
    233 H233       -2.8950  -22.6381  -54.1521 H         1 UNK         0.0600 
    234 H234       -2.6191  -21.6855  -55.6009 H         1 UNK         0.0600 
    235 H235       -4.6194  -19.5102  -55.7033 H         1 UNK         0.3000 
    236 H236       -5.9280  -18.4678  -53.3810 H         1 UNK         0.0600 
    237 H237       -5.3008  -16.2702  -54.3855 H         1 UNK         0.0600 
    238 H238       -4.2400  -17.0794  -55.5321 H         1 UNK         0.0600 
    239 H239       -5.9833  -17.3449  -55.5945 H         1 UNK         0.0600 
    240 H240       -2.6249  -19.3581  -53.9329 H         1 UNK         0.3000 
    241 H241       -1.8565  -18.7107  -51.2765 H         1 UNK         0.0600 
    242 H242        0.3073  -21.0045  -53.9141 H         1 UNK         0.3800 
    243 H243       -0.6834  -19.7481  -54.5887 H         1 UNK         0.3800 
    244 H244       -0.1796  -17.1865  -53.3389 H         1 UNK         0.0800 
    245 H245       -1.5428  -16.4399  -52.5701 H         1 UNK         0.0800 
    246 H246        2.2087  -16.0375  -51.9671 H         1 UNK         0.0800 
    247 H247        1.9014  -17.7156  -52.3504 H         1 UNK         0.0800 
@<TRIPOS>BOND
     1    1    2 1    
     2    1  127 1    
     3    1  128 1    
     4    1  129 1    
     5    2    3 2    
     6    2    4 am   BACKBONE|DICT|INTERRES
     7    4    5 1    
     8    4  130 1    
     9    5    6 1    
    10    5   65 1    
    11    5  131 1    
    12    6    7 1    
    13    6  132 1    
    14    6  133 1    
    15    7    8 1    
    16    8    9 1    
    17    8  134 1    
    18    8  135 1    
    19    9   10 ar   
    20    9   14 ar   
    21   10   11 ar   
    22   10  136 1    
    23   11   12 ar   
    24   11  126 1    
    25   12   13 ar   
    26   12  137 1    
    27   13   14 ar   
    28   13   15 1    
    29   14  138 1    
    30   15   16 1    
    31   15  139 1    
    32   15  140 1    
    33   16   17 1    
    34   17   18 1    
    35   17  141 1    
    36   17  142 1    
    37   18   19 1    
    38   18   67 1    
    39   18  143 1    
    40   19   20 am   BACKBONE|DICT|INTERRES
    41   19  144 1    
    42   20   21 2    
    43   20   22 1    
    44   22   23 1    
    45   22   24 1    
    46   22  145 1    
    47   23  146 1    
    48   23  147 1    
    49   23  148 1    
    50   24   25 am   BACKBONE|DICT|INTERRES
    51   24  149 1    
    52   25   26 2    
    53   25   27 1    
    54   27   28 1    
    55   27   29 1    
    56   27  150 1    
    57   28  151 1    
    58   28  152 1    
    59   28  153 1    
    60   29   30 am   BACKBONE|DICT|INTERRES
    61   29  154 1    
    62   30   31 2    
    63   30   32 1    
    64   32   33 1    
    65   32   34 1    
    66   32  155 1    
    67   33  156 1    
    68   33  157 1    
    69   33  158 1    
    70   34   35 am   BACKBONE|DICT|INTERRES
    71   34  159 1    
    72   35   36 2    
    73   35   37 1    
    74   37   38 1    
    75   37   39 1    
    76   37  160 1    
    77   38  161 1    
    78   38  162 1    
    79   38  163 1    
    80   39   40 am   BACKBONE|DICT|INTERRES
    81   39  164 1    
    82   40   41 2    
    83   40   42 1    
    84   42   43 1    
    85   42   44 1    
    86   42  165 1    
    87   43  166 1    
    88   43  167 1    
    89   43  168 1    
    90   44   45 am   BACKBONE|DICT|INTERRES
    91   44  169 1    
    92   45   46 2    
    93   45   47 1    
    94   47   48 1    
    95   47   49 1    
    96   47  170 1    
    97   48  171 1    
    98   48  172 1    
    99   48  173 1    
   100   49   50 am   BACKBONE|DICT|INTERRES
   101   49  174 1    
   102   50   51 2    
   103   50   52 1    
   104   52   53 1    
   105   52   54 1    
   106   52  175 1    
   107   53  176 1    
   108   53  177 1    
   109   53  178 1    
   110   54   55 am   BACKBONE|DICT|INTERRES
   111   54  179 1    
   112   55   56 2    
   113   55   57 1    
   114   57   58 1    
   115   57   59 1    
   116   57  180 1    
   117   58  181 1    
   118   58  182 1    
   119   58  183 1    
   120   59   60 am   BACKBONE|DICT|INTERRES
   121   59  184 1    
   122   60   61 2    
   123   60   62 1    
   124   62   63 1    
   125   62   64 1    
   126   62  185 1    
   127   63  186 1    
   128   63  187 1    
   129   63  188 1    
   130   64   65 am   BACKBONE|DICT|INTERRES
   131   64  189 1    
   132   65   66 2    
   133   67   68 2    
   134   67   69 am   BACKBONE|DICT|INTERRES
   135   69   70 1    
   136   69  190 1    
   137   70   71 1    
   138   70   72 1    
   139   70  191 1    
   140   71  192 1    
   141   71  193 1    
   142   71  194 1    
   143   72   73 2    
   144   72   74 am   BACKBONE|DICT|INTERRES
   145   74   75 1    
   146   74  195 1    
   147   75   76 1    
   148   75   77 1    
   149   75  196 1    
   150   76  197 1    
   151   76  198 1    
   152   76  199 1    
   153   77   78 2    
   154   77   79 am   BACKBONE|DICT|INTERRES
   155   79   80 1    
   156   79  200 1    
   157   80   81 1    
   158   80   82 1    
   159   80  201 1    
   160   81  202 1    
   161   81  203 1    
   162   81  204 1    
   163   82   83 2    
   164   82   84 am   BACKBONE|DICT|INTERRES
   165   84   85 1    
   166   84  205 1    
   167   85   86 1    
   168   85   87 1    
   169   85  206 1    
   170   86  207 1    
   171   86  208 1    
   172   86  209 1    
   173   87   88 2    
   174   87   89 am   BACKBONE|DICT|INTERRES
   175   89   90 1    
   176   89  210 1    
   177   90   91 1    
   178   90   92 1    
   179   90  211 1    
   180   91  212 1    
   181   91  213 1    
   182   91  214 1    
   183   92   93 2    
   184   92   94 am   BACKBONE|DICT|INTERRES
   185   94   95 1    
   186   94  215 1    
   187   95   96 1    
   188   95   97 1    
   189   95  216 1    
   190   96  217 1    
   191   96  218 1    
   192   96  219 1    
   193   97   98 2    
   194   97   99 am   BACKBONE|DICT|INTERRES
   195   99  100 1    
   196   99  220 1    
   197  100  101 1    
   198  100  102 1    
   199  100  221 1    
   200  101  222 1    
   201  101  223 1    
   202  101  224 1    
   203  102  103 2    
   204  102  104 am   BACKBONE|DICT|INTERRES
   205  104  105 1    
   206  104  225 1    
   207  105  106 1    
   208  105  107 1    
   209  105  226 1    
   210  106  227 1    
   211  106  228 1    
   212  106  229 1    
   213  107  108 2    
   214  107  109 am   BACKBONE|DICT|INTERRES
   215  109  110 1    
   216  109  230 1    
   217  110  111 1    
   218  110  112 1    
   219  110  231 1    
   220  111  232 1    
   221  111  233 1    
   222  111  234 1    
   223  112  113 2    
   224  112  114 am   BACKBONE|DICT|INTERRES
   225  114  115 1    
   226  114  235 1    
   227  115  116 1    
   228  115  117 1    
   229  115  236 1    
   230  116  237 1    
   231  116  238 1    
   232  116  239 1    
   233  117  118 2    
   234  117  119 am   BACKBONE|DICT|INTERRES
   235  119  120 1    
   236  119  240 1    
   237  120  121 1    
   238  120  124 1    
   239  120  241 1    
   240  121  122 am   BACKBONE|DICT|INTERRES
   241  121  123 2    
   242  122  242 1    
   243  122  243 1    
   244  124  125 1    
   245  124  244 1    
   246  124  245 1    
   247  125  126 1    
   248  126  246 1    
   249  126  247 1    
@<TRIPOS>SUBSTRUCTURE
     1 UNK         1 GROUP             0       ****    0 ROOT    
