@<TRIPOS>MOLECULE
3R540
247   249    1
SMALL
USER_CHARGES


@<TRIPOS>ATOM
      1 CA          6.0679  -18.7640  -46.7920 C.3       0 UNK        -0.1800 
      2 C           5.5392  -17.4682  -47.3881 C.2       0 UNK         0.5000 
      3 O           4.3759  -17.1245  -47.1821 O.2       0 UNK        -0.5000 
      4 N           6.3935  -16.7456  -48.1223 N.am      1 UNK        -0.5000 
      5 CA          6.0933  -15.4576  -48.7539 C.3       1 UNK         0.1400 
      6 C6          6.9202  -15.2739  -50.0539 C.3       23 UNK        -0.0398 
      7 S7          6.1809  -14.0614  -51.2029 S.3       23 UNK        -0.2404 
      8 C8          5.3642  -15.1416  -52.4218 C.3       23 UNK        -0.0205 
      9 C9          4.0541  -15.7053  -51.8921 C.ar      23 UNK        -0.0193 
     10 C10         2.8640  -14.9912  -52.0667 C.ar      23 UNK        -0.1150 
     11 C11         1.6527  -15.5036  -51.5942 C.ar      23 UNK        -0.0193 
     12 C12         1.6452  -16.7379  -50.9391 C.ar      23 UNK        -0.1150 
     13 C13         2.8268  -17.4557  -50.7388 C.ar      23 UNK        -0.0193 
     14 C14         4.0278  -16.9393  -51.2336 C.ar      23 UNK        -0.1150 
     15 C15         2.8174  -18.7613  -49.9532 C.3       23 UNK        -0.0205 
     16 S16         2.3562  -20.1964  -50.9760 S.3       23 UNK        -0.2404 
     17 C17         0.5375  -20.2210  -50.8029 C.3       23 UNK        -0.0398 
     18 CA          0.0120  -21.2830  -49.8018 C.3       11 UNK         0.1400 
     19 N           0.5941  -21.1486  -48.4612 N.am      11 UNK        -0.5000 
     20 C           1.4334  -22.0252  -47.8988 C.2       10 UNK         0.5000 
     21 O           1.8292  -23.0535  -48.4471 O.2       10 UNK        -0.5000 
     22 CA          1.9025  -21.7090  -46.4673 C.3       10 UNK         0.1400 
     23 CB          3.1077  -20.7579  -46.5053 C.3       10 UNK        -0.1800 
     24 N           0.8897  -21.1464  -45.5686 N.am      10 UNK        -0.5000 
     25 C          -0.3397  -21.6151  -45.3142 C.2       9 UNK         0.5000 
     26 O          -0.8742  -22.5268  -45.9489 O.2       9 UNK        -0.5000 
     27 CA         -1.1225  -20.9676  -44.1527 C.3       9 UNK         0.1400 
     28 CB         -1.1737  -21.9139  -42.9385 C.3       9 UNK        -0.1800 
     29 N          -0.6895  -19.6150  -43.7638 N.am      9 UNK        -0.5000 
     30 C           0.4483  -19.2248  -43.1697 C.2       8 UNK         0.5000 
     31 O           1.3672  -19.9948  -42.8926 O.2       8 UNK        -0.5000 
     32 CA          0.6234  -17.7230  -42.8704 C.3       8 UNK         0.1400 
     33 CB          1.6142  -17.0873  -43.8596 C.3       8 UNK        -0.1800 
     34 N          -0.6228  -16.9529  -42.8861 N.am      8 UNK        -0.5000 
     35 C          -1.5295  -16.9506  -41.8981 C.2       7 UNK         0.5000 
     36 O          -1.4559  -17.6717  -40.9028 O.2       7 UNK        -0.5000 
     37 CA         -2.7092  -15.9730  -42.0380 C.3       7 UNK         0.1400 
     38 CB         -2.2678  -14.5450  -41.6771 C.3       7 UNK        -0.1800 
     39 N          -3.2390  -15.9784  -43.4000 N.am      7 UNK        -0.5000 
     40 C          -4.3781  -16.5741  -43.7807 C.2       6 UNK         0.5000 
     41 O          -5.1561  -17.1267  -43.0024 O.2       6 UNK        -0.5000 
     42 CA         -4.7041  -16.5681  -45.2910 C.3       6 UNK         0.1400 
     43 CB         -5.6526  -15.4106  -45.6368 C.3       6 UNK        -0.1800 
     44 N          -3.5165  -16.4758  -46.1423 N.am      6 UNK        -0.5000 
     45 C          -2.5540  -17.4050  -46.2001 C.2       5 UNK         0.5000 
     46 O          -2.6152  -18.4822  -45.6135 O.2       5 UNK        -0.5000 
     47 CA         -1.2778  -17.0588  -46.9864 C.3       5 UNK         0.1400 
     48 CB         -1.2649  -17.7566  -48.3499 C.3       5 UNK        -0.1800 
     49 N          -1.0324  -15.6237  -47.1620 N.am      5 UNK        -0.5000 
     50 C          -0.8426  -14.7554  -46.1618 C.2       4 UNK         0.5000 
     51 O          -0.9141  -15.0645  -44.9679 O.2       4 UNK        -0.5000 
     52 CA         -0.5784  -13.2973  -46.5482 C.3       4 UNK         0.1400 
     53 CB         -1.8951  -12.5187  -46.6977 C.3       4 UNK        -0.1800 
     54 N           0.2272  -12.7194  -45.4844 N.am      4 UNK        -0.5000 
     55 C           1.1742  -11.7925  -45.6382 C.2       3 UNK         0.5000 
     56 O           1.3515  -11.1595  -46.6809 O.2       3 UNK        -0.5000 
     57 CA          2.1279  -11.5596  -44.4458 C.3       3 UNK         0.1400 
     58 CB          1.6776  -12.2310  -43.1263 C.3       3 UNK        -0.1800 
     59 N           3.4958  -11.9651  -44.7921 N.am      3 UNK        -0.5000 
     60 C           3.8868  -13.1770  -45.2144 C.2       2 UNK         0.5000 
     61 O           3.1502  -14.1648  -45.2740 O.2       2 UNK        -0.5000 
     62 CA          5.3518  -13.3102  -45.6457 C.3       2 UNK         0.1400 
     63 CB          6.2430  -13.7381  -44.4680 C.3       2 UNK        -0.1800 
     64 N           5.4197  -14.3111  -46.7029 N.am      2 UNK        -0.5000 
     65 C           6.2729  -14.3137  -47.7301 C.2       1 UNK         0.5000 
     66 O           7.1798  -13.4889  -47.8593 O.2       1 UNK        -0.5000 
     67 C          -1.5271  -21.2770  -49.6850 C.2       11 UNK         0.5000 
     68 O          -2.2129  -20.6694  -50.5100 O.2       11 UNK        -0.5000 
     69 N          -2.0370  -21.9130  -48.6243 N.am      12 UNK        -0.5000 
     70 CA         -3.4517  -22.0709  -48.3216 C.3       12 UNK         0.1400 
     71 CB         -3.9108  -20.9333  -47.3865 C.3       12 UNK        -0.1800 
     72 C          -3.6384  -23.4813  -47.7407 C.2       12 UNK         0.5000 
     73 O          -3.4679  -24.4601  -48.4694 O.2       12 UNK        -0.5000 
     74 N          -3.9498  -23.5704  -46.4414 N.am      13 UNK        -0.5000 
     75 CA         -4.2075  -24.8081  -45.7056 C.3       13 UNK         0.1400 
     76 CB         -4.6424  -24.4581  -44.2748 C.3       13 UNK        -0.1800 
     77 C          -3.0249  -25.7943  -45.6813 C.2       13 UNK         0.5000 
     78 O          -3.2562  -27.0014  -45.7476 O.2       13 UNK        -0.5000 
     79 N          -1.7855  -25.2833  -45.6261 N.am      14 UNK        -0.5000 
     80 CA         -0.5689  -26.1045  -45.6320 C.3       14 UNK         0.1400 
     81 CB          0.6200  -25.2716  -45.1344 C.3       14 UNK        -0.1800 
     82 C          -0.2633  -26.7022  -47.0188 C.2       14 UNK         0.5000 
     83 O           0.3740  -27.7525  -47.1003 O.2       14 UNK        -0.5000 
     84 N          -0.7474  -26.0397  -48.0776 N.am      15 UNK        -0.5000 
     85 CA         -0.6948  -26.5138  -49.4610 C.3       15 UNK         0.1400 
     86 CB         -0.6228  -25.2926  -50.3931 C.3       15 UNK        -0.1800 
     87 C          -1.9027  -27.4046  -49.8194 C.2       15 UNK         0.5000 
     88 O          -1.9334  -27.9577  -50.9193 O.2       15 UNK        -0.5000 
     89 N          -2.8776  -27.5074  -48.9013 N.am      16 UNK        -0.5000 
     90 CA         -4.1769  -28.1734  -49.0337 C.3       16 UNK         0.1400 
     91 CB         -4.0032  -29.6984  -49.1905 C.3       16 UNK        -0.1800 
     92 C          -5.0650  -27.5459  -50.1304 C.2       16 UNK         0.5000 
     93 O          -5.8682  -28.2459  -50.7507 O.2       16 UNK        -0.5000 
     94 N          -4.9039  -26.2351  -50.3541 N.am      17 UNK        -0.5000 
     95 CA         -5.6757  -25.4583  -51.3184 C.3       17 UNK         0.1400 
     96 CB         -4.8653  -24.2143  -51.7104 C.3       17 UNK        -0.1800 
     97 C          -7.0446  -25.0632  -50.7370 C.2       17 UNK         0.5000 
     98 O          -7.1787  -24.9021  -49.5211 O.2       17 UNK        -0.5000 
     99 N          -8.0334  -24.8913  -51.6235 N.am      18 UNK        -0.5000 
    100 CA        -9.4070  -24.5097  -51.2771 C.3       18 UNK         0.1400 
    101 CB       -10.3192  -24.7970  -52.4800 C.3       18 UNK        -0.1800 
    102 C         -9.5497  -23.0391  -50.8338 C.2       18 UNK         0.5000 
    103 O        -10.5251  -22.7005  -50.1621 O.2       18 UNK        -0.5000 
    104 N         -8.5834  -22.1978  -51.2131 N.am      19 UNK        -0.5000 
    105 CA        -8.4709  -20.7920  -50.8490 C.3       19 UNK         0.1400 
    106 CB        -9.2637  -19.9311  -51.8480 C.3       19 UNK        -0.1800 
    107 C         -6.9828  -20.4179  -50.8475 C.2       19 UNK         0.5000 
    108 O         -6.1726  -21.1284  -51.4491 O.2       19 UNK        -0.5000 
    109 N         -6.6481  -19.3120  -50.1748 N.am      20 UNK        -0.5000 
    110 CA        -5.2932  -18.7699  -50.1137 C.3       20 UNK         0.1400 
    111 CB        -5.2292  -17.7084  -49.0041 C.3       20 UNK        -0.1800 
    112 C         -4.8610  -18.1700  -51.4612 C.2       20 UNK         0.5000 
    113 O         -5.6219  -17.4018  -52.0559 O.2       20 UNK        -0.5000 
    114 N         -3.6337  -18.4921  -51.8918 N.am      21 UNK        -0.5000 
    115 CA        -3.0404  -18.0483  -53.1592 C.3       21 UNK         0.1400 
    116 CB        -1.6639  -18.7065  -53.3256 C.3       21 UNK        -0.1800 
    117 C         -2.9103  -16.5195  -53.3077 C.2       21 UNK         0.5000 
    118 O         -2.8875  -16.0227  -54.4344 O.2       21 UNK        -0.5000 
    119 N         -2.8347  -15.8054  -52.1772 N.am      22 UNK        -0.5000 
    120 CA        -2.8107  -14.3355  -52.1184 C.3       22 UNK         0.1400 
    121 C         -4.1943  -13.6669  -52.3832 C.2       22 UNK         0.5000 
    122 N         -5.2983  -14.4040  -52.4511 N.am      22 UNK        -0.7600 
    123 O         -4.2662  -12.4507  -52.5352 O.2       22 UNK        -0.5000 
    124 C124       -2.1986  -13.8120  -50.7901 C.3       23 UNK        -0.0398 
    125 S125       -0.6014  -14.5404  -50.2700 S.3       23 UNK        -0.2404 
    126 C126        0.3482  -14.7473  -51.8174 C.3       23 UNK        -0.0205 
    127 H127        7.1558  -18.7588  -46.7226 H         1 UNK         0.0600 
    128 H128        5.7686  -19.6088  -47.4112 H         1 UNK         0.0600 
    129 H129        5.6663  -18.9116  -45.7893 H         1 UNK         0.0600 
    130 H130        7.3461  -17.0669  -48.2219 H         1 UNK         0.3000 
    131 H131        5.0382  -15.4595  -49.0360 H         1 UNK         0.0600 
    132 H132        7.0058  -16.2267  -50.5773 H         1 UNK         0.0800 
    133 H133        7.9477  -14.9780  -49.8360 H         1 UNK         0.0800 
    134 H134        5.1714  -14.5613  -53.3254 H         1 UNK         0.0800 
    135 H135        6.0362  -15.9467  -52.7228 H         1 UNK         0.0800 
    136 H136        2.8826  -14.0385  -52.5774 H         1 UNK         0.1150 
    137 H137        0.7082  -17.1247  -50.5776 H         1 UNK         0.1150 
    138 H138        4.9461  -17.4904  -51.0885 H         1 UNK         0.1150 
    139 H139        3.8083  -18.9455  -49.5360 H         1 UNK         0.0800 
    140 H140        2.1490  -18.6772  -49.0957 H         1 UNK         0.0800 
    141 H141        0.1351  -20.4269  -51.7952 H         1 UNK         0.0800 
    142 H142        0.1763  -19.2326  -50.5324 H         1 UNK         0.0800 
    143 H143        0.2607  -22.2607  -50.2177 H         1 UNK         0.0600 
    144 H144        0.2945  -20.3552  -47.9149 H         1 UNK         0.3000 
    145 H145        2.2375  -22.6463  -46.0215 H         1 UNK         0.0600 
    146 H146        3.5470  -20.6367  -45.5150 H         1 UNK         0.0600 
    147 H147        3.8885  -21.1448  -47.1612 H         1 UNK         0.0600 
    148 H148        2.8311  -19.7681  -46.8708 H         1 UNK         0.0600 
    149 H149        1.2278  -20.4450  -44.9224 H         1 UNK         0.3000 
    150 H150       -2.1468  -20.8533  -44.5049 H         1 UNK         0.0600 
    151 H151       -1.6109  -22.8751  -43.2116 H         1 UNK         0.0600 
    152 H152       -1.7839  -21.4952  -42.1383 H         1 UNK         0.0600 
    153 H153       -0.1814  -22.1158  -42.5349 H         1 UNK         0.0600 
    154 H154       -1.3540  -18.8923  -44.0166 H         1 UNK         0.3000 
    155 H155        1.0575  -17.6461  -41.8713 H         1 UNK         0.0600 
    156 H156        1.2501  -17.1263  -44.8854 H         1 UNK         0.0600 
    157 H157        2.5775  -17.5986  -43.8368 H         1 UNK         0.0600 
    158 H158        1.7992  -16.0413  -43.6142 H         1 UNK         0.0600 
    159 H159       -0.7357  -16.2973  -43.6556 H         1 UNK         0.3000 
    160 H160       -3.4800  -16.2756  -41.3261 H         1 UNK         0.0600 
    161 H161       -1.4950  -14.1748  -42.3521 H         1 UNK         0.0600 
    162 H162       -1.8660  -14.5048  -40.6639 H         1 UNK         0.0600 
    163 H163       -3.1082  -13.8522  -41.7212 H         1 UNK         0.0600 
    164 H164       -2.6419  -15.5691  -44.1095 H         1 UNK         0.3000 
    165 H165       -5.2105  -17.5081  -45.5203 H         1 UNK         0.0600 
    166 H166       -5.9505  -15.4446  -46.6850 H         1 UNK         0.0600 
    167 H167       -6.5639  -15.4605  -45.0393 H         1 UNK         0.0600 
    168 H168       -5.1891  -14.4412  -45.4492 H         1 UNK         0.0600 
    169 H169       -3.3859  -15.6141  -46.6498 H         1 UNK         0.3000 
    170 H170       -0.4486  -17.4655  -46.4060 H         1 UNK         0.0600 
    171 H171       -1.6141  -18.7850  -48.2698 H         1 UNK         0.0600 
    172 H172       -1.8914  -17.2482  -49.0820 H         1 UNK         0.0600 
    173 H173       -0.2494  -17.7913  -48.7355 H         1 UNK         0.0600 
    174 H174       -0.9500  -15.2947  -48.1159 H         1 UNK         0.3000 
    175 H175       -0.0228  -13.2770  -47.4881 H         1 UNK         0.0600 
    176 H176       -2.4809  -12.5380  -45.7776 H         1 UNK         0.0600 
    177 H177       -1.7079  -11.4756  -46.9531 H         1 UNK         0.0600 
    178 H178       -2.5117  -12.9411  -47.4919 H         1 UNK         0.0600 
    179 H179        0.1871  -13.2416  -44.6180 H         1 UNK         0.3000 
    180 H180        2.1509  -10.4820  -44.2772 H         1 UNK         0.0600 
    181 H181        1.6521  -13.3190  -43.1976 H         1 UNK         0.0600 
    182 H182        0.6825  -11.8936  -42.8333 H         1 UNK         0.0600 
    183 H183        2.3541  -11.9737  -42.3114 H         1 UNK         0.0600 
    184 H184        4.1750  -11.2170  -44.7964 H         1 UNK         0.3000 
    185 H185        5.6909  -12.3455  -46.0294 H         1 UNK         0.0600 
    186 H186        7.2861  -13.8234  -44.7732 H         1 UNK         0.0600 
    187 H187        6.1990  -13.0084  -43.6587 H         1 UNK         0.0600 
    188 H188        5.9332  -14.7016  -44.0610 H         1 UNK         0.0600 
    189 H189        4.6976  -15.0251  -46.6575 H         1 UNK         0.3000 
    190 H190       -1.4041  -22.3458  -47.9603 H         1 UNK         0.3000 
    191 H191       -4.0372  -22.0217  -49.2412 H         1 UNK         0.0600 
    192 H192       -4.9840  -20.9845  -47.1991 H         1 UNK         0.0600 
    193 H193       -3.7048  -19.9579  -47.8214 H         1 UNK         0.0600 
    194 H194       -3.3982  -20.9593  -46.4268 H         1 UNK         0.0600 
    195 H195       -4.0438  -22.7134  -45.9173 H         1 UNK         0.3000 
    196 H196       -5.0401  -25.3124  -46.2009 H         1 UNK         0.0600 
    197 H197       -4.8639  -25.3595  -43.7015 H         1 UNK         0.0600 
    198 H198       -5.5444  -23.8459  -44.2748 H         1 UNK         0.0600 
    199 H199       -3.8650  -23.9115  -43.7399 H         1 UNK         0.0600 
    200 H200       -1.6544  -24.2757  -45.6241 H         1 UNK         0.3000 
    201 H201       -0.7127  -26.9334  -44.9356 H         1 UNK         0.0600 
    202 H202        0.3992  -24.7838  -44.1848 H         1 UNK         0.0600 
    203 H203        0.8912  -24.5039  -45.8568 H         1 UNK         0.0600 
    204 H204        1.4984  -25.9002  -44.9844 H         1 UNK         0.0600 
    205 H205       -1.2897  -25.2028  -47.9146 H         1 UNK         0.3000 
    206 H206        0.2084  -27.1089  -49.6105 H         1 UNK         0.0600 
    207 H207        0.2579  -24.6887  -50.1756 H         1 UNK         0.0600 
    208 H208       -0.5536  -25.5994  -51.4373 H         1 UNK         0.0600 
    209 H209       -1.5021  -24.6550  -50.2973 H         1 UNK         0.0600 
    210 H210       -2.7446  -27.0089  -48.0321 H         1 UNK         0.3000 
    211 H211       -4.6994  -27.9991  -48.0922 H         1 UNK         0.0600 
    212 H212       -3.5522  -29.9600  -50.1480 H         1 UNK         0.0600 
    213 H213       -4.9650  -30.2091  -49.1330 H         1 UNK         0.0600 
    214 H214       -3.3735  -30.1060  -48.3997 H         1 UNK         0.0600 
    215 H215       -4.2801  -25.7090  -49.7489 H         1 UNK         0.3000 
    216 H216       -5.8324  -26.0625  -52.2147 H         1 UNK         0.0600 
    217 H217       -5.3739  -23.6435  -52.4880 H         1 UNK         0.0600 
    218 H218       -3.8830  -24.4867  -52.0969 H         1 UNK         0.0600 
    219 H219       -4.7166  -23.5483  -50.8614 H         1 UNK         0.0600 
    220 H220       -7.8439  -25.0363  -52.6050 H         1 UNK         0.3000 
    221 H221       -9.7359  -25.1345  -50.4440 H         1 UNK         0.0600 
    222 H222      -10.0319  -24.2091  -53.3526 H         1 UNK         0.0600 
    223 H223      -10.2867  -25.8507  -52.7578 H         1 UNK         0.0600 
    224 H224      -11.3578  -24.5557  -52.2496 H         1 UNK         0.0600 
    225 H225       -7.7808  -22.5576  -51.7138 H         1 UNK         0.3000 
    226 H226       -8.8625  -20.6430  -49.8404 H         1 UNK         0.0600 
    227 H227       -8.8936  -20.0568  -52.8663 H         1 UNK         0.0600 
    228 H228      -10.3220  -20.1923  -51.8421 H         1 UNK         0.0600 
    229 H229       -9.1900  -18.8717  -51.5999 H         1 UNK         0.0600 
    230 H230       -7.3733  -18.7588  -49.7425 H         1 UNK         0.3000 
    231 H231       -4.6124  -19.5836  -49.8640 H         1 UNK         0.0600 
    232 H232       -5.9258  -16.8895  -49.1885 H         1 UNK         0.0600 
    233 H233       -4.2326  -17.2753  -48.9320 H         1 UNK         0.0600 
    234 H234       -5.4681  -18.1382  -48.0314 H         1 UNK         0.0600 
    235 H235       -3.0953  -19.1743  -51.3628 H         1 UNK         0.3000 
    236 H236       -3.6890  -18.4004  -53.9637 H         1 UNK         0.0600 
    237 H237       -1.7358  -19.7928  -53.2699 H         1 UNK         0.0600 
    238 H238       -1.2262  -18.4595  -54.2937 H         1 UNK         0.0600 
    239 H239       -0.9679  -18.3688  -52.5575 H         1 UNK         0.0600 
    240 H240       -2.8560  -16.2930  -51.2956 H         1 UNK         0.3000 
    241 H241       -2.1684  -13.9858  -52.9284 H         1 UNK         0.0600 
    242 H242       -6.1809  -13.9511  -52.6274 H         1 UNK         0.3800 
    243 H243       -5.2707  -15.4117  -52.3392 H         1 UNK         0.3800 
    244 H244       -2.0559  -12.7315  -50.8498 H         1 UNK         0.0800 
    245 H245       -2.9021  -13.9724  -49.9714 H         1 UNK         0.0800 
    246 H246        0.5368  -13.7635  -52.2493 H         1 UNK         0.0800 
    247 H247       -0.2282  -15.3081  -52.5511 H         1 UNK         0.0800 
@<TRIPOS>BOND
     1    1    2 1    
     2    1  127 1    
     3    1  128 1    
     4    1  129 1    
     5    2    3 2    
     6    2    4 am   BACKBONE|DICT|INTERRES
     7    4    5 1    
     8    4  130 1    
     9    5    6 1    
    10    5   65 1    
    11    5  131 1    
    12    6    7 1    
    13    6  132 1    
    14    6  133 1    
    15    7    8 1    
    16    8    9 1    
    17    8  134 1    
    18    8  135 1    
    19    9   10 ar   
    20    9   14 ar   
    21   10   11 ar   
    22   10  136 1    
    23   11   12 ar   
    24   11  126 1    
    25   12   13 ar   
    26   12  137 1    
    27   13   14 ar   
    28   13   15 1    
    29   14  138 1    
    30   15   16 1    
    31   15  139 1    
    32   15  140 1    
    33   16   17 1    
    34   17   18 1    
    35   17  141 1    
    36   17  142 1    
    37   18   19 1    
    38   18   67 1    
    39   18  143 1    
    40   19   20 am   BACKBONE|DICT|INTERRES
    41   19  144 1    
    42   20   21 2    
    43   20   22 1    
    44   22   23 1    
    45   22   24 1    
    46   22  145 1    
    47   23  146 1    
    48   23  147 1    
    49   23  148 1    
    50   24   25 am   BACKBONE|DICT|INTERRES
    51   24  149 1    
    52   25   26 2    
    53   25   27 1    
    54   27   28 1    
    55   27   29 1    
    56   27  150 1    
    57   28  151 1    
    58   28  152 1    
    59   28  153 1    
    60   29   30 am   BACKBONE|DICT|INTERRES
    61   29  154 1    
    62   30   31 2    
    63   30   32 1    
    64   32   33 1    
    65   32   34 1    
    66   32  155 1    
    67   33  156 1    
    68   33  157 1    
    69   33  158 1    
    70   34   35 am   BACKBONE|DICT|INTERRES
    71   34  159 1    
    72   35   36 2    
    73   35   37 1    
    74   37   38 1    
    75   37   39 1    
    76   37  160 1    
    77   38  161 1    
    78   38  162 1    
    79   38  163 1    
    80   39   40 am   BACKBONE|DICT|INTERRES
    81   39  164 1    
    82   40   41 2    
    83   40   42 1    
    84   42   43 1    
    85   42   44 1    
    86   42  165 1    
    87   43  166 1    
    88   43  167 1    
    89   43  168 1    
    90   44   45 am   BACKBONE|DICT|INTERRES
    91   44  169 1    
    92   45   46 2    
    93   45   47 1    
    94   47   48 1    
    95   47   49 1    
    96   47  170 1    
    97   48  171 1    
    98   48  172 1    
    99   48  173 1    
   100   49   50 am   BACKBONE|DICT|INTERRES
   101   49  174 1    
   102   50   51 2    
   103   50   52 1    
   104   52   53 1    
   105   52   54 1    
   106   52  175 1    
   107   53  176 1    
   108   53  177 1    
   109   53  178 1    
   110   54   55 am   BACKBONE|DICT|INTERRES
   111   54  179 1    
   112   55   56 2    
   113   55   57 1    
   114   57   58 1    
   115   57   59 1    
   116   57  180 1    
   117   58  181 1    
   118   58  182 1    
   119   58  183 1    
   120   59   60 am   BACKBONE|DICT|INTERRES
   121   59  184 1    
   122   60   61 2    
   123   60   62 1    
   124   62   63 1    
   125   62   64 1    
   126   62  185 1    
   127   63  186 1    
   128   63  187 1    
   129   63  188 1    
   130   64   65 am   BACKBONE|DICT|INTERRES
   131   64  189 1    
   132   65   66 2    
   133   67   68 2    
   134   67   69 am   BACKBONE|DICT|INTERRES
   135   69   70 1    
   136   69  190 1    
   137   70   71 1    
   138   70   72 1    
   139   70  191 1    
   140   71  192 1    
   141   71  193 1    
   142   71  194 1    
   143   72   73 2    
   144   72   74 am   BACKBONE|DICT|INTERRES
   145   74   75 1    
   146   74  195 1    
   147   75   76 1    
   148   75   77 1    
   149   75  196 1    
   150   76  197 1    
   151   76  198 1    
   152   76  199 1    
   153   77   78 2    
   154   77   79 am   BACKBONE|DICT|INTERRES
   155   79   80 1    
   156   79  200 1    
   157   80   81 1    
   158   80   82 1    
   159   80  201 1    
   160   81  202 1    
   161   81  203 1    
   162   81  204 1    
   163   82   83 2    
   164   82   84 am   BACKBONE|DICT|INTERRES
   165   84   85 1    
   166   84  205 1    
   167   85   86 1    
   168   85   87 1    
   169   85  206 1    
   170   86  207 1    
   171   86  208 1    
   172   86  209 1    
   173   87   88 2    
   174   87   89 am   BACKBONE|DICT|INTERRES
   175   89   90 1    
   176   89  210 1    
   177   90   91 1    
   178   90   92 1    
   179   90  211 1    
   180   91  212 1    
   181   91  213 1    
   182   91  214 1    
   183   92   93 2    
   184   92   94 am   BACKBONE|DICT|INTERRES
   185   94   95 1    
   186   94  215 1    
   187   95   96 1    
   188   95   97 1    
   189   95  216 1    
   190   96  217 1    
   191   96  218 1    
   192   96  219 1    
   193   97   98 2    
   194   97   99 am   BACKBONE|DICT|INTERRES
   195   99  100 1    
   196   99  220 1    
   197  100  101 1    
   198  100  102 1    
   199  100  221 1    
   200  101  222 1    
   201  101  223 1    
   202  101  224 1    
   203  102  103 2    
   204  102  104 am   BACKBONE|DICT|INTERRES
   205  104  105 1    
   206  104  225 1    
   207  105  106 1    
   208  105  107 1    
   209  105  226 1    
   210  106  227 1    
   211  106  228 1    
   212  106  229 1    
   213  107  108 2    
   214  107  109 am   BACKBONE|DICT|INTERRES
   215  109  110 1    
   216  109  230 1    
   217  110  111 1    
   218  110  112 1    
   219  110  231 1    
   220  111  232 1    
   221  111  233 1    
   222  111  234 1    
   223  112  113 2    
   224  112  114 am   BACKBONE|DICT|INTERRES
   225  114  115 1    
   226  114  235 1    
   227  115  116 1    
   228  115  117 1    
   229  115  236 1    
   230  116  237 1    
   231  116  238 1    
   232  116  239 1    
   233  117  118 2    
   234  117  119 am   BACKBONE|DICT|INTERRES
   235  119  120 1    
   236  119  240 1    
   237  120  121 1    
   238  120  124 1    
   239  120  241 1    
   240  121  122 am   BACKBONE|DICT|INTERRES
   241  121  123 2    
   242  122  242 1    
   243  122  243 1    
   244  124  125 1    
   245  124  244 1    
   246  124  245 1    
   247  125  126 1    
   248  126  246 1    
   249  126  247 1    
@<TRIPOS>SUBSTRUCTURE
     1 UNK         1 GROUP             0       ****    0 ROOT    
