@<TRIPOS>MOLECULE
3R540
247   249    1
SMALL
USER_CHARGES


@<TRIPOS>ATOM
      1 CA          4.2082  -15.8519  -44.4523 C.3       0 UNK        -0.1800 
      2 C           3.2313  -14.9060  -45.1293 C.2       0 UNK         0.5000 
      3 O           2.8243  -13.9130  -44.5273 O.2       0 UNK        -0.5000 
      4 N           2.8546  -15.1948  -46.3821 N.am      1 UNK        -0.5000 
      5 CA          1.8979  -14.4138  -47.1806 C.3       1 UNK         0.1400 
      6 C6          1.5766  -15.1239  -48.5173 C.3       23 UNK        -0.0398 
      7 S7          0.0337  -14.5321  -49.2902 S.3       23 UNK        -0.2404 
      8 C8          0.0884  -15.4022  -50.8861 C.3       23 UNK        -0.0205 
      9 C9         -0.3101  -16.8622  -50.7429 C.ar      23 UNK        -0.0193 
     10 C10        -1.6560  -17.2302  -50.8289 C.ar      23 UNK        -0.1150 
     11 C11        -2.0343  -18.5704  -50.7165 C.ar      23 UNK        -0.0193 
     12 C12        -1.0533  -19.5432  -50.5117 C.ar      23 UNK        -0.1150 
     13 C13         0.2970  -19.1910  -50.4277 C.ar      23 UNK        -0.0193 
     14 C14         0.6629  -17.8475  -50.5491 C.ar      23 UNK        -0.1150 
     15 C15         1.3563  -20.2746  -50.2802 C.3       23 UNK        -0.0205 
     16 S16         2.4516  -20.0626  -48.8376 S.3       23 UNK        -0.2404 
     17 C17         1.3026  -20.1069  -47.4234 C.3       23 UNK        -0.0398 
     18 CA          0.7286  -21.5208  -47.1188 C.3       11 UNK         0.1400 
     19 N           0.7621  -21.8307  -45.6891 N.am      11 UNK        -0.5000 
     20 C           0.4565  -23.0076  -45.1264 C.2       10 UNK         0.5000 
     21 O           0.1483  -24.0084  -45.7751 O.2       10 UNK        -0.5000 
     22 CA          0.4198  -23.0516  -43.5835 C.3       10 UNK         0.1400 
     23 CB          0.9424  -24.3870  -43.0164 C.3       10 UNK        -0.1800 
     24 N           1.0703  -21.9008  -42.9432 N.am      10 UNK        -0.5000 
     25 C           2.3743  -21.5808  -42.9455 C.2       9 UNK         0.5000 
     26 O           3.2486  -22.2691  -43.4719 O.2       9 UNK        -0.5000 
     27 CA          2.7728  -20.2448  -42.2839 C.3       9 UNK         0.1400 
     28 CB          3.2331  -19.2384  -43.3492 C.3       9 UNK        -0.1800 
     29 N           1.6965  -19.6286  -41.5070 N.am      9 UNK        -0.5000 
     30 C           1.2696  -20.0499  -40.3095 C.2       8 UNK         0.5000 
     31 O           1.7810  -20.9799  -39.6857 O.2       8 UNK        -0.5000 
     32 CA          0.0323  -19.3344  -39.7393 C.3       8 UNK         0.1400 
     33 CB          0.4409  -18.0697  -38.9698 C.3       8 UNK        -0.1800 
     34 N          -0.9345  -18.9794  -40.7819 N.am      8 UNK        -0.5000 
     35 C          -1.6899  -19.8617  -41.4512 C.2       7 UNK         0.5000 
     36 O          -1.6470  -21.0777  -41.2670 O.2       7 UNK        -0.5000 
     37 CA         -2.6237  -19.2933  -42.5333 C.3       7 UNK         0.1400 
     38 CB         -3.9130  -18.7394  -41.9094 C.3       7 UNK        -0.1800 
     39 N          -1.9805  -18.2486  -43.3304 N.am      7 UNK        -0.5000 
     40 C          -1.0359  -18.4789  -44.2516 C.2       6 UNK         0.5000 
     41 O          -0.6576  -19.6047  -44.5740 O.2       6 UNK        -0.5000 
     42 CA         -0.3960  -17.2519  -44.9264 C.3       6 UNK         0.1400 
     43 CB         -1.1609  -16.9032  -46.2122 C.3       6 UNK        -0.1800 
     44 N          -0.3162  -16.0653  -44.0679 N.am      6 UNK        -0.5000 
     45 C           0.3316  -15.9953  -42.8946 C.2       5 UNK         0.5000 
     46 O           0.8963  -16.9614  -42.3790 O.2       5 UNK        -0.5000 
     47 CA          0.3465  -14.6261  -42.1878 C.3       5 UNK         0.1400 
     48 CB          1.5660  -14.4640  -41.2624 C.3       5 UNK        -0.1800 
     49 N           0.3620  -13.5373  -43.1629 N.am      5 UNK        -0.5000 
     50 C          -0.6231  -12.6590  -43.3870 C.2       4 UNK         0.5000 
     51 O          -1.7174  -12.7092  -42.8237 O.2       4 UNK        -0.5000 
     52 CA         -0.3366  -11.5538  -44.4294 C.3       4 UNK         0.1400 
     53 CB         -1.2163  -10.3006  -44.2391 C.3       4 UNK        -0.1800 
     54 N           1.0841  -11.1932  -44.5159 N.am      4 UNK        -0.5000 
     55 C           1.8577  -10.6671  -43.5509 C.2       3 UNK         0.5000 
     56 O           1.4311  -10.3218  -42.4482 O.2       3 UNK        -0.5000 
     57 CA          3.3660  -10.5254  -43.8481 C.3       3 UNK         0.1400 
     58 CB          4.2063  -11.1754  -42.7347 C.3       3 UNK        -0.1800 
     59 N           3.7318  -11.1510  -45.1196 N.am      3 UNK        -0.5000 
     60 C           4.0067  -10.5037  -46.2597 C.2       2 UNK         0.5000 
     61 O           4.0474   -9.2768  -46.3567 O.2       2 UNK        -0.5000 
     62 CA          4.2619  -11.3691  -47.5139 C.3       2 UNK         0.1400 
     63 CB          5.7706  -11.5247  -47.7584 C.3       2 UNK        -0.1800 
     64 N           3.6525  -12.7021  -47.4537 N.am      2 UNK        -0.5000 
     65 C           2.3348  -12.9441  -47.3892 C.2       1 UNK         0.5000 
     66 O           1.4846  -12.0538  -47.4023 O.2       1 UNK        -0.5000 
     67 C          -0.7082  -21.6540  -47.6506 C.2       11 UNK         0.5000 
     68 O          -0.9327  -22.3314  -48.6528 O.2       11 UNK        -0.5000 
     69 N          -1.6562  -21.0371  -46.9310 N.am      12 UNK        -0.5000 
     70 CA         -3.0826  -21.0495  -47.2500 C.3       12 UNK         0.1400 
     71 CB         -3.7994  -19.9914  -46.3990 C.3       12 UNK        -0.1800 
     72 C          -3.7303  -22.4300  -47.0491 C.2       12 UNK         0.5000 
     73 O          -4.6600  -22.7717  -47.7784 O.2       12 UNK        -0.5000 
     74 N          -3.2147  -23.1994  -46.0794 N.am      13 UNK        -0.5000 
     75 CA         -3.6422  -24.5684  -45.7906 C.3       13 UNK         0.1400 
     76 CB         -3.0872  -25.0047  -44.4257 C.3       13 UNK        -0.1800 
     77 C          -3.2186  -25.5476  -46.8996 C.2       13 UNK         0.5000 
     78 O          -4.0191  -26.3917  -47.3037 O.2       13 UNK        -0.5000 
     79 N          -1.9799  -25.3971  -47.3898 N.am      14 UNK        -0.5000 
     80 CA         -1.4531  -26.1376  -48.5365 C.3       14 UNK         0.1400 
     81 CB          0.0763  -25.9890  -48.5641 C.3       14 UNK        -0.1800 
     82 C          -2.0558  -25.6678  -49.8747 C.2       14 UNK         0.5000 
     83 O          -2.1915  -26.4756  -50.7939 O.2       14 UNK        -0.5000 
     84 N          -2.3723  -24.3662  -49.9560 N.am      15 UNK        -0.5000 
     85 CA         -2.7908  -23.6097  -51.1398 C.3       15 UNK         0.1400 
     86 CB         -4.1745  -24.0671  -51.6433 C.3       15 UNK        -0.1800 
     87 C          -1.7015  -23.6131  -52.2326 C.2       15 UNK         0.5000 
     88 O          -2.0097  -23.6919  -53.4227 O.2       15 UNK        -0.5000 
     89 N          -0.4332  -23.5254  -51.7999 N.am      16 UNK        -0.5000 
     90 CA          0.7674  -23.7049  -52.6274 C.3       16 UNK         0.1400 
     91 CB          2.0005  -23.8135  -51.7163 C.3       16 UNK        -0.1800 
     92 C           0.9742  -22.6407  -53.7263 C.2       16 UNK         0.5000 
     93 O           1.7712  -22.8628  -54.6380 O.2       16 UNK        -0.5000 
     94 N           0.2284  -21.5300  -53.6522 N.am      17 UNK        -0.5000 
     95 CA          0.1166  -20.5165  -54.7045 C.3       17 UNK         0.1400 
     96 CB         -0.4658  -19.2339  -54.0882 C.3       17 UNK        -0.1800 
     97 C          -0.7358  -20.9693  -55.9135 C.2       17 UNK         0.5000 
     98 O          -0.8026  -20.2349  -56.8996 O.2       17 UNK        -0.5000 
     99 N          -1.3860  -22.1410  -55.8113 N.am      18 UNK        -0.5000 
    100 CA        -2.3345  -22.7329  -56.7636 C.3       18 UNK         0.1400 
    101 CB        -1.6916  -22.9696  -58.1467 C.3       18 UNK        -0.1800 
    102 C         -3.6666  -21.9573  -56.8274 C.2       18 UNK         0.5000 
    103 O         -4.3298  -21.9348  -57.8662 O.2       18 UNK        -0.5000 
    104 N         -4.0341  -21.3404  -55.6981 N.am      19 UNK        -0.5000 
    105 CA        -5.2990  -20.6455  -55.4838 C.3       19 UNK         0.1400 
    106 CB        -5.1211  -19.6901  -54.2931 C.3       19 UNK        -0.1800 
    107 C         -6.4409  -21.6390  -55.2035 C.2       19 UNK         0.5000 
    108 O         -6.1889  -22.7814  -54.8102 O.2       19 UNK        -0.5000 
    109 N         -7.6845  -21.1663  -55.3494 N.am      20 UNK        -0.5000 
    110 CA        -8.9105  -21.8947  -55.0161 C.3       20 UNK         0.1400 
    111 CB       -10.0962  -21.2226  -55.7307 C.3       20 UNK        -0.1800 
    112 C         -9.1068  -21.9607  -53.4877 C.2       20 UNK         0.5000 
    113 O         -9.8835  -21.1846  -52.9267 O.2       20 UNK        -0.5000 
    114 N         -8.3256  -22.8351  -52.8361 N.am      21 UNK        -0.5000 
    115 CA        -8.2525  -23.0673  -51.3856 C.3       21 UNK         0.1400 
    116 CB        -9.5585  -23.7128  -50.8785 C.3       21 UNK        -0.1800 
    117 C         -7.8599  -21.8099  -50.5756 C.2       21 UNK         0.5000 
    118 O         -8.2045  -21.7019  -49.3980 O.2       21 UNK        -0.5000 
    119 N         -7.1610  -20.8746  -51.2347 N.am      22 UNK        -0.5000 
    120 CA        -6.8131  -19.5365  -50.7310 C.3       22 UNK         0.1400 
    121 C         -8.0314  -18.5770  -50.5443 C.2       22 UNK         0.5000 
    122 N         -9.1914  -18.8558  -51.1305 N.am      22 UNK        -0.7600 
    123 O         -7.9244  -17.5472  -49.8848 O.2       22 UNK        -0.5000 
    124 C124       -5.8648  -19.6032  -49.4979 C.3       23 UNK        -0.0398 
    125 S125       -4.5354  -18.3519  -49.5181 S.3       23 UNK        -0.2404 
    126 C126       -3.4914  -18.9773  -50.8720 C.3       23 UNK        -0.0205 
    127 H127        5.1955  -15.3940  -44.3976 H         1 UNK         0.0600 
    128 H128        3.8738  -16.0621  -43.4368 H         1 UNK         0.0600 
    129 H129        4.2935  -16.7974  -44.9881 H         1 UNK         0.0600 
    130 H130        3.2395  -16.0134  -46.8315 H         1 UNK         0.3000 
    131 H131        0.9797  -14.3789  -46.5907 H         1 UNK         0.0600 
    132 H132        1.4530  -16.1933  -48.3409 H         1 UNK         0.0800 
    133 H133        2.4041  -15.0242  -49.2221 H         1 UNK         0.0800 
    134 H134        1.0833  -15.3160  -51.3256 H         1 UNK         0.0800 
    135 H135       -0.5913  -14.9045  -51.5793 H         1 UNK         0.0800 
    136 H136       -2.4112  -16.4738  -50.9907 H         1 UNK         0.1150 
    137 H137       -1.3423  -20.5809  -50.4466 H         1 UNK         0.1150 
    138 H138        1.7070  -17.5721  -50.5021 H         1 UNK         0.1150 
    139 H139        0.8918  -21.2577  -50.2245 H         1 UNK         0.0800 
    140 H140        1.9691  -20.2810  -51.1826 H         1 UNK         0.0800 
    141 H141        1.8792  -19.7471  -46.5701 H         1 UNK         0.0800 
    142 H142        0.5269  -19.3529  -47.5693 H         1 UNK         0.0800 
    143 H143        1.3387  -22.2769  -47.6176 H         1 UNK         0.0600 
    144 H144        0.8803  -21.0437  -45.0652 H         1 UNK         0.3000 
    145 H145       -0.6343  -22.9764  -43.3131 H         1 UNK         0.0600 
    146 H146        0.9016  -24.3952  -41.9272 H         1 UNK         0.0600 
    147 H147        0.3392  -25.2245  -43.3685 H         1 UNK         0.0600 
    148 H148        1.9719  -24.5825  -43.3166 H         1 UNK         0.0600 
    149 H149        0.4404  -21.2604  -42.4789 H         1 UNK         0.3000 
    150 H150        3.6128  -20.4480  -41.6166 H         1 UNK         0.0600 
    151 H151        3.6001  -18.3263  -42.8807 H         1 UNK         0.0600 
    152 H152        2.4214  -18.9661  -44.0248 H         1 UNK         0.0600 
    153 H153        4.0463  -19.6424  -43.9535 H         1 UNK         0.0600 
    154 H154        1.2626  -18.8016  -41.9089 H         1 UNK         0.3000 
    155 H155       -0.4551  -20.0163  -39.0392 H         1 UNK         0.0600 
    156 H156       -0.4254  -17.5795  -38.5255 H         1 UNK         0.0600 
    157 H157        0.9404  -17.3493  -39.6173 H         1 UNK         0.0600 
    158 H158        1.1287  -18.3126  -38.1589 H         1 UNK         0.0600 
    159 H159       -0.9852  -18.0044  -41.0365 H         1 UNK         0.3000 
    160 H160       -2.8961  -20.1194  -43.1921 H         1 UNK         0.0600 
    161 H161       -3.7138  -17.8928  -41.2513 H         1 UNK         0.0600 
    162 H162       -4.4198  -19.5033  -41.3181 H         1 UNK         0.0600 
    163 H163       -4.6112  -18.4096  -42.6789 H         1 UNK         0.0600 
    164 H164       -2.2463  -17.2939  -43.1398 H         1 UNK         0.3000 
    165 H165        0.6248  -17.5259  -45.1998 H         1 UNK         0.0600 
    166 H166       -2.1897  -16.6087  -46.0016 H         1 UNK         0.0600 
    167 H167       -0.6852  -16.0848  -46.7488 H         1 UNK         0.0600 
    168 H168       -1.1984  -17.7533  -46.8947 H         1 UNK         0.0600 
    169 H169       -0.7630  -15.2275  -44.4094 H         1 UNK         0.3000 
    170 H170       -0.5535  -14.5775  -41.5724 H         1 UNK         0.0600 
    171 H171        1.5606  -15.2063  -40.4646 H         1 UNK         0.0600 
    172 H172        2.5031  -14.5739  -41.8090 H         1 UNK         0.0600 
    173 H173        1.5710  -13.4819  -40.7890 H         1 UNK         0.0600 
    174 H174        1.2261  -13.4528  -43.6944 H         1 UNK         0.3000 
    175 H175       -0.5930  -11.9862  -45.3975 H         1 UNK         0.0600 
    176 H176       -1.0763   -9.8505  -43.2561 H         1 UNK         0.0600 
    177 H177       -0.9913   -9.5438  -44.9906 H         1 UNK         0.0600 
    178 H178       -2.2742  -10.5471  -44.3363 H         1 UNK         0.0600 
    179 H179        1.5244  -11.4196  -45.3999 H         1 UNK         0.3000 
    180 H180        3.5926   -9.4578  -43.8678 H         1 UNK         0.0600 
    181 H181        5.2727  -11.0794  -42.9391 H         1 UNK         0.0600 
    182 H182        4.0187  -10.7010  -41.7708 H         1 UNK         0.0600 
    183 H183        3.9797  -12.2371  -42.6276 H         1 UNK         0.0600 
    184 H184        3.6814  -12.1640  -45.1295 H         1 UNK         0.3000 
    185 H185        3.8289  -10.8422  -48.3667 H         1 UNK         0.0600 
    186 H186        5.9674  -12.0620  -48.6864 H         1 UNK         0.0600 
    187 H187        6.2563  -10.5513  -47.8395 H         1 UNK         0.0600 
    188 H188        6.2557  -12.0668  -46.9455 H         1 UNK         0.0600 
    189 H189        4.2868  -13.4863  -47.4074 H         1 UNK         0.3000 
    190 H190       -1.3750  -20.5311  -46.0961 H         1 UNK         0.3000 
    191 H191       -3.1915  -20.7822  -48.3023 H         1 UNK         0.0600 
    192 H192       -4.8640  -19.9578  -46.6319 H         1 UNK         0.0600 
    193 H193       -3.3969  -18.9958  -46.5837 H         1 UNK         0.0600 
    194 H194       -3.7071  -20.2013  -45.3347 H         1 UNK         0.0600 
    195 H195       -2.4409  -22.8389  -45.5438 H         1 UNK         0.3000 
    196 H196       -4.7327  -24.5788  -45.7319 H         1 UNK         0.0600 
    197 H197       -3.4435  -26.0017  -44.1638 H         1 UNK         0.0600 
    198 H198       -3.4067  -24.3275  -43.6334 H         1 UNK         0.0600 
    199 H199       -1.9979  -25.0376  -44.4213 H         1 UNK         0.0600 
    200 H200       -1.3545  -24.7247  -46.9579 H         1 UNK         0.3000 
    201 H201       -1.6939  -27.1954  -48.4109 H         1 UNK         0.0600 
    202 H202        0.5260  -26.3820  -47.6520 H         1 UNK         0.0600 
    203 H203        0.3780  -24.9450  -48.6598 H         1 UNK         0.0600 
    204 H204        0.5090  -26.5357  -49.4030 H         1 UNK         0.0600 
    205 H205       -2.1365  -23.7889  -49.1556 H         1 UNK         0.3000 
    206 H206       -2.8908  -22.5737  -50.8143 H         1 UNK         0.0600 
    207 H207       -4.9100  -24.0413  -50.8392 H         1 UNK         0.0600 
    208 H208       -4.5379  -23.4136  -52.4375 H         1 UNK         0.0600 
    209 H209       -4.1472  -25.0812  -52.0424 H         1 UNK         0.0600 
    210 H210       -0.2854  -23.4404  -50.8034 H         1 UNK         0.3000 
    211 H211        0.6551  -24.6608  -53.1434 H         1 UNK         0.0600 
    212 H212        2.1972  -22.8879  -51.1784 H         1 UNK         0.0600 
    213 H213        2.8939  -24.0445  -52.2980 H         1 UNK         0.0600 
    214 H214        1.8809  -24.6105  -50.9821 H         1 UNK         0.0600 
    215 H215       -0.3953  -21.4330  -52.8662 H         1 UNK         0.3000 
    216 H216        1.1169  -20.2913  -55.0798 H         1 UNK         0.0600 
    217 H217       -0.5642  -18.4453  -54.8353 H         1 UNK         0.0600 
    218 H218        0.1822  -18.8472  -53.3027 H         1 UNK         0.0600 
    219 H219       -1.4541  -19.4031  -53.6593 H         1 UNK         0.0600 
    220 H220       -1.2999  -22.6563  -54.9404 H         1 UNK         0.3000 
    221 H221       -2.5855  -23.7127  -56.3547 H         1 UNK         0.0600 
    222 H222       -1.5035  -22.0355  -58.6760 H         1 UNK         0.0600 
    223 H223       -0.7450  -23.5023  -58.0558 H         1 UNK         0.0600 
    224 H224       -2.3434  -23.5734  -58.7791 H         1 UNK         0.0600 
    225 H225       -3.4464  -21.4640  -54.8881 H         1 UNK         0.3000 
    226 H226       -5.5451  -20.0648  -56.3754 H         1 UNK         0.0600 
    227 H227       -6.0273  -19.1112  -54.1109 H         1 UNK         0.0600 
    228 H228       -4.8844  -20.2341  -53.3781 H         1 UNK         0.0600 
    229 H229       -4.3159  -18.9781  -54.4765 H         1 UNK         0.0600 
    230 H230       -7.8093  -20.2100  -55.6495 H         1 UNK         0.3000 
    231 H231       -8.8317  -22.9177  -55.3906 H         1 UNK         0.0600 
    232 H232      -11.0312  -21.7348  -55.5003 H         1 UNK         0.0600 
    233 H233       -9.9700  -21.2503  -56.8132 H         1 UNK         0.0600 
    234 H234      -10.2113  -20.1793  -55.4338 H         1 UNK         0.0600 
    235 H235       -7.6492  -23.3453  -53.3946 H         1 UNK         0.3000 
    236 H236       -7.4474  -23.7869  -51.2322 H         1 UNK         0.0600 
    237 H237       -9.8091  -24.6021  -51.4567 H         1 UNK         0.0600 
    238 H238       -9.4653  -24.0218  -49.8367 H         1 UNK         0.0600 
    239 H239      -10.4010  -23.0234  -50.9409 H         1 UNK         0.0600 
    240 H240       -6.9460  -21.0535  -52.2033 H         1 UNK         0.3000 
    241 H241       -6.2596  -19.0866  -51.5538 H         1 UNK         0.0600 
    242 H242       -9.3201  -19.6957  -51.6850 H         1 UNK         0.3800 
    243 H243       -9.9657  -18.2226  -51.0090 H         1 UNK         0.3800 
    244 H244       -6.4275  -19.5090  -48.5677 H         1 UNK         0.0800 
    245 H245       -5.3839  -20.5803  -49.4381 H         1 UNK         0.0800 
    246 H246       -3.5762  -20.0630  -50.9324 H         1 UNK         0.0800 
    247 H247       -3.8660  -18.5849  -51.8175 H         1 UNK         0.0800 
@<TRIPOS>BOND
     1    1    2 1    
     2    1  127 1    
     3    1  128 1    
     4    1  129 1    
     5    2    3 2    
     6    2    4 am   BACKBONE|DICT|INTERRES
     7    4    5 1    
     8    4  130 1    
     9    5    6 1    
    10    5   65 1    
    11    5  131 1    
    12    6    7 1    
    13    6  132 1    
    14    6  133 1    
    15    7    8 1    
    16    8    9 1    
    17    8  134 1    
    18    8  135 1    
    19    9   10 ar   
    20    9   14 ar   
    21   10   11 ar   
    22   10  136 1    
    23   11   12 ar   
    24   11  126 1    
    25   12   13 ar   
    26   12  137 1    
    27   13   14 ar   
    28   13   15 1    
    29   14  138 1    
    30   15   16 1    
    31   15  139 1    
    32   15  140 1    
    33   16   17 1    
    34   17   18 1    
    35   17  141 1    
    36   17  142 1    
    37   18   19 1    
    38   18   67 1    
    39   18  143 1    
    40   19   20 am   BACKBONE|DICT|INTERRES
    41   19  144 1    
    42   20   21 2    
    43   20   22 1    
    44   22   23 1    
    45   22   24 1    
    46   22  145 1    
    47   23  146 1    
    48   23  147 1    
    49   23  148 1    
    50   24   25 am   BACKBONE|DICT|INTERRES
    51   24  149 1    
    52   25   26 2    
    53   25   27 1    
    54   27   28 1    
    55   27   29 1    
    56   27  150 1    
    57   28  151 1    
    58   28  152 1    
    59   28  153 1    
    60   29   30 am   BACKBONE|DICT|INTERRES
    61   29  154 1    
    62   30   31 2    
    63   30   32 1    
    64   32   33 1    
    65   32   34 1    
    66   32  155 1    
    67   33  156 1    
    68   33  157 1    
    69   33  158 1    
    70   34   35 am   BACKBONE|DICT|INTERRES
    71   34  159 1    
    72   35   36 2    
    73   35   37 1    
    74   37   38 1    
    75   37   39 1    
    76   37  160 1    
    77   38  161 1    
    78   38  162 1    
    79   38  163 1    
    80   39   40 am   BACKBONE|DICT|INTERRES
    81   39  164 1    
    82   40   41 2    
    83   40   42 1    
    84   42   43 1    
    85   42   44 1    
    86   42  165 1    
    87   43  166 1    
    88   43  167 1    
    89   43  168 1    
    90   44   45 am   BACKBONE|DICT|INTERRES
    91   44  169 1    
    92   45   46 2    
    93   45   47 1    
    94   47   48 1    
    95   47   49 1    
    96   47  170 1    
    97   48  171 1    
    98   48  172 1    
    99   48  173 1    
   100   49   50 am   BACKBONE|DICT|INTERRES
   101   49  174 1    
   102   50   51 2    
   103   50   52 1    
   104   52   53 1    
   105   52   54 1    
   106   52  175 1    
   107   53  176 1    
   108   53  177 1    
   109   53  178 1    
   110   54   55 am   BACKBONE|DICT|INTERRES
   111   54  179 1    
   112   55   56 2    
   113   55   57 1    
   114   57   58 1    
   115   57   59 1    
   116   57  180 1    
   117   58  181 1    
   118   58  182 1    
   119   58  183 1    
   120   59   60 am   BACKBONE|DICT|INTERRES
   121   59  184 1    
   122   60   61 2    
   123   60   62 1    
   124   62   63 1    
   125   62   64 1    
   126   62  185 1    
   127   63  186 1    
   128   63  187 1    
   129   63  188 1    
   130   64   65 am   BACKBONE|DICT|INTERRES
   131   64  189 1    
   132   65   66 2    
   133   67   68 2    
   134   67   69 am   BACKBONE|DICT|INTERRES
   135   69   70 1    
   136   69  190 1    
   137   70   71 1    
   138   70   72 1    
   139   70  191 1    
   140   71  192 1    
   141   71  193 1    
   142   71  194 1    
   143   72   73 2    
   144   72   74 am   BACKBONE|DICT|INTERRES
   145   74   75 1    
   146   74  195 1    
   147   75   76 1    
   148   75   77 1    
   149   75  196 1    
   150   76  197 1    
   151   76  198 1    
   152   76  199 1    
   153   77   78 2    
   154   77   79 am   BACKBONE|DICT|INTERRES
   155   79   80 1    
   156   79  200 1    
   157   80   81 1    
   158   80   82 1    
   159   80  201 1    
   160   81  202 1    
   161   81  203 1    
   162   81  204 1    
   163   82   83 2    
   164   82   84 am   BACKBONE|DICT|INTERRES
   165   84   85 1    
   166   84  205 1    
   167   85   86 1    
   168   85   87 1    
   169   85  206 1    
   170   86  207 1    
   171   86  208 1    
   172   86  209 1    
   173   87   88 2    
   174   87   89 am   BACKBONE|DICT|INTERRES
   175   89   90 1    
   176   89  210 1    
   177   90   91 1    
   178   90   92 1    
   179   90  211 1    
   180   91  212 1    
   181   91  213 1    
   182   91  214 1    
   183   92   93 2    
   184   92   94 am   BACKBONE|DICT|INTERRES
   185   94   95 1    
   186   94  215 1    
   187   95   96 1    
   188   95   97 1    
   189   95  216 1    
   190   96  217 1    
   191   96  218 1    
   192   96  219 1    
   193   97   98 2    
   194   97   99 am   BACKBONE|DICT|INTERRES
   195   99  100 1    
   196   99  220 1    
   197  100  101 1    
   198  100  102 1    
   199  100  221 1    
   200  101  222 1    
   201  101  223 1    
   202  101  224 1    
   203  102  103 2    
   204  102  104 am   BACKBONE|DICT|INTERRES
   205  104  105 1    
   206  104  225 1    
   207  105  106 1    
   208  105  107 1    
   209  105  226 1    
   210  106  227 1    
   211  106  228 1    
   212  106  229 1    
   213  107  108 2    
   214  107  109 am   BACKBONE|DICT|INTERRES
   215  109  110 1    
   216  109  230 1    
   217  110  111 1    
   218  110  112 1    
   219  110  231 1    
   220  111  232 1    
   221  111  233 1    
   222  111  234 1    
   223  112  113 2    
   224  112  114 am   BACKBONE|DICT|INTERRES
   225  114  115 1    
   226  114  235 1    
   227  115  116 1    
   228  115  117 1    
   229  115  236 1    
   230  116  237 1    
   231  116  238 1    
   232  116  239 1    
   233  117  118 2    
   234  117  119 am   BACKBONE|DICT|INTERRES
   235  119  120 1    
   236  119  240 1    
   237  120  121 1    
   238  120  124 1    
   239  120  241 1    
   240  121  122 am   BACKBONE|DICT|INTERRES
   241  121  123 2    
   242  122  242 1    
   243  122  243 1    
   244  124  125 1    
   245  124  244 1    
   246  124  245 1    
   247  125  126 1    
   248  126  246 1    
   249  126  247 1    
@<TRIPOS>SUBSTRUCTURE
     1 UNK         1 GROUP             0       ****    0 ROOT    
