@<TRIPOS>MOLECULE
3R540
247   249    1
SMALL
USER_CHARGES


@<TRIPOS>ATOM
      1 CA          5.0749  -14.6067  -45.9177 C.3       0 UNK        -0.1800 
      2 C           4.0975  -13.4927  -46.2598 C.2       0 UNK         0.5000 
      3 O           4.5198  -12.3668  -46.5248 O.2       0 UNK        -0.5000 
      4 N           2.7939  -13.7968  -46.2376 N.am      1 UNK        -0.5000 
      5 CA          1.6823  -12.8803  -46.5216 C.3       1 UNK         0.1400 
      6 C6          1.6224  -12.3941  -47.9978 C.3       23 UNK        -0.0398 
      7 S7          1.5038  -13.7788  -49.1812 S.3       23 UNK        -0.2404 
      8 C8         -0.2732  -14.1675  -49.0844 C.3       23 UNK        -0.0205 
      9 C9         -0.6261  -15.4312  -49.8559 C.ar      23 UNK        -0.0193 
     10 C10        -1.5457  -15.3837  -50.9069 C.ar      23 UNK        -0.1150 
     11 C11        -1.8966  -16.5482  -51.5948 C.ar      23 UNK        -0.0193 
     12 C12        -1.3125  -17.7647  -51.2322 C.ar      23 UNK        -0.1150 
     13 C13        -0.4013  -17.8349  -50.1745 C.ar      23 UNK        -0.0193 
     14 C14        -0.0600  -16.6580  -49.4949 C.ar      23 UNK        -0.1150 
     15 C15         0.2003  -19.1929  -49.8173 C.3       23 UNK        -0.0205 
     16 S16         0.7233  -19.3641  -48.0789 S.3       23 UNK        -0.2404 
     17 C17         1.1676  -21.1303  -48.0133 C.3       23 UNK        -0.0398 
     18 CA          0.1559  -22.0452  -47.2792 C.3       11 UNK         0.1400 
     19 N           0.1163  -21.8239  -45.8289 N.am      11 UNK        -0.5000 
     20 C          -0.3672  -22.7272  -44.9628 C.2       10 UNK         0.5000 
     21 O          -0.8340  -23.8124  -45.3080 O.2       10 UNK        -0.5000 
     22 CA         -0.3636  -22.3605  -43.4687 C.3       10 UNK         0.1400 
     23 CB          1.0468  -22.4834  -42.8733 C.3       10 UNK        -0.1800 
     24 N          -0.9070  -21.0299  -43.2034 N.am      10 UNK        -0.5000 
     25 C          -2.1716  -20.6645  -43.4578 C.2       9 UNK         0.5000 
     26 O          -3.0173  -21.4158  -43.9426 O.2       9 UNK        -0.5000 
     27 CA         -2.5474  -19.2036  -43.1549 C.3       9 UNK         0.1400 
     28 CB         -2.8252  -19.0064  -41.6572 C.3       9 UNK        -0.1800 
     29 N          -1.5188  -18.2620  -43.5910 N.am      9 UNK        -0.5000 
     30 C          -1.1470  -18.0832  -44.8663 C.2       8 UNK         0.5000 
     31 O          -1.6735  -18.6570  -45.8182 O.2       8 UNK        -0.5000 
     32 CA          0.0424  -17.1355  -45.1039 C.3       8 UNK         0.1400 
     33 CB         -0.3970  -15.6707  -44.9607 C.3       8 UNK        -0.1800 
     34 N           1.1568  -17.4042  -44.1926 N.am      8 UNK        -0.5000 
     35 C           1.8194  -18.5683  -44.1049 C.2       7 UNK         0.5000 
     36 O           1.6051  -19.5438  -44.8231 O.2       7 UNK        -0.5000 
     37 CA          2.8616  -18.6803  -42.9803 C.3       7 UNK         0.1400 
     38 CB          4.2078  -18.0860  -43.4176 C.3       7 UNK        -0.1800 
     39 N           2.4025  -18.0291  -41.7533 N.am      7 UNK        -0.5000 
     40 C           1.4016  -18.4900  -40.9886 C.2       6 UNK         0.5000 
     41 O           0.7994  -19.5405  -41.2101 O.2       6 UNK        -0.5000 
     42 CA          0.9708  -17.5998  -39.8086 C.3       6 UNK         0.1400 
     43 CB          1.8900  -17.8191  -38.5979 C.3       6 UNK        -0.1800 
     44 N           0.9590  -16.1787  -40.1608 N.am      6 UNK        -0.5000 
     45 C           0.1172  -15.6268  -41.0469 C.2       5 UNK         0.5000 
     46 O          -0.7801  -16.2529  -41.6094 O.2       5 UNK        -0.5000 
     47 CA          0.3405  -14.1413  -41.3939 C.3       5 UNK         0.1400 
     48 CB         -0.5202  -13.2423  -40.4946 C.3       5 UNK        -0.1800 
     49 N           1.7430  -13.7274  -41.2928 N.am      5 UNK        -0.5000 
     50 C           2.7273  -14.1921  -42.0721 C.2       4 UNK         0.5000 
     51 O           2.5553  -15.0085  -42.9804 O.2       4 UNK        -0.5000 
     52 CA          4.1342  -13.6629  -41.7735 C.3       4 UNK         0.1400 
     53 CB          5.2048  -14.7619  -41.9271 C.3       4 UNK        -0.1800 
     54 N           4.4171  -12.5367  -42.6570 N.am      4 UNK        -0.5000 
     55 C           5.3819  -11.6305  -42.4498 C.2       3 UNK         0.5000 
     56 O           6.1188  -11.6374  -41.4627 O.2       3 UNK        -0.5000 
     57 CA          5.5760  -10.5330  -43.5127 C.3       3 UNK         0.1400 
     58 CB          6.7621  -10.8775  -44.4272 C.3       3 UNK        -0.1800 
     59 N           4.3846  -10.3073  -44.3327 N.am      3 UNK        -0.5000 
     60 C           3.3565   -9.5286  -43.9630 C.2       2 UNK         0.5000 
     61 O           3.3105   -8.9285  -42.8885 O.2       2 UNK        -0.5000 
     62 CA          2.1809   -9.3865  -44.9518 C.3       2 UNK         0.1400 
     63 CB          2.3329   -8.1056  -45.7864 C.3       2 UNK        -0.1800 
     64 N           2.0426  -10.5284  -45.8565 N.am      2 UNK        -0.5000 
     65 C           1.6560  -11.7514  -45.4708 C.2       1 UNK         0.5000 
     66 O           1.3243  -12.0221  -44.3162 O.2       1 UNK        -0.5000 
     67 C          -1.2524  -22.0501  -47.9159 C.2       11 UNK         0.5000 
     68 O          -1.4839  -22.8114  -48.8565 O.2       11 UNK        -0.5000 
     69 N          -2.1792  -21.2491  -47.3690 N.am      12 UNK        -0.5000 
     70 CA         -3.5947  -21.2553  -47.7373 C.3       12 UNK         0.1400 
     71 CB         -4.3035  -20.0564  -47.0926 C.3       12 UNK        -0.1800 
     72 C          -4.2877  -22.5753  -47.3530 C.2       12 UNK         0.5000 
     73 O          -4.9959  -23.1501  -48.1790 O.2       12 UNK        -0.5000 
     74 N          -4.0383  -23.0592  -46.1263 N.am      13 UNK        -0.5000 
     75 CA         -4.5427  -24.3378  -45.6156 C.3       13 UNK         0.1400 
     76 CB         -4.2374  -24.4514  -44.1145 C.3       13 UNK        -0.1800 
     77 C          -3.9838  -25.5541  -46.3780 C.2       13 UNK         0.5000 
     78 O          -4.7169  -26.5157  -46.6109 O.2       13 UNK        -0.5000 
     79 N          -2.7103  -25.4734  -46.7868 N.am      14 UNK        -0.5000 
     80 CA         -2.0364  -26.4533  -47.6419 C.3       14 UNK         0.1400 
     81 CB         -0.5188  -26.2300  -47.5507 C.3       14 UNK        -0.1800 
     82 C          -2.4939  -26.4081  -49.1155 C.2       14 UNK         0.5000 
     83 O          -2.1581  -27.3218  -49.8699 O.2       14 UNK        -0.5000 
     84 N          -3.2326  -25.3549  -49.4970 N.am      15 UNK        -0.5000 
     85 CA         -3.7316  -25.0453  -50.8371 C.3       15 UNK         0.1400 
     86 CB         -4.7818  -26.0797  -51.2928 C.3       15 UNK        -0.1800 
     87 C          -2.5886  -24.8447  -51.8510 C.2       15 UNK         0.5000 
     88 O          -2.6000  -25.4369  -52.9313 O.2       15 UNK        -0.5000 
     89 N          -1.6072  -24.0095  -51.4808 N.am      16 UNK        -0.5000 
     90 CA         -0.4006  -23.7299  -52.2670 C.3       16 UNK         0.1400 
     91 CB          0.5578  -22.8716  -51.4321 C.3       16 UNK        -0.1800 
     92 C          -0.6637  -23.0711  -53.6367 C.2       16 UNK         0.5000 
     93 O           0.1599  -23.2185  -54.5399 O.2       16 UNK        -0.5000 
     94 N          -1.8133  -22.3965  -53.7865 N.am      17 UNK        -0.5000 
     95 CA         -2.2946  -21.8390  -55.0554 C.3       17 UNK         0.1400 
     96 CB         -3.1156  -20.5703  -54.7743 C.3       17 UNK        -0.1800 
     97 C          -3.0828  -22.8627  -55.9065 C.2       17 UNK         0.5000 
     98 O          -3.7810  -22.4621  -56.8394 O.2       17 UNK        -0.5000 
     99 N          -2.9729  -24.1586  -55.5765 N.am      18 UNK        -0.5000 
    100 CA        -3.5738  -25.3093  -56.2525 C.3       18 UNK         0.1400 
    101 CB        -2.9725  -25.4900  -57.6653 C.3       18 UNK        -0.1800 
    102 C         -5.1111  -25.2382  -56.2133 C.2       18 UNK         0.5000 
    103 O         -5.6753  -25.1891  -55.1199 O.2       18 UNK        -0.5000 
    104 N         -5.7613  -25.2133  -57.3846 N.am      19 UNK        -0.5000 
    105 CA        -7.2166  -25.1565  -57.5452 C.3       19 UNK         0.1400 
    106 CB        -7.5603  -25.3025  -59.0354 C.3       19 UNK        -0.1800 
    107 C         -7.8672  -23.8855  -56.9637 C.2       19 UNK         0.5000 
    108 O         -9.0312  -23.9364  -56.5641 O.2       19 UNK        -0.5000 
    109 N         -7.1124  -22.7781  -56.9103 N.am      20 UNK        -0.5000 
    110 CA        -7.5444  -21.5285  -56.2822 C.3       20 UNK         0.1400 
    111 CB        -6.7009  -20.3678  -56.8306 C.3       20 UNK        -0.1800 
    112 C         -7.4518  -21.5788  -54.7453 C.2       20 UNK         0.5000 
    113 O         -8.2074  -20.8736  -54.0757 O.2       20 UNK        -0.5000 
    114 N         -6.5243  -22.3978  -54.2241 N.am      21 UNK        -0.5000 
    115 CA        -6.1630  -22.6551  -52.8225 C.3       21 UNK         0.1400 
    116 CB        -7.3177  -23.3357  -52.0673 C.3       21 UNK        -0.1800 
    117 C         -5.6292  -21.4384  -52.0380 C.2       21 UNK         0.5000 
    118 O         -4.5941  -21.5536  -51.3829 O.2       21 UNK        -0.5000 
    119 N         -6.3210  -20.3003  -52.1480 N.am      22 UNK        -0.5000 
    120 CA        -6.0727  -19.0203  -51.4662 C.3       22 UNK         0.1400 
    121 C         -6.5236  -18.9799  -49.9743 C.2       22 UNK         0.5000 
    122 N         -7.2540  -19.9711  -49.4770 N.am      22 UNK        -0.7600 
    123 O         -6.2443  -18.0205  -49.2618 O.2       22 UNK        -0.5000 
    124 C124       -4.6334  -18.4719  -51.6912 C.3       23 UNK        -0.0398 
    125 S125       -4.6128  -16.6923  -52.0949 S.3       23 UNK        -0.2404 
    126 C126       -2.9156  -16.4922  -52.7221 C.3       23 UNK        -0.0205 
    127 H127        5.6311  -14.9019  -46.8071 H         1 UNK         0.0600 
    128 H128        4.5630  -15.4854  -45.5254 H         1 UNK         0.0600 
    129 H129        5.7873  -14.2636  -45.1680 H         1 UNK         0.0600 
    130 H130        2.5199  -14.7288  -45.9630 H         1 UNK         0.3000 
    131 H131        0.7679  -13.4425  -46.3478 H         1 UNK         0.0600 
    132 H132        0.7690  -11.7315  -48.1530 H         1 UNK         0.0800 
    133 H133        2.5114  -11.8180  -48.2578 H         1 UNK         0.0800 
    134 H134       -0.5671  -14.3085  -48.0448 H         1 UNK         0.0800 
    135 H135       -0.8433  -13.3143  -49.4553 H         1 UNK         0.0800 
    136 H136       -2.0006  -14.4429  -51.1837 H         1 UNK         0.1150 
    137 H137       -1.5801  -18.6645  -51.7685 H         1 UNK         0.1150 
    138 H138        0.6508  -16.6845  -48.6819 H         1 UNK         0.1150 
    139 H139       -0.5369  -19.9698  -50.0236 H         1 UNK         0.0800 
    140 H140        1.0541  -19.3812  -50.4692 H         1 UNK         0.0800 
    141 H141        2.1381  -21.2038  -47.5208 H         1 UNK         0.0800 
    142 H142        1.3354  -21.4950  -49.0262 H         1 UNK         0.0800 
    143 H143        0.5390  -23.0585  -47.4158 H         1 UNK         0.0600 
    144 H144        0.5018  -20.9466  -45.4850 H         1 UNK         0.3000 
    145 H145       -1.0037  -23.0806  -42.9546 H         1 UNK         0.0600 
    146 H146        1.0390  -22.2978  -41.7992 H         1 UNK         0.0600 
    147 H147        1.7421  -21.7797  -43.3296 H         1 UNK         0.0600 
    148 H148        1.4480  -23.4858  -43.0271 H         1 UNK         0.0600 
    149 H149       -0.2807  -20.3597  -42.7707 H         1 UNK         0.3000 
    150 H150       -3.4632  -18.9749  -43.7036 H         1 UNK         0.0600 
    151 H151       -3.6049  -19.6862  -41.3119 H         1 UNK         0.0600 
    152 H152       -3.1629  -17.9907  -41.4504 H         1 UNK         0.0600 
    153 H153       -1.9362  -19.1909  -41.0536 H         1 UNK         0.0600 
    154 H154       -1.0727  -17.7041  -42.8686 H         1 UNK         0.3000 
    155 H155        0.4116  -17.2811  -46.1192 H         1 UNK         0.0600 
    156 H156       -0.9462  -15.3460  -45.8444 H         1 UNK         0.0600 
    157 H157        0.4591  -15.0120  -44.8314 H         1 UNK         0.0600 
    158 H158       -1.0522  -15.5173  -44.1038 H         1 UNK         0.0600 
    159 H159        1.4401  -16.6459  -43.5823 H         1 UNK         0.3000 
    160 H160        3.0150  -19.7399  -42.7660 H         1 UNK         0.0600 
    161 H161        4.1154  -17.0349  -43.6864 H         1 UNK         0.0600 
    162 H162        4.5977  -18.6113  -44.2903 H         1 UNK         0.0600 
    163 H163        4.9539  -18.1681  -42.6273 H         1 UNK         0.0600 
    164 H164        2.8121  -17.1340  -41.5335 H         1 UNK         0.3000 
    165 H165       -0.0435  -17.8894  -39.5253 H         1 UNK         0.0600 
    166 H166        1.5476  -17.2480  -37.7348 H         1 UNK         0.0600 
    167 H167        1.9049  -18.8700  -38.3056 H         1 UNK         0.0600 
    168 H168        2.9180  -17.5229  -38.8107 H         1 UNK         0.0600 
    169 H169        1.6593  -15.5929  -39.7312 H         1 UNK         0.3000 
    170 H170        0.0229  -13.9915  -42.4277 H         1 UNK         0.0600 
    171 H171       -0.2316  -13.3251  -39.4461 H         1 UNK         0.0600 
    172 H172       -0.4337  -12.1955  -40.7867 H         1 UNK         0.0600 
    173 H173       -1.5746  -13.5125  -40.5679 H         1 UNK         0.0600 
    174 H174        1.9588  -13.0394  -40.5858 H         1 UNK         0.3000 
    175 H175        4.1516  -13.3152  -40.7382 H         1 UNK         0.0600 
    176 H176        5.3047  -15.0860  -42.9620 H         1 UNK         0.0600 
    177 H177        6.1827  -14.4152  -41.5935 H         1 UNK         0.0600 
    178 H178        4.9545  -15.6392  -41.3296 H         1 UNK         0.0600 
    179 H179        3.8081  -12.4395  -43.4584 H         1 UNK         0.3000 
    180 H180        5.8228   -9.6079  -42.9871 H         1 UNK         0.0600 
    181 H181        6.9226  -10.1019  -45.1762 H         1 UNK         0.0600 
    182 H182        6.6114  -11.8225  -44.9488 H         1 UNK         0.0600 
    183 H183        7.6838  -10.9679  -43.8510 H         1 UNK         0.0600 
    184 H184        4.3484  -10.7941  -45.2228 H         1 UNK         0.3000 
    185 H185        1.2645   -9.3032  -44.3634 H         1 UNK         0.0600 
    186 H186        1.4725   -7.9545  -46.4385 H         1 UNK         0.0600 
    187 H187        2.4099   -7.2274  -45.1438 H         1 UNK         0.0600 
    188 H188        3.2274   -8.1352  -46.4100 H         1 UNK         0.0600 
    189 H189        2.3450  -10.3846  -46.8087 H         1 UNK         0.3000 
    190 H190       -1.9015  -20.6009  -46.6396 H         1 UNK         0.3000 
    191 H191       -3.6639  -21.1456  -48.8217 H         1 UNK         0.0600 
    192 H192       -3.9097  -19.1154  -47.4776 H         1 UNK         0.0600 
    193 H193       -4.1865  -20.0505  -46.0091 H         1 UNK         0.0600 
    194 H194       -5.3723  -20.0720  -47.3045 H         1 UNK         0.0600 
    195 H195       -3.4789  -22.5063  -45.4823 H         1 UNK         0.3000 
    196 H196       -5.6273  -24.3406  -45.7416 H         1 UNK         0.0600 
    197 H197       -4.7102  -23.6443  -43.5548 H         1 UNK         0.0600 
    198 H198       -3.1658  -24.4115  -43.9174 H         1 UNK         0.0600 
    199 H199       -4.6125  -25.3916  -43.7084 H         1 UNK         0.0600 
    200 H200       -2.1507  -24.6852  -46.4742 H         1 UNK         0.3000 
    201 H201       -2.2583  -27.4519  -47.2602 H         1 UNK         0.0600 
    202 H202       -0.1705  -26.2888  -46.5194 H         1 UNK         0.0600 
    203 H203       -0.2348  -25.2555  -47.9476 H         1 UNK         0.0600 
    204 H204        0.0239  -26.9857  -48.1199 H         1 UNK         0.0600 
    205 H205       -3.4418  -24.6551  -48.7962 H         1 UNK         0.3000 
    206 H206       -4.2374  -24.0846  -50.7492 H         1 UNK         0.0600 
    207 H207       -4.3490  -27.0724  -51.4183 H         1 UNK         0.0600 
    208 H208       -5.5956  -26.1561  -50.5717 H         1 UNK         0.0600 
    209 H209       -5.2218  -25.7954  -52.2494 H         1 UNK         0.0600 
    210 H210       -1.6565  -23.5754  -50.5607 H         1 UNK         0.3000 
    211 H211        0.0878  -24.6869  -52.4616 H         1 UNK         0.0600 
    212 H212        0.1083  -21.9126  -51.1780 H         1 UNK         0.0600 
    213 H213        1.4821  -22.6698  -51.9750 H         1 UNK         0.0600 
    214 H214        0.8288  -23.3773  -50.5053 H         1 UNK         0.0600 
    215 H215       -2.4322  -22.3240  -52.9909 H         1 UNK         0.3000 
    216 H216       -1.4341  -21.5364  -55.6554 H         1 UNK         0.0600 
    217 H217       -3.3472  -20.0426  -55.7000 H         1 UNK         0.0600 
    218 H218       -2.5644  -19.8764  -54.1398 H         1 UNK         0.0600 
    219 H219       -4.0608  -20.8007  -54.2880 H         1 UNK         0.0600 
    220 H220       -2.4685  -24.3925  -54.7291 H         1 UNK         0.3000 
    221 H221       -3.2987  -26.1861  -55.6646 H         1 UNK         0.0600 
    222 H222       -3.1980  -24.6513  -58.3248 H         1 UNK         0.0600 
    223 H223       -1.8875  -25.5821  -57.6137 H         1 UNK         0.0600 
    224 H224       -3.3456  -26.3987  -58.1393 H         1 UNK         0.0600 
    225 H225       -5.2159  -25.2336  -58.2340 H         1 UNK         0.3000 
    226 H226       -7.6402  -26.0100  -57.0119 H         1 UNK         0.0600 
    227 H227       -7.1849  -26.2438  -59.4374 H         1 UNK         0.0600 
    228 H228       -8.6400  -25.2927  -59.1907 H         1 UNK         0.0600 
    229 H229       -7.1362  -24.4903  -59.6272 H         1 UNK         0.0600 
    230 H230       -6.1610  -22.8152  -57.2535 H         1 UNK         0.3000 
    231 H231       -8.5874  -21.3411  -56.5466 H         1 UNK         0.0600 
    232 H232       -7.0206  -19.4165  -56.4030 H         1 UNK         0.0600 
    233 H233       -6.7985  -20.2864  -57.9132 H         1 UNK         0.0600 
    234 H234       -5.6434  -20.4917  -56.5980 H         1 UNK         0.0600 
    235 H235       -6.0160  -22.9696  -54.8858 H         1 UNK         0.3000 
    236 H236       -5.3416  -23.3705  -52.8730 H         1 UNK         0.0600 
    237 H237       -8.1977  -22.6954  -52.0029 H         1 UNK         0.0600 
    238 H238       -7.6130  -24.2622  -52.5602 H         1 UNK         0.0600 
    239 H239       -7.0209  -23.5905  -51.0488 H         1 UNK         0.0600 
    240 H240       -7.1463  -20.3273  -52.7444 H         1 UNK         0.3000 
    241 H241       -6.7673  -18.3435  -51.9647 H         1 UNK         0.0600 
    242 H242       -7.5653  -19.9244  -48.5203 H         1 UNK         0.3800 
    243 H243       -7.5094  -20.7578  -50.0506 H         1 UNK         0.3800 
    244 H244       -3.9967  -18.6631  -50.8256 H         1 UNK         0.0800 
    245 H245       -4.1594  -18.9877  -52.5251 H         1 UNK         0.0800 
    246 H246       -2.8421  -15.5329  -53.2367 H         1 UNK         0.0800 
    247 H247       -2.7021  -17.2547  -53.4727 H         1 UNK         0.0800 
@<TRIPOS>BOND
     1    1    2 1    
     2    1  127 1    
     3    1  128 1    
     4    1  129 1    
     5    2    3 2    
     6    2    4 am   BACKBONE|DICT|INTERRES
     7    4    5 1    
     8    4  130 1    
     9    5    6 1    
    10    5   65 1    
    11    5  131 1    
    12    6    7 1    
    13    6  132 1    
    14    6  133 1    
    15    7    8 1    
    16    8    9 1    
    17    8  134 1    
    18    8  135 1    
    19    9   10 ar   
    20    9   14 ar   
    21   10   11 ar   
    22   10  136 1    
    23   11   12 ar   
    24   11  126 1    
    25   12   13 ar   
    26   12  137 1    
    27   13   14 ar   
    28   13   15 1    
    29   14  138 1    
    30   15   16 1    
    31   15  139 1    
    32   15  140 1    
    33   16   17 1    
    34   17   18 1    
    35   17  141 1    
    36   17  142 1    
    37   18   19 1    
    38   18   67 1    
    39   18  143 1    
    40   19   20 am   BACKBONE|DICT|INTERRES
    41   19  144 1    
    42   20   21 2    
    43   20   22 1    
    44   22   23 1    
    45   22   24 1    
    46   22  145 1    
    47   23  146 1    
    48   23  147 1    
    49   23  148 1    
    50   24   25 am   BACKBONE|DICT|INTERRES
    51   24  149 1    
    52   25   26 2    
    53   25   27 1    
    54   27   28 1    
    55   27   29 1    
    56   27  150 1    
    57   28  151 1    
    58   28  152 1    
    59   28  153 1    
    60   29   30 am   BACKBONE|DICT|INTERRES
    61   29  154 1    
    62   30   31 2    
    63   30   32 1    
    64   32   33 1    
    65   32   34 1    
    66   32  155 1    
    67   33  156 1    
    68   33  157 1    
    69   33  158 1    
    70   34   35 am   BACKBONE|DICT|INTERRES
    71   34  159 1    
    72   35   36 2    
    73   35   37 1    
    74   37   38 1    
    75   37   39 1    
    76   37  160 1    
    77   38  161 1    
    78   38  162 1    
    79   38  163 1    
    80   39   40 am   BACKBONE|DICT|INTERRES
    81   39  164 1    
    82   40   41 2    
    83   40   42 1    
    84   42   43 1    
    85   42   44 1    
    86   42  165 1    
    87   43  166 1    
    88   43  167 1    
    89   43  168 1    
    90   44   45 am   BACKBONE|DICT|INTERRES
    91   44  169 1    
    92   45   46 2    
    93   45   47 1    
    94   47   48 1    
    95   47   49 1    
    96   47  170 1    
    97   48  171 1    
    98   48  172 1    
    99   48  173 1    
   100   49   50 am   BACKBONE|DICT|INTERRES
   101   49  174 1    
   102   50   51 2    
   103   50   52 1    
   104   52   53 1    
   105   52   54 1    
   106   52  175 1    
   107   53  176 1    
   108   53  177 1    
   109   53  178 1    
   110   54   55 am   BACKBONE|DICT|INTERRES
   111   54  179 1    
   112   55   56 2    
   113   55   57 1    
   114   57   58 1    
   115   57   59 1    
   116   57  180 1    
   117   58  181 1    
   118   58  182 1    
   119   58  183 1    
   120   59   60 am   BACKBONE|DICT|INTERRES
   121   59  184 1    
   122   60   61 2    
   123   60   62 1    
   124   62   63 1    
   125   62   64 1    
   126   62  185 1    
   127   63  186 1    
   128   63  187 1    
   129   63  188 1    
   130   64   65 am   BACKBONE|DICT|INTERRES
   131   64  189 1    
   132   65   66 2    
   133   67   68 2    
   134   67   69 am   BACKBONE|DICT|INTERRES
   135   69   70 1    
   136   69  190 1    
   137   70   71 1    
   138   70   72 1    
   139   70  191 1    
   140   71  192 1    
   141   71  193 1    
   142   71  194 1    
   143   72   73 2    
   144   72   74 am   BACKBONE|DICT|INTERRES
   145   74   75 1    
   146   74  195 1    
   147   75   76 1    
   148   75   77 1    
   149   75  196 1    
   150   76  197 1    
   151   76  198 1    
   152   76  199 1    
   153   77   78 2    
   154   77   79 am   BACKBONE|DICT|INTERRES
   155   79   80 1    
   156   79  200 1    
   157   80   81 1    
   158   80   82 1    
   159   80  201 1    
   160   81  202 1    
   161   81  203 1    
   162   81  204 1    
   163   82   83 2    
   164   82   84 am   BACKBONE|DICT|INTERRES
   165   84   85 1    
   166   84  205 1    
   167   85   86 1    
   168   85   87 1    
   169   85  206 1    
   170   86  207 1    
   171   86  208 1    
   172   86  209 1    
   173   87   88 2    
   174   87   89 am   BACKBONE|DICT|INTERRES
   175   89   90 1    
   176   89  210 1    
   177   90   91 1    
   178   90   92 1    
   179   90  211 1    
   180   91  212 1    
   181   91  213 1    
   182   91  214 1    
   183   92   93 2    
   184   92   94 am   BACKBONE|DICT|INTERRES
   185   94   95 1    
   186   94  215 1    
   187   95   96 1    
   188   95   97 1    
   189   95  216 1    
   190   96  217 1    
   191   96  218 1    
   192   96  219 1    
   193   97   98 2    
   194   97   99 am   BACKBONE|DICT|INTERRES
   195   99  100 1    
   196   99  220 1    
   197  100  101 1    
   198  100  102 1    
   199  100  221 1    
   200  101  222 1    
   201  101  223 1    
   202  101  224 1    
   203  102  103 2    
   204  102  104 am   BACKBONE|DICT|INTERRES
   205  104  105 1    
   206  104  225 1    
   207  105  106 1    
   208  105  107 1    
   209  105  226 1    
   210  106  227 1    
   211  106  228 1    
   212  106  229 1    
   213  107  108 2    
   214  107  109 am   BACKBONE|DICT|INTERRES
   215  109  110 1    
   216  109  230 1    
   217  110  111 1    
   218  110  112 1    
   219  110  231 1    
   220  111  232 1    
   221  111  233 1    
   222  111  234 1    
   223  112  113 2    
   224  112  114 am   BACKBONE|DICT|INTERRES
   225  114  115 1    
   226  114  235 1    
   227  115  116 1    
   228  115  117 1    
   229  115  236 1    
   230  116  237 1    
   231  116  238 1    
   232  116  239 1    
   233  117  118 2    
   234  117  119 am   BACKBONE|DICT|INTERRES
   235  119  120 1    
   236  119  240 1    
   237  120  121 1    
   238  120  124 1    
   239  120  241 1    
   240  121  122 am   BACKBONE|DICT|INTERRES
   241  121  123 2    
   242  122  242 1    
   243  122  243 1    
   244  124  125 1    
   245  124  244 1    
   246  124  245 1    
   247  125  126 1    
   248  126  246 1    
   249  126  247 1    
@<TRIPOS>SUBSTRUCTURE
     1 UNK         1 GROUP             0       ****    0 ROOT    
