@<TRIPOS>MOLECULE
3R540
247   249    1
SMALL
USER_CHARGES


@<TRIPOS>ATOM
      1 CA          2.2037  -16.2117  -47.1409 C.3       0 UNK        -0.1800 
      2 C           1.0081  -15.4196  -46.6328 C.2       0 UNK         0.5000 
      3 O           1.1184  -14.7144  -45.6290 O.2       0 UNK        -0.5000 
      4 N          -0.1364  -15.5239  -47.3215 N.am      1 UNK        -0.5000 
      5 CA         -1.3586  -14.7719  -47.0197 C.3       1 UNK         0.1400 
      6 C6         -2.5680  -15.2167  -47.8764 C.3       23 UNK        -0.0398 
      7 S7         -3.2350  -16.8255  -47.3229 S.3       23 UNK        -0.2404 
      8 C8         -3.8172  -17.5590  -48.8900 C.3       23 UNK        -0.0205 
      9 C9         -2.8677  -18.6146  -49.4439 C.ar      23 UNK        -0.0193 
     10 C10        -3.3646  -19.8575  -49.8519 C.ar      23 UNK        -0.1150 
     11 C11        -2.5064  -20.8279  -50.3770 C.ar      23 UNK        -0.0193 
     12 C12        -1.1437  -20.5502  -50.4899 C.ar      23 UNK        -0.1150 
     13 C13        -0.6300  -19.3242  -50.0673 C.ar      23 UNK        -0.0193 
     14 C14        -1.4990  -18.3545  -49.5638 C.ar      23 UNK        -0.1150 
     15 C15         0.8617  -19.0479  -50.1532 C.3       23 UNK        -0.0205 
     16 S16         1.8494  -20.1759  -49.1154 S.3       23 UNK        -0.2404 
     17 C17         1.1287  -19.9776  -47.4474 C.3       23 UNK        -0.0398 
     18 CA          0.8096  -21.3458  -46.7891 C.3       11 UNK         0.1400 
     19 N           0.9918  -21.3213  -45.3356 N.am      11 UNK        -0.5000 
     20 C           1.1565  -22.4195  -44.5853 C.2       10 UNK         0.5000 
     21 O           1.1392  -23.5632  -45.0402 O.2       10 UNK        -0.5000 
     22 CA          1.3718  -22.2133  -43.0755 C.3       10 UNK         0.1400 
     23 CB          2.8114  -21.7615  -42.7862 C.3       10 UNK        -0.1800 
     24 N           0.4295  -21.2610  -42.4912 N.am      10 UNK        -0.5000 
     25 C          -0.8904  -21.4714  -42.3883 C.2       9 UNK         0.5000 
     26 O          -1.4500  -22.5055  -42.7529 O.2       9 UNK        -0.5000 
     27 CA         -1.7337  -20.3221  -41.8057 C.3       9 UNK         0.1400 
     28 CB         -1.6575  -20.3120  -40.2715 C.3       9 UNK        -0.1800 
     29 N          -1.3495  -19.0076  -42.3199 N.am      9 UNK        -0.5000 
     30 C          -1.3869  -18.6556  -43.6132 C.2       8 UNK         0.5000 
     31 O          -1.7463  -19.4002  -44.5224 O.2       8 UNK        -0.5000 
     32 CA         -0.8679  -17.2538  -43.9564 C.3       8 UNK         0.1400 
     33 CB         -1.8551  -16.1726  -43.4877 C.3       8 UNK        -0.1800 
     34 N           0.4506  -17.0053  -43.3793 N.am      8 UNK        -0.5000 
     35 C           1.5514  -17.7298  -43.6245 C.2       7 UNK         0.5000 
     36 O           1.5910  -18.6810  -44.4039 O.2       7 UNK        -0.5000 
     37 CA          2.8082  -17.3652  -42.8191 C.3       7 UNK         0.1400 
     38 CB          3.5195  -16.1448  -43.4233 C.3       7 UNK        -0.1800 
     39 N           2.4970  -17.1164  -41.4116 N.am      7 UNK        -0.5000 
     40 C           2.0545  -18.0505  -40.5568 C.2       6 UNK         0.5000 
     41 O           1.8966  -19.2344  -40.8541 O.2       6 UNK        -0.5000 
     42 CA          1.6888  -17.5676  -39.1424 C.3       6 UNK         0.1400 
     43 CB          2.9418  -17.4715  -38.2592 C.3       6 UNK        -0.1800 
     44 N           1.0043  -16.2744  -39.1587 N.am      6 UNK        -0.5000 
     45 C          -0.2273  -16.0795  -39.6506 C.2       5 UNK         0.5000 
     46 O          -0.9321  -16.9790  -40.1101 O.2       5 UNK        -0.5000 
     47 CA         -0.7304  -14.6231  -39.6743 C.3       5 UNK         0.1400 
     48 CB         -1.3097  -14.2265  -38.3081 C.3       5 UNK        -0.1800 
     49 N           0.3085  -13.6618  -40.0650 N.am      5 UNK        -0.5000 
     50 C           0.8974  -13.6493  -41.2673 C.2       4 UNK         0.5000 
     51 O           0.6342  -14.4589  -42.1583 O.2       4 UNK        -0.5000 
     52 CA          1.9810  -12.5921  -41.5133 C.3       4 UNK         0.1400 
     53 CB          3.3220  -13.0418  -40.9017 C.3       4 UNK        -0.1800 
     54 N           2.1013  -12.4188  -42.9574 N.am      4 UNK        -0.5000 
     55 C           2.7657  -11.4549  -43.6044 C.2       3 UNK         0.5000 
     56 O           3.4239  -10.5757  -43.0473 O.2       3 UNK        -0.5000 
     57 CA          2.6321  -11.4559  -45.1377 C.3       3 UNK         0.1400 
     58 CB          3.5520  -12.5133  -45.7698 C.3       3 UNK        -0.1800 
     59 N           1.2399  -11.6886  -45.5365 N.am      3 UNK        -0.5000 
     60 C           0.3098  -10.7201  -45.5641 C.2       2 UNK         0.5000 
     61 O           0.5752   -9.5342  -45.3608 O.2       2 UNK        -0.5000 
     62 CA         -1.1658  -11.1094  -45.8067 C.3       2 UNK         0.1400 
     63 CB         -1.8345  -10.2324  -46.8864 C.3       2 UNK        -0.1800 
     64 N          -1.3958  -12.5382  -46.0449 N.am      2 UNK        -0.5000 
     65 C          -1.1025  -13.2560  -47.1375 C.2       1 UNK         0.5000 
     66 O          -0.6237  -12.7953  -48.1752 O.2       1 UNK        -0.5000 
     67 C          -0.5739  -21.9042  -47.1853 C.2       11 UNK         0.5000 
     68 O          -0.6491  -22.7512  -48.0756 O.2       11 UNK        -0.5000 
     69 N          -1.6347  -21.4894  -46.4748 N.am      12 UNK        -0.5000 
     70 CA         -3.0133  -21.9333  -46.7081 C.3       12 UNK         0.1400 
     71 CB         -3.9869  -21.0185  -45.9503 C.3       12 UNK        -0.1800 
     72 C          -3.2751  -23.4128  -46.3625 C.2       12 UNK         0.5000 
     73 O          -4.2847  -23.9601  -46.8066 O.2       12 UNK        -0.5000 
     74 N          -2.3749  -24.0414  -45.5931 N.am      13 UNK        -0.5000 
     75 CA         -2.3829  -25.4812  -45.3257 C.3       13 UNK         0.1400 
     76 CB         -1.5216  -25.7715  -44.0873 C.3       13 UNK        -0.1800 
     77 C          -1.9047  -26.3177  -46.5322 C.2       13 UNK         0.5000 
     78 O          -2.1935  -27.5146  -46.5840 O.2       13 UNK        -0.5000 
     79 N          -1.1918  -25.6852  -47.4732 N.am      14 UNK        -0.5000 
     80 CA         -0.7650  -26.2591  -48.7463 C.3       14 UNK         0.1400 
     81 CB          0.6945  -25.8314  -49.0006 C.3       14 UNK        -0.1800 
     82 C          -1.7072  -25.7940  -49.8761 C.2       14 UNK         0.5000 
     83 O          -2.7636  -25.2178  -49.6095 O.2       14 UNK        -0.5000 
     84 N          -1.3011  -26.0473  -51.1256 N.am      15 UNK        -0.5000 
     85 CA         -1.9587  -25.5696  -52.3469 C.3       15 UNK         0.1400 
     86 CB         -2.4771  -26.7812  -53.1417 C.3       15 UNK        -0.1800 
     87 C          -0.9922  -24.6990  -53.1799 C.2       15 UNK         0.5000 
     88 O          -1.1624  -24.5856  -54.3949 O.2       15 UNK        -0.5000 
     89 N           0.0328  -24.1391  -52.5169 N.am      16 UNK        -0.5000 
     90 CA          1.1675  -23.4197  -53.0977 C.3       16 UNK         0.1400 
     91 CB          2.0771  -22.9144  -51.9672 C.3       16 UNK        -0.1800 
     92 C           0.7542  -22.2732  -54.0396 C.2       16 UNK         0.5000 
     93 O           0.1389  -21.3015  -53.5972 O.2       16 UNK        -0.5000 
     94 N           1.0788  -22.4447  -55.3298 N.am      17 UNK        -0.5000 
     95 CA          0.8213  -21.5409  -56.4590 C.3       17 UNK         0.1400 
     96 CB          1.5922  -20.2170  -56.2707 C.3       17 UNK        -0.1800 
     97 C          -0.6710  -21.2908  -56.7758 C.2       17 UNK         0.5000 
     98 O          -0.9622  -20.4449  -57.6230 O.2       17 UNK        -0.5000 
     99 N          -1.5848  -22.0116  -56.1043 N.am      18 UNK        -0.5000 
    100 CA        -3.0422  -21.8362  -56.1262 C.3       18 UNK         0.1400 
    101 CB        -3.6275  -22.3202  -57.4683 C.3       18 UNK        -0.1800 
    102 C         -3.4803  -20.3982  -55.7619 C.2       18 UNK         0.5000 
    103 O         -4.4275  -19.8715  -56.3506 O.2       18 UNK        -0.5000 
    104 N         -2.7611  -19.7733  -54.8168 N.am      19 UNK        -0.5000 
    105 CA        -2.9840  -18.4043  -54.3506 C.3       19 UNK         0.1400 
    106 CB        -1.9023  -18.0400  -53.3276 C.3       19 UNK        -0.1800 
    107 C         -4.3903  -18.2241  -53.7528 C.2       19 UNK         0.5000 
    108 O         -4.8174  -19.0431  -52.9394 O.2       19 UNK        -0.5000 
    109 N         -5.1073  -17.1879  -54.2116 N.am      20 UNK        -0.5000 
    110 CA        -6.5165  -16.9055  -53.8997 C.3       20 UNK         0.1400 
    111 CB        -6.6733  -16.4871  -52.4224 C.3       20 UNK        -0.1800 
    112 C         -7.4785  -18.0515  -54.3045 C.2       20 UNK         0.5000 
    113 O         -8.5418  -18.2039  -53.7007 O.2       20 UNK        -0.5000 
    114 N         -7.0776  -18.8343  -55.3194 N.am      21 UNK        -0.5000 
    115 CA        -7.7372  -20.0303  -55.8502 C.3       21 UNK         0.1400 
    116 CB        -9.1117  -19.6841  -56.4618 C.3       21 UNK        -0.1800 
    117 C         -7.7928  -21.2017  -54.8450 C.2       21 UNK         0.5000 
    118 O         -8.7428  -21.9881  -54.8839 O.2       21 UNK        -0.5000 
    119 N         -6.7837  -21.3102  -53.9655 N.am      22 UNK        -0.5000 
    120 CA        -6.6316  -22.4282  -53.0202 C.3       22 UNK         0.1400 
    121 C         -6.3764  -23.8091  -53.7018 C.2       22 UNK         0.5000 
    122 N         -6.6522  -24.9072  -53.0093 N.am      22 UNK        -0.7600 
    123 O         -5.9111  -23.8991  -54.8360 O.2       22 UNK        -0.5000 
    124 C124       -5.6021  -22.1075  -51.9015 C.3       23 UNK        -0.0398 
    125 S125       -3.8441  -22.1715  -52.4050 S.3       23 UNK        -0.2404 
    126 C126       -3.0250  -22.1961  -50.7828 C.3       23 UNK        -0.0205 
    127 H127        2.0134  -16.6500  -48.1201 H         1 UNK         0.0600 
    128 H128        2.4444  -17.0171  -46.4489 H         1 UNK         0.0600 
    129 H129        3.0746  -15.5615  -47.2241 H         1 UNK         0.0600 
    130 H130       -0.1638  -16.0918  -48.1529 H         1 UNK         0.3000 
    131 H131       -1.6054  -14.9780  -45.9793 H         1 UNK         0.0600 
    132 H132       -2.2957  -15.2549  -48.9322 H         1 UNK         0.0800 
    133 H133       -3.3846  -14.4962  -47.7998 H         1 UNK         0.0800 
    134 H134       -3.9759  -16.7861  -49.6423 H         1 UNK         0.0800 
    135 H135       -4.7961  -18.0017  -48.7031 H         1 UNK         0.0800 
    136 H136       -4.4197  -20.0722  -49.7648 H         1 UNK         0.1150 
    137 H137       -0.4762  -21.3001  -50.8861 H         1 UNK         0.1150 
    138 H138       -1.1086  -17.3981  -49.2562 H         1 UNK         0.1150 
    139 H139        1.1786  -19.1591  -51.1914 H         1 UNK         0.0800 
    140 H140        1.0852  -18.0182  -49.8734 H         1 UNK         0.0800 
    141 H141        0.2583  -19.3202  -47.4553 H         1 UNK         0.0800 
    142 H142        1.8858  -19.4529  -46.8651 H         1 UNK         0.0800 
    143 H143        1.5453  -22.0621  -47.1629 H         1 UNK         0.0600 
    144 H144        1.0458  -20.4048  -44.8962 H         1 UNK         0.3000 
    145 H145        1.2183  -23.1773  -42.5858 H         1 UNK         0.0600 
    146 H146        2.9985  -21.7074  -41.7136 H         1 UNK         0.0600 
    147 H147        3.0193  -20.7791  -43.2111 H         1 UNK         0.0600 
    148 H148        3.5334  -22.4622  -43.2074 H         1 UNK         0.0600 
    149 H149        0.8205  -20.3971  -42.1294 H         1 UNK         0.3000 
    150 H150       -2.7721  -20.4966  -42.0945 H         1 UNK         0.0600 
    151 H151       -1.9547  -21.2768  -39.8586 H         1 UNK         0.0600 
    152 H152       -2.3220  -19.5580  -39.8492 H         1 UNK         0.0600 
    153 H153       -0.6471  -20.1000  -39.9203 H         1 UNK         0.0600 
    154 H154       -1.0437  -18.3227  -41.6355 H         1 UNK         0.3000 
    155 H155       -0.7735  -17.1909  -45.0413 H         1 UNK         0.0600 
    156 H156       -2.8134  -16.2761  -43.9979 H         1 UNK         0.0600 
    157 H157       -1.4770  -15.1725  -43.6957 H         1 UNK         0.0600 
    158 H158       -2.0465  -16.2315  -42.4167 H         1 UNK         0.0600 
    159 H159        0.5295  -16.1889  -42.7778 H         1 UNK         0.3000 
    160 H160        3.4933  -18.2142  -42.8669 H         1 UNK         0.0600 
    161 H161        2.8807  -15.2619  -43.4253 H         1 UNK         0.0600 
    162 H162        3.8090  -16.3364  -44.4569 H         1 UNK         0.0600 
    163 H163        4.4284  -15.9030  -42.8726 H         1 UNK         0.0600 
    164 H164        2.5540  -16.1614  -41.0949 H         1 UNK         0.3000 
    165 H165        1.0156  -18.3060  -38.7015 H         1 UNK         0.0600 
    166 H166        2.6822  -17.2021  -37.2352 H         1 UNK         0.0600 
    167 H167        3.4648  -18.4280  -38.2197 H         1 UNK         0.0600 
    168 H168        3.6458  -16.7275  -38.6342 H         1 UNK         0.0600 
    169 H169        1.5124  -15.4808  -38.7979 H         1 UNK         0.3000 
    170 H170       -1.5335  -14.5663  -40.4122 H         1 UNK         0.0600 
    171 H171       -0.5465  -14.2286  -37.5289 H         1 UNK         0.0600 
    172 H172       -1.7529  -13.2311  -38.3418 H         1 UNK         0.0600 
    173 H173       -2.0941  -14.9197  -38.0012 H         1 UNK         0.0600 
    174 H174        0.5727  -12.9724  -39.3757 H         1 UNK         0.3000 
    175 H175        1.6623  -11.6484  -41.0666 H         1 UNK         0.0600 
    176 H176        3.6848  -13.9626  -41.3583 H         1 UNK         0.0600 
    177 H177        4.0934  -12.2827  -41.0288 H         1 UNK         0.0600 
    178 H178        3.2260  -13.2212  -39.8302 H         1 UNK         0.0600 
    179 H179        1.5780  -13.1060  -43.4890 H         1 UNK         0.3000 
    180 H180        2.9526  -10.4800  -45.5089 H         1 UNK         0.0600 
    181 H181        3.4042  -12.5746  -46.8481 H         1 UNK         0.0600 
    182 H182        3.3868  -13.5054  -45.3502 H         1 UNK         0.0600 
    183 H183        4.5993  -12.2632  -45.5977 H         1 UNK         0.0600 
    184 H184        0.9672  -12.6535  -45.6902 H         1 UNK         0.3000 
    185 H185       -1.6752  -10.8947  -44.8663 H         1 UNK         0.0600 
    186 H186       -1.3180  -10.2975  -47.8440 H         1 UNK         0.0600 
    187 H187       -2.8741  -10.5200  -47.0429 H         1 UNK         0.0600 
    188 H188       -1.8316   -9.1825  -46.5914 H         1 UNK         0.0600 
    189 H189       -1.7619  -13.0355  -45.2450 H         1 UNK         0.3000 
    190 H190       -1.5109  -20.7921  -45.7431 H         1 UNK         0.3000 
    191 H191       -3.2165  -21.8215  -47.7728 H         1 UNK         0.0600 
    192 H192       -3.8603  -19.9770  -46.2481 H         1 UNK         0.0600 
    193 H193       -3.8392  -21.0835  -44.8717 H         1 UNK         0.0600 
    194 H194       -5.0228  -21.2900  -46.1575 H         1 UNK         0.0600 
    195 H195       -1.5897  -23.5149  -45.2348 H         1 UNK         0.3000 
    196 H196       -3.4072  -25.7860  -45.1010 H         1 UNK         0.0600 
    197 H197       -1.8796  -25.2194  -43.2185 H         1 UNK         0.0600 
    198 H198       -0.4782  -25.5032  -44.2495 H         1 UNK         0.0600 
    199 H199       -1.5503  -26.8315  -43.8320 H         1 UNK         0.0600 
    200 H200       -1.0690  -24.6812  -47.3948 H         1 UNK         0.3000 
    201 H201       -0.8049  -27.3493  -48.7052 H         1 UNK         0.0600 
    202 H202        1.3289  -26.0814  -48.1501 H         1 UNK         0.0600 
    203 H203        0.7793  -24.7575  -49.1697 H         1 UNK         0.0600 
    204 H204        1.1169  -26.3374  -49.8687 H         1 UNK         0.0600 
    205 H205       -0.4322  -26.5451  -51.2641 H         1 UNK         0.3000 
    206 H206       -2.8168  -24.9416  -52.1034 H         1 UNK         0.0600 
    207 H207       -3.0304  -26.4630  -54.0262 H         1 UNK         0.0600 
    208 H208       -1.6607  -27.4235  -53.4742 H         1 UNK         0.0600 
    209 H209       -3.1558  -27.3847  -52.5387 H         1 UNK         0.0600 
    210 H210        0.0560  -24.2562  -51.5161 H         1 UNK         0.3000 
    211 H211        1.7398  -24.1497  -53.6736 H         1 UNK         0.0600 
    212 H212        1.5504  -22.2349  -51.2993 H         1 UNK         0.0600 
    213 H213        2.9373  -22.3766  -52.3671 H         1 UNK         0.0600 
    214 H214        2.4611  -23.7400  -51.3679 H         1 UNK         0.0600 
    215 H215        1.5398  -23.3079  -55.5826 H         1 UNK         0.3000 
    216 H216        1.2320  -22.0379  -57.3392 H         1 UNK         0.0600 
    217 H217        1.5412  -19.6005  -57.1690 H         1 UNK         0.0600 
    218 H218        2.6472  -20.3993  -56.0656 H         1 UNK         0.0600 
    219 H219        1.1871  -19.6263  -55.4481 H         1 UNK         0.0600 
    220 H220       -1.2465  -22.7063  -55.4474 H         1 UNK         0.3000 
    221 H221       -3.4391  -22.4851  -55.3450 H         1 UNK         0.0600 
    222 H222       -4.7179  -22.3182  -57.4394 H         1 UNK         0.0600 
    223 H223       -3.3190  -21.6843  -58.2986 H         1 UNK         0.0600 
    224 H224       -3.3129  -23.3401  -57.6894 H         1 UNK         0.0600 
    225 H225       -2.0160  -20.2855  -54.3622 H         1 UNK         0.3000 
    226 H226       -2.8763  -17.7441  -55.2127 H         1 UNK         0.0600 
    227 H227       -0.9033  -18.1307  -53.7536 H         1 UNK         0.0600 
    228 H228       -2.0206  -17.0148  -52.9748 H         1 UNK         0.0600 
    229 H229       -1.9560  -18.6944  -52.4601 H         1 UNK         0.0600 
    230 H230       -4.6835  -16.5713  -54.8915 H         1 UNK         0.3000 
    231 H231       -6.7980  -16.0491  -54.5139 H         1 UNK         0.0600 
    232 H232       -5.9870  -15.6795  -52.1654 H         1 UNK         0.0600 
    233 H233       -6.4820  -17.3181  -51.7427 H         1 UNK         0.0600 
    234 H234       -7.6833  -16.1285  -52.2226 H         1 UNK         0.0600 
    235 H235       -6.1603  -18.6589  -55.7125 H         1 UNK         0.3000 
    236 H236       -7.1043  -20.3788  -56.6667 H         1 UNK         0.0600 
    237 H237       -9.8378  -19.4030  -55.6994 H         1 UNK         0.0600 
    238 H238       -9.0315  -18.8597  -57.1700 H         1 UNK         0.0600 
    239 H239       -9.5240  -20.5363  -57.0039 H         1 UNK         0.0600 
    240 H240       -6.0474  -20.6141  -53.9554 H         1 UNK         0.3000 
    241 H241       -7.6007  -22.5180  -52.5247 H         1 UNK         0.0600 
    242 H242       -6.4858  -25.8052  -53.4367 H         1 UNK         0.3800 
    243 H243       -7.0334  -24.8676  -52.0776 H         1 UNK         0.3800 
    244 H244       -5.7447  -22.8115  -51.0803 H         1 UNK         0.0800 
    245 H245       -5.8060  -21.1213  -51.4808 H         1 UNK         0.0800 
    246 H246       -3.6929  -22.5872  -50.0150 H         1 UNK         0.0800 
    247 H247       -2.1911  -22.8956  -50.8312 H         1 UNK         0.0800 
@<TRIPOS>BOND
     1    1    2 1    
     2    1  127 1    
     3    1  128 1    
     4    1  129 1    
     5    2    3 2    
     6    2    4 am   BACKBONE|DICT|INTERRES
     7    4    5 1    
     8    4  130 1    
     9    5    6 1    
    10    5   65 1    
    11    5  131 1    
    12    6    7 1    
    13    6  132 1    
    14    6  133 1    
    15    7    8 1    
    16    8    9 1    
    17    8  134 1    
    18    8  135 1    
    19    9   10 ar   
    20    9   14 ar   
    21   10   11 ar   
    22   10  136 1    
    23   11   12 ar   
    24   11  126 1    
    25   12   13 ar   
    26   12  137 1    
    27   13   14 ar   
    28   13   15 1    
    29   14  138 1    
    30   15   16 1    
    31   15  139 1    
    32   15  140 1    
    33   16   17 1    
    34   17   18 1    
    35   17  141 1    
    36   17  142 1    
    37   18   19 1    
    38   18   67 1    
    39   18  143 1    
    40   19   20 am   BACKBONE|DICT|INTERRES
    41   19  144 1    
    42   20   21 2    
    43   20   22 1    
    44   22   23 1    
    45   22   24 1    
    46   22  145 1    
    47   23  146 1    
    48   23  147 1    
    49   23  148 1    
    50   24   25 am   BACKBONE|DICT|INTERRES
    51   24  149 1    
    52   25   26 2    
    53   25   27 1    
    54   27   28 1    
    55   27   29 1    
    56   27  150 1    
    57   28  151 1    
    58   28  152 1    
    59   28  153 1    
    60   29   30 am   BACKBONE|DICT|INTERRES
    61   29  154 1    
    62   30   31 2    
    63   30   32 1    
    64   32   33 1    
    65   32   34 1    
    66   32  155 1    
    67   33  156 1    
    68   33  157 1    
    69   33  158 1    
    70   34   35 am   BACKBONE|DICT|INTERRES
    71   34  159 1    
    72   35   36 2    
    73   35   37 1    
    74   37   38 1    
    75   37   39 1    
    76   37  160 1    
    77   38  161 1    
    78   38  162 1    
    79   38  163 1    
    80   39   40 am   BACKBONE|DICT|INTERRES
    81   39  164 1    
    82   40   41 2    
    83   40   42 1    
    84   42   43 1    
    85   42   44 1    
    86   42  165 1    
    87   43  166 1    
    88   43  167 1    
    89   43  168 1    
    90   44   45 am   BACKBONE|DICT|INTERRES
    91   44  169 1    
    92   45   46 2    
    93   45   47 1    
    94   47   48 1    
    95   47   49 1    
    96   47  170 1    
    97   48  171 1    
    98   48  172 1    
    99   48  173 1    
   100   49   50 am   BACKBONE|DICT|INTERRES
   101   49  174 1    
   102   50   51 2    
   103   50   52 1    
   104   52   53 1    
   105   52   54 1    
   106   52  175 1    
   107   53  176 1    
   108   53  177 1    
   109   53  178 1    
   110   54   55 am   BACKBONE|DICT|INTERRES
   111   54  179 1    
   112   55   56 2    
   113   55   57 1    
   114   57   58 1    
   115   57   59 1    
   116   57  180 1    
   117   58  181 1    
   118   58  182 1    
   119   58  183 1    
   120   59   60 am   BACKBONE|DICT|INTERRES
   121   59  184 1    
   122   60   61 2    
   123   60   62 1    
   124   62   63 1    
   125   62   64 1    
   126   62  185 1    
   127   63  186 1    
   128   63  187 1    
   129   63  188 1    
   130   64   65 am   BACKBONE|DICT|INTERRES
   131   64  189 1    
   132   65   66 2    
   133   67   68 2    
   134   67   69 am   BACKBONE|DICT|INTERRES
   135   69   70 1    
   136   69  190 1    
   137   70   71 1    
   138   70   72 1    
   139   70  191 1    
   140   71  192 1    
   141   71  193 1    
   142   71  194 1    
   143   72   73 2    
   144   72   74 am   BACKBONE|DICT|INTERRES
   145   74   75 1    
   146   74  195 1    
   147   75   76 1    
   148   75   77 1    
   149   75  196 1    
   150   76  197 1    
   151   76  198 1    
   152   76  199 1    
   153   77   78 2    
   154   77   79 am   BACKBONE|DICT|INTERRES
   155   79   80 1    
   156   79  200 1    
   157   80   81 1    
   158   80   82 1    
   159   80  201 1    
   160   81  202 1    
   161   81  203 1    
   162   81  204 1    
   163   82   83 2    
   164   82   84 am   BACKBONE|DICT|INTERRES
   165   84   85 1    
   166   84  205 1    
   167   85   86 1    
   168   85   87 1    
   169   85  206 1    
   170   86  207 1    
   171   86  208 1    
   172   86  209 1    
   173   87   88 2    
   174   87   89 am   BACKBONE|DICT|INTERRES
   175   89   90 1    
   176   89  210 1    
   177   90   91 1    
   178   90   92 1    
   179   90  211 1    
   180   91  212 1    
   181   91  213 1    
   182   91  214 1    
   183   92   93 2    
   184   92   94 am   BACKBONE|DICT|INTERRES
   185   94   95 1    
   186   94  215 1    
   187   95   96 1    
   188   95   97 1    
   189   95  216 1    
   190   96  217 1    
   191   96  218 1    
   192   96  219 1    
   193   97   98 2    
   194   97   99 am   BACKBONE|DICT|INTERRES
   195   99  100 1    
   196   99  220 1    
   197  100  101 1    
   198  100  102 1    
   199  100  221 1    
   200  101  222 1    
   201  101  223 1    
   202  101  224 1    
   203  102  103 2    
   204  102  104 am   BACKBONE|DICT|INTERRES
   205  104  105 1    
   206  104  225 1    
   207  105  106 1    
   208  105  107 1    
   209  105  226 1    
   210  106  227 1    
   211  106  228 1    
   212  106  229 1    
   213  107  108 2    
   214  107  109 am   BACKBONE|DICT|INTERRES
   215  109  110 1    
   216  109  230 1    
   217  110  111 1    
   218  110  112 1    
   219  110  231 1    
   220  111  232 1    
   221  111  233 1    
   222  111  234 1    
   223  112  113 2    
   224  112  114 am   BACKBONE|DICT|INTERRES
   225  114  115 1    
   226  114  235 1    
   227  115  116 1    
   228  115  117 1    
   229  115  236 1    
   230  116  237 1    
   231  116  238 1    
   232  116  239 1    
   233  117  118 2    
   234  117  119 am   BACKBONE|DICT|INTERRES
   235  119  120 1    
   236  119  240 1    
   237  120  121 1    
   238  120  124 1    
   239  120  241 1    
   240  121  122 am   BACKBONE|DICT|INTERRES
   241  121  123 2    
   242  122  242 1    
   243  122  243 1    
   244  124  125 1    
   245  124  244 1    
   246  124  245 1    
   247  125  126 1    
   248  126  246 1    
   249  126  247 1    
@<TRIPOS>SUBSTRUCTURE
     1 UNK         1 GROUP             0       ****    0 ROOT    
