@<TRIPOS>MOLECULE
3R540
247   249    1
SMALL
USER_CHARGES


@<TRIPOS>ATOM
      1 CA          5.4578  -18.0670  -48.0782 C.3       0 UNK        -0.1800 
      2 C           4.5308  -17.2505  -48.9649 C.2       0 UNK         0.5000 
      3 O           3.9341  -16.2780  -48.4999 O.2       0 UNK        -0.5000 
      4 N           4.4199  -17.6234  -50.2473 N.am      1 UNK        -0.5000 
      5 CA          3.4751  -17.0553  -51.2243 C.3       1 UNK         0.1400 
      6 C6          3.0824  -18.0514  -52.3481 C.3       23 UNK        -0.0398 
      7 S7          2.5796  -19.6952  -51.7173 S.3       23 UNK        -0.2404 
      8 C8          0.7937  -19.4837  -51.3994 C.3       23 UNK        -0.0205 
      9 C9          0.5056  -18.3836  -50.3867 C.ar      23 UNK        -0.0193 
     10 C10        -0.2619  -17.2734  -50.7489 C.ar      23 UNK        -0.1150 
     11 C11        -0.5059  -16.2452  -49.8333 C.ar      23 UNK        -0.0193 
     12 C12         0.0387  -16.3245  -48.5493 C.ar      23 UNK        -0.1150 
     13 C13         0.7949  -17.4355  -48.1703 C.ar      23 UNK        -0.0193 
     14 C14         1.0243  -18.4614  -49.0917 C.ar      23 UNK        -0.1150 
     15 C15         1.3116  -17.5593  -46.7464 C.3       23 UNK        -0.0205 
     16 S16        -0.0319  -17.8567  -45.5475 S.3       23 UNK        -0.2404 
     17 C17        -1.0784  -19.0759  -46.4114 C.3       23 UNK        -0.0398 
     18 CA         -0.4459  -20.4812  -46.4936 C.3       11 UNK         0.1400 
     19 N          -0.1320  -21.0523  -45.1837 N.am      11 UNK        -0.5000 
     20 C           0.6494  -22.1234  -44.9908 C.2       10 UNK         0.5000 
     21 O           1.2230  -22.7208  -45.9006 O.2       10 UNK        -0.5000 
     22 CA          0.7776  -22.6372  -43.5443 C.3       10 UNK         0.1400 
     23 CB          1.9143  -21.9054  -42.8154 C.3       10 UNK        -0.1800 
     24 N          -0.4614  -22.4843  -42.7799 N.am      10 UNK        -0.5000 
     25 C          -1.6077  -23.1276  -43.0467 C.2       9 UNK         0.5000 
     26 O          -1.7217  -23.9831  -43.9245 O.2       9 UNK        -0.5000 
     27 CA         -2.8481  -22.6837  -42.2431 C.3       9 UNK         0.1400 
     28 CB         -2.9564  -23.4775  -40.9331 C.3       9 UNK        -0.1800 
     29 N          -2.8551  -21.2449  -41.9455 N.am      9 UNK        -0.5000 
     30 C          -2.8575  -20.2837  -42.8797 C.2       8 UNK         0.5000 
     31 O          -2.9071  -20.5297  -44.0868 O.2       8 UNK        -0.5000 
     32 CA         -2.6989  -18.8314  -42.3796 C.3       8 UNK         0.1400 
     33 CB         -1.3242  -18.6353  -41.7158 C.3       8 UNK        -0.1800 
     34 N          -2.8176  -17.8445  -43.4536 N.am      8 UNK        -0.5000 
     35 C          -3.9463  -17.5223  -44.0970 C.2       7 UNK         0.5000 
     36 O          -5.0534  -17.9807  -43.8073 O.2       7 UNK        -0.5000 
     37 CA         -3.7897  -16.4998  -45.2449 C.3       7 UNK         0.1400 
     38 CB         -5.1371  -16.0693  -45.8600 C.3       7 UNK        -0.1800 
     39 N          -2.9983  -15.3219  -44.8657 N.am      7 UNK        -0.5000 
     40 C          -3.2771  -14.4443  -43.8910 C.2       6 UNK         0.5000 
     41 O          -4.2240  -14.5574  -43.1102 O.2       6 UNK        -0.5000 
     42 CA         -2.3242  -13.2384  -43.7732 C.3       6 UNK         0.1400 
     43 CB         -2.8643  -12.1450  -42.8329 C.3       6 UNK        -0.1800 
     44 N          -0.9991  -13.6408  -43.3051 N.am      6 UNK        -0.5000 
     45 C          -0.0301  -14.1406  -44.0781 C.2       5 UNK         0.5000 
     46 O          -0.1642  -14.3681  -45.2846 O.2       5 UNK        -0.5000 
     47 CA          1.3109  -14.4199  -43.3850 C.3       5 UNK         0.1400 
     48 CB          1.2874  -15.7361  -42.5894 C.3       5 UNK        -0.1800 
     49 N           2.3481  -14.4695  -44.4054 N.am      5 UNK        -0.5000 
     50 C           3.6180  -14.0803  -44.2554 C.2       4 UNK         0.5000 
     51 O           4.1039  -13.7357  -43.1772 O.2       4 UNK        -0.5000 
     52 CA          4.4957  -14.0535  -45.5241 C.3       4 UNK         0.1400 
     53 CB          5.3941  -15.2979  -45.5803 C.3       4 UNK        -0.1800 
     54 N           3.7321  -13.9671  -46.7719 N.am      4 UNK        -0.5000 
     55 C           3.0022  -12.9121  -47.1631 C.2       3 UNK         0.5000 
     56 O           2.9123  -11.8632  -46.5226 O.2       3 UNK        -0.5000 
     57 CA          2.2648  -13.0828  -48.5020 C.3       3 UNK         0.1400 
     58 CB          1.4167  -11.8632  -48.9192 C.3       3 UNK        -0.1800 
     59 N           3.1888  -13.5086  -49.5547 N.am      3 UNK        -0.5000 
     60 C           4.1497  -12.8005  -50.1716 C.2       2 UNK         0.5000 
     61 O           4.3373  -11.5969  -49.9926 O.2       2 UNK        -0.5000 
     62 CA          5.0804  -13.5716  -51.1415 C.3       2 UNK         0.1400 
     63 CB          6.5601  -13.3236  -50.8026 C.3       2 UNK        -0.1800 
     64 N           4.8375  -15.0146  -51.1050 N.am      2 UNK        -0.5000 
     65 C           3.8659  -15.6597  -51.7618 C.2       1 UNK         0.5000 
     66 O           3.2344  -15.1607  -52.6934 O.2       1 UNK        -0.5000 
     67 C          -1.3580  -21.4155  -47.3017 C.2       11 UNK         0.5000 
     68 O          -1.1192  -21.6110  -48.4911 O.2       11 UNK        -0.5000 
     69 N          -2.3621  -22.0035  -46.6366 N.am      12 UNK        -0.5000 
     70 CA         -3.2527  -23.0025  -47.2251 C.3       12 UNK         0.1400 
     71 CB         -4.4081  -23.3038  -46.2607 C.3       12 UNK        -0.1800 
     72 C          -2.5077  -24.2880  -47.6301 C.2       12 UNK         0.5000 
     73 O          -2.7735  -24.8334  -48.7007 O.2       12 UNK        -0.5000 
     74 N          -1.5488  -24.7208  -46.7987 N.am      13 UNK        -0.5000 
     75 CA         -0.6392  -25.8278  -47.0955 C.3       13 UNK         0.1400 
     76 CB          0.1864  -26.1745  -45.8477 C.3       13 UNK        -0.1800 
     77 C           0.2708  -25.5325  -48.3036 C.2       13 UNK         0.5000 
     78 O           0.3793  -26.3742  -49.1961 O.2       13 UNK        -0.5000 
     79 N           0.8624  -24.3286  -48.3424 N.am      14 UNK        -0.5000 
     80 CA          1.6844  -23.8358  -49.4534 C.3       14 UNK         0.1400 
     81 CB          2.3268  -22.4966  -49.0627 C.3       14 UNK        -0.1800 
     82 C           0.9012  -23.7006  -50.7750 C.2       14 UNK         0.5000 
     83 O           1.4470  -23.9912  -51.8394 O.2       14 UNK        -0.5000 
     84 N          -0.3776  -23.3159  -50.6756 N.am      15 UNK        -0.5000 
     85 CA         -1.3385  -23.2378  -51.7768 C.3       15 UNK         0.1400 
     86 CB         -2.4356  -22.2280  -51.4028 C.3       15 UNK        -0.1800 
     87 C          -1.9433  -24.6036  -52.1762 C.2       15 UNK         0.5000 
     88 O          -2.8509  -24.6308  -53.0073 O.2       15 UNK        -0.5000 
     89 N          -1.4445  -25.7066  -51.5966 N.am      16 UNK        -0.5000 
     90 CA         -1.8079  -27.1000  -51.8726 C.3       16 UNK         0.1400 
     91 CB         -1.4255  -27.4943  -53.3151 C.3       16 UNK        -0.1800 
     92 C          -3.2731  -27.4245  -51.5173 C.2       16 UNK         0.5000 
     93 O          -3.9814  -28.0533  -52.3053 O.2       16 UNK        -0.5000 
     94 N          -3.6868  -26.9853  -50.3212 N.am      17 UNK        -0.5000 
     95 CA         -4.9945  -27.1779  -49.6842 C.3       17 UNK         0.1400 
     96 CB         -5.3861  -28.6683  -49.5964 C.3       17 UNK        -0.1800 
     97 C          -6.1191  -26.2947  -50.2598 C.2       17 UNK         0.5000 
     98 O          -7.2768  -26.4652  -49.8725 O.2       17 UNK        -0.5000 
     99 N          -5.7701  -25.3308  -51.1220 N.am      18 UNK        -0.5000 
    100 CA        -6.6321  -24.2042  -51.4775 C.3       18 UNK         0.1400 
    101 CB        -6.1192  -23.5706  -52.7789 C.3       18 UNK        -0.1800 
    102 C         -6.6407  -23.1700  -50.3359 C.2       18 UNK         0.5000 
    103 O         -5.7308  -23.1637  -49.5038 O.2       18 UNK        -0.5000 
    104 N         -7.6429  -22.2840  -50.3227 N.am      19 UNK        -0.5000 
    105 CA        -7.8356  -21.2401  -49.3088 C.3       19 UNK         0.1400 
    106 CB        -9.3108  -20.8001  -49.3333 C.3       19 UNK        -0.1800 
    107 C         -6.8574  -20.0519  -49.4661 C.2       19 UNK         0.5000 
    108 O         -7.2919  -18.9044  -49.5753 O.2       19 UNK        -0.5000 
    109 N         -5.5529  -20.3559  -49.5164 N.am      20 UNK        -0.5000 
    110 CA        -4.3757  -19.4819  -49.6416 C.3       20 UNK         0.1400 
    111 CB        -4.2605  -18.5469  -48.4249 C.3       20 UNK        -0.1800 
    112 C         -4.2662  -18.6765  -50.9556 C.2       20 UNK         0.5000 
    113 O         -3.1500  -18.4061  -51.3919 O.2       20 UNK        -0.5000 
    114 N         -5.4062  -18.3141  -51.5587 N.am      21 UNK        -0.5000 
    115 CA        -5.5728  -17.4150  -52.7063 C.3       21 UNK         0.1400 
    116 CB        -4.8370  -17.9355  -53.9597 C.3       21 UNK        -0.1800 
    117 C         -5.2356  -15.9493  -52.3540 C.2       21 UNK         0.5000 
    118 O         -4.7412  -15.2008  -53.1991 O.2       21 UNK        -0.5000 
    119 N         -5.5395  -15.5625  -51.1112 N.am      22 UNK        -0.5000 
    120 CA        -5.3757  -14.2198  -50.5435 C.3       22 UNK         0.1400 
    121 C         -6.2666  -14.0394  -49.2829 C.2       22 UNK         0.5000 
    122 N         -6.3649  -12.8295  -48.7481 N.am      22 UNK        -0.7600 
    123 O         -6.8843  -14.9800  -48.7875 O.2       22 UNK        -0.5000 
    124 C124       -3.8898  -13.8236  -50.3064 C.3       23 UNK        -0.0398 
    125 S125       -2.9390  -15.0316  -49.3170 S.3       23 UNK        -0.2404 
    126 C126       -1.3639  -15.0557  -50.2307 C.3       23 UNK        -0.0205 
    127 H127        5.8530  -18.9386  -48.6003 H         1 UNK         0.0600 
    128 H128        4.9189  -18.4144  -47.1968 H         1 UNK         0.0600 
    129 H129        6.2972  -17.4554  -47.7484 H         1 UNK         0.0600 
    130 H130        4.9464  -18.4207  -50.5751 H         1 UNK         0.3000 
    131 H131        2.5656  -16.8371  -50.6698 H         1 UNK         0.0600 
    132 H132        2.2677  -17.6497  -52.9533 H         1 UNK         0.0800 
    133 H133        3.9229  -18.1975  -53.0280 H         1 UNK         0.0800 
    134 H134        0.2814  -19.2903  -52.3430 H         1 UNK         0.0800 
    135 H135        0.3906  -20.4226  -51.0176 H         1 UNK         0.0800 
    136 H136       -0.6794  -17.2139  -51.7441 H         1 UNK         0.1150 
    137 H137       -0.1612  -15.5420  -47.8303 H         1 UNK         0.1150 
    138 H138        1.6177  -19.3186  -48.8098 H         1 UNK         0.1150 
    139 H139        2.0402  -18.3676  -46.6710 H         1 UNK         0.0800 
    140 H140        1.8411  -16.6464  -46.4723 H         1 UNK         0.0800 
    141 H141       -1.3203  -18.7040  -47.4068 H         1 UNK         0.0800 
    142 H142       -2.0357  -19.1152  -45.8984 H         1 UNK         0.0800 
    143 H143        0.4927  -20.3982  -47.0425 H         1 UNK         0.0600 
    144 H144       -0.6148  -20.6473  -44.3960 H         1 UNK         0.3000 
    145 H145        1.0227  -23.7004  -43.5868 H         1 UNK         0.0600 
    146 H146        2.8573  -22.0182  -43.3520 H         1 UNK         0.0600 
    147 H147        1.7141  -20.8369  -42.7247 H         1 UNK         0.0600 
    148 H148        2.0625  -22.3063  -41.8125 H         1 UNK         0.0600 
    149 H149       -0.4555  -21.8043  -42.0347 H         1 UNK         0.3000 
    150 H150       -3.7287  -22.9034  -42.8503 H         1 UNK         0.0600 
    151 H151       -3.8740  -23.2323  -40.3980 H         1 UNK         0.0600 
    152 H152       -2.1153  -23.2769  -40.2684 H         1 UNK         0.0600 
    153 H153       -2.9725  -24.5508  -41.1279 H         1 UNK         0.0600 
    154 H154       -2.8152  -20.9856  -40.9703 H         1 UNK         0.3000 
    155 H155       -3.4813  -18.6385  -41.6430 H         1 UNK         0.0600 
    156 H156       -1.1935  -19.2963  -40.8585 H         1 UNK         0.0600 
    157 H157       -1.2086  -17.6151  -41.3493 H         1 UNK         0.0600 
    158 H158       -0.5077  -18.8330  -42.4120 H         1 UNK         0.0600 
    159 H159       -1.9547  -17.4319  -43.7772 H         1 UNK         0.3000 
    160 H160       -3.2246  -17.0027  -46.0298 H         1 UNK         0.0600 
    161 H161       -5.7001  -16.9316  -46.2180 H         1 UNK         0.0600 
    162 H162       -4.9835  -15.4078  -46.7124 H         1 UNK         0.0600 
    163 H163       -5.7673  -15.5477  -45.1395 H         1 UNK         0.0600 
    164 H164       -2.1540  -15.1602  -45.4047 H         1 UNK         0.3000 
    165 H165       -2.2339  -12.7968  -44.7683 H         1 UNK         0.0600 
    166 H166       -2.2083  -11.2744  -42.8241 H         1 UNK         0.0600 
    167 H167       -3.8490  -11.8040  -43.1552 H         1 UNK         0.0600 
    168 H168       -2.9592  -12.5032  -41.8070 H         1 UNK         0.0600 
    169 H169       -0.8225  -13.5163  -42.3187 H         1 UNK         0.3000 
    170 H170        1.5122  -13.5902  -42.7039 H         1 UNK         0.0600 
    171 H171        2.2264  -15.8885  -42.0573 H         1 UNK         0.0600 
    172 H172        0.4905  -15.7334  -41.8452 H         1 UNK         0.0600 
    173 H173        1.1316  -16.5979  -43.2363 H         1 UNK         0.0600 
    174 H174        2.0022  -14.6779  -45.3328 H         1 UNK         0.3000 
    175 H175        5.1356  -13.1711  -45.4606 H         1 UNK         0.0600 
    176 H176        4.8053  -16.2125  -45.6604 H         1 UNK         0.0600 
    177 H177        6.0701  -15.2569  -46.4345 H         1 UNK         0.0600 
    178 H178        6.0087  -15.3794  -44.6829 H         1 UNK         0.0600 
    179 H179        3.7688  -14.7859  -47.3757 H         1 UNK         0.3000 
    180 H180        1.5738  -13.9134  -48.3587 H         1 UNK         0.0600 
    181 H181        0.9254  -12.0338  -49.8770 H         1 UNK         0.0600 
    182 H182        2.0132  -10.9548  -49.0031 H         1 UNK         0.0600 
    183 H183        0.6356  -11.6696  -48.1832 H         1 UNK         0.0600 
    184 H184        3.1891  -14.5049  -49.7250 H         1 UNK         0.3000 
    185 H185        4.8899  -13.1963  -52.1488 H         1 UNK         0.0600 
    186 H186        6.7993  -13.6468  -49.7886 H         1 UNK         0.0600 
    187 H187        7.2167  -13.8579  -51.4894 H         1 UNK         0.0600 
    188 H188        6.8091  -12.2643  -50.8775 H         1 UNK         0.0600 
    189 H189        5.2810  -15.5148  -50.3472 H         1 UNK         0.3000 
    190 H190       -2.5183  -21.7536  -45.6654 H         1 UNK         0.3000 
    191 H191       -3.6699  -22.5643  -48.1318 H         1 UNK         0.0600 
    192 H192       -4.0538  -23.7438  -45.3285 H         1 UNK         0.0600 
    193 H193       -5.1128  -24.0047  -46.7101 H         1 UNK         0.0600 
    194 H194       -4.9623  -22.3974  -46.0160 H         1 UNK         0.0600 
    195 H195       -1.4338  -24.2583  -45.9028 H         1 UNK         0.3000 
    196 H196       -1.2493  -26.6982  -47.3459 H         1 UNK         0.0600 
    197 H197        0.8365  -27.0295  -46.0365 H         1 UNK         0.0600 
    198 H198       -0.4590  -26.4348  -45.0085 H         1 UNK         0.0600 
    199 H199        0.8197  -25.3446  -45.5361 H         1 UNK         0.0600 
    200 H200        0.7604  -23.7064  -47.5462 H         1 UNK         0.3000 
    201 H201        2.4847  -24.5601  -49.6172 H         1 UNK         0.0600 
    202 H202        2.9288  -22.5942  -48.1593 H         1 UNK         0.0600 
    203 H203        1.5749  -21.7288  -48.8835 H         1 UNK         0.0600 
    204 H204        2.9842  -22.1342  -49.8536 H         1 UNK         0.0600 
    205 H205       -0.7210  -23.0226  -49.7653 H         1 UNK         0.3000 
    206 H206       -0.8193  -22.8522  -52.6563 H         1 UNK         0.0600 
    207 H207       -3.1035  -22.0410  -52.2433 H         1 UNK         0.0600 
    208 H208       -3.0407  -22.5840  -50.5683 H         1 UNK         0.0600 
    209 H209       -2.0041  -21.2671  -51.1227 H         1 UNK         0.0600 
    210 H210       -0.7316  -25.5849  -50.8874 H         1 UNK         0.3000 
    211 H211       -1.1977  -27.7060  -51.2015 H         1 UNK         0.0600 
    212 H212       -2.0286  -26.9680  -54.0555 H         1 UNK         0.0600 
    213 H213       -1.5696  -28.5629  -53.4780 H         1 UNK         0.0600 
    214 H214       -0.3774  -27.2745  -53.5184 H         1 UNK         0.0600 
    215 H215       -3.0627  -26.3766  -49.7961 H         1 UNK         0.3000 
    216 H216       -4.8583  -26.8279  -48.6600 H         1 UNK         0.0600 
    217 H217       -6.2503  -28.8055  -48.9455 H         1 UNK         0.0600 
    218 H218       -4.5741  -29.2674  -49.1845 H         1 UNK         0.0600 
    219 H219       -5.6497  -29.0797  -50.5708 H         1 UNK         0.0600 
    220 H220       -4.7930  -25.2426  -51.3636 H         1 UNK         0.3000 
    221 H221       -7.6507  -24.5636  -51.6379 H         1 UNK         0.0600 
    222 H222       -5.1251  -23.1437  -52.6530 H         1 UNK         0.0600 
    223 H223       -6.0667  -24.3058  -53.5822 H         1 UNK         0.0600 
    224 H224       -6.7789  -22.7694  -53.1136 H         1 UNK         0.0600 
    225 H225       -8.3343  -22.3198  -51.0579 H         1 UNK         0.3000 
    226 H226       -7.6419  -21.6756  -48.3261 H         1 UNK         0.0600 
    227 H227       -9.9772  -21.6440  -49.1539 H         1 UNK         0.0600 
    228 H228       -9.5128  -20.0606  -48.5573 H         1 UNK         0.0600 
    229 H229       -9.5824  -20.3550  -50.2912 H         1 UNK         0.0600 
    230 H230       -5.3439  -21.3506  -49.4675 H         1 UNK         0.3000 
    231 H231       -3.5129  -20.1481  -49.6152 H         1 UNK         0.0600 
    232 H232       -5.0846  -17.8344  -48.3857 H         1 UNK         0.0600 
    233 H233       -4.2512  -19.1091  -47.4910 H         1 UNK         0.0600 
    234 H234       -3.3377  -17.9678  -48.4694 H         1 UNK         0.0600 
    235 H235       -6.2609  -18.5535  -51.0624 H         1 UNK         0.3000 
    236 H236       -6.6394  -17.4259  -52.9343 H         1 UNK         0.0600 
    237 H237       -3.7544  -17.8532  -53.8623 H         1 UNK         0.0600 
    238 H238       -5.0794  -18.9801  -54.1550 H         1 UNK         0.0600 
    239 H239       -5.1253  -17.3647  -54.8429 H         1 UNK         0.0600 
    240 H240       -5.9662  -16.2237  -50.4751 H         1 UNK         0.3000 
    241 H241       -5.7890  -13.5262  -51.2781 H         1 UNK         0.0600 
    242 H242       -6.9462  -12.7058  -47.9339 H         1 UNK         0.3800 
    243 H243       -5.8894  -12.0316  -49.1396 H         1 UNK         0.3800 
    244 H244       -3.4071  -13.6967  -51.2755 H         1 UNK         0.0800 
    245 H245       -3.8141  -12.8486  -49.8237 H         1 UNK         0.0800 
    246 H246       -0.8188  -14.1303  -50.0404 H         1 UNK         0.0800 
    247 H247       -1.5664  -15.0867  -51.3023 H         1 UNK         0.0800 
@<TRIPOS>BOND
     1    1    2 1    
     2    1  127 1    
     3    1  128 1    
     4    1  129 1    
     5    2    3 2    
     6    2    4 am   BACKBONE|DICT|INTERRES
     7    4    5 1    
     8    4  130 1    
     9    5    6 1    
    10    5   65 1    
    11    5  131 1    
    12    6    7 1    
    13    6  132 1    
    14    6  133 1    
    15    7    8 1    
    16    8    9 1    
    17    8  134 1    
    18    8  135 1    
    19    9   10 ar   
    20    9   14 ar   
    21   10   11 ar   
    22   10  136 1    
    23   11   12 ar   
    24   11  126 1    
    25   12   13 ar   
    26   12  137 1    
    27   13   14 ar   
    28   13   15 1    
    29   14  138 1    
    30   15   16 1    
    31   15  139 1    
    32   15  140 1    
    33   16   17 1    
    34   17   18 1    
    35   17  141 1    
    36   17  142 1    
    37   18   19 1    
    38   18   67 1    
    39   18  143 1    
    40   19   20 am   BACKBONE|DICT|INTERRES
    41   19  144 1    
    42   20   21 2    
    43   20   22 1    
    44   22   23 1    
    45   22   24 1    
    46   22  145 1    
    47   23  146 1    
    48   23  147 1    
    49   23  148 1    
    50   24   25 am   BACKBONE|DICT|INTERRES
    51   24  149 1    
    52   25   26 2    
    53   25   27 1    
    54   27   28 1    
    55   27   29 1    
    56   27  150 1    
    57   28  151 1    
    58   28  152 1    
    59   28  153 1    
    60   29   30 am   BACKBONE|DICT|INTERRES
    61   29  154 1    
    62   30   31 2    
    63   30   32 1    
    64   32   33 1    
    65   32   34 1    
    66   32  155 1    
    67   33  156 1    
    68   33  157 1    
    69   33  158 1    
    70   34   35 am   BACKBONE|DICT|INTERRES
    71   34  159 1    
    72   35   36 2    
    73   35   37 1    
    74   37   38 1    
    75   37   39 1    
    76   37  160 1    
    77   38  161 1    
    78   38  162 1    
    79   38  163 1    
    80   39   40 am   BACKBONE|DICT|INTERRES
    81   39  164 1    
    82   40   41 2    
    83   40   42 1    
    84   42   43 1    
    85   42   44 1    
    86   42  165 1    
    87   43  166 1    
    88   43  167 1    
    89   43  168 1    
    90   44   45 am   BACKBONE|DICT|INTERRES
    91   44  169 1    
    92   45   46 2    
    93   45   47 1    
    94   47   48 1    
    95   47   49 1    
    96   47  170 1    
    97   48  171 1    
    98   48  172 1    
    99   48  173 1    
   100   49   50 am   BACKBONE|DICT|INTERRES
   101   49  174 1    
   102   50   51 2    
   103   50   52 1    
   104   52   53 1    
   105   52   54 1    
   106   52  175 1    
   107   53  176 1    
   108   53  177 1    
   109   53  178 1    
   110   54   55 am   BACKBONE|DICT|INTERRES
   111   54  179 1    
   112   55   56 2    
   113   55   57 1    
   114   57   58 1    
   115   57   59 1    
   116   57  180 1    
   117   58  181 1    
   118   58  182 1    
   119   58  183 1    
   120   59   60 am   BACKBONE|DICT|INTERRES
   121   59  184 1    
   122   60   61 2    
   123   60   62 1    
   124   62   63 1    
   125   62   64 1    
   126   62  185 1    
   127   63  186 1    
   128   63  187 1    
   129   63  188 1    
   130   64   65 am   BACKBONE|DICT|INTERRES
   131   64  189 1    
   132   65   66 2    
   133   67   68 2    
   134   67   69 am   BACKBONE|DICT|INTERRES
   135   69   70 1    
   136   69  190 1    
   137   70   71 1    
   138   70   72 1    
   139   70  191 1    
   140   71  192 1    
   141   71  193 1    
   142   71  194 1    
   143   72   73 2    
   144   72   74 am   BACKBONE|DICT|INTERRES
   145   74   75 1    
   146   74  195 1    
   147   75   76 1    
   148   75   77 1    
   149   75  196 1    
   150   76  197 1    
   151   76  198 1    
   152   76  199 1    
   153   77   78 2    
   154   77   79 am   BACKBONE|DICT|INTERRES
   155   79   80 1    
   156   79  200 1    
   157   80   81 1    
   158   80   82 1    
   159   80  201 1    
   160   81  202 1    
   161   81  203 1    
   162   81  204 1    
   163   82   83 2    
   164   82   84 am   BACKBONE|DICT|INTERRES
   165   84   85 1    
   166   84  205 1    
   167   85   86 1    
   168   85   87 1    
   169   85  206 1    
   170   86  207 1    
   171   86  208 1    
   172   86  209 1    
   173   87   88 2    
   174   87   89 am   BACKBONE|DICT|INTERRES
   175   89   90 1    
   176   89  210 1    
   177   90   91 1    
   178   90   92 1    
   179   90  211 1    
   180   91  212 1    
   181   91  213 1    
   182   91  214 1    
   183   92   93 2    
   184   92   94 am   BACKBONE|DICT|INTERRES
   185   94   95 1    
   186   94  215 1    
   187   95   96 1    
   188   95   97 1    
   189   95  216 1    
   190   96  217 1    
   191   96  218 1    
   192   96  219 1    
   193   97   98 2    
   194   97   99 am   BACKBONE|DICT|INTERRES
   195   99  100 1    
   196   99  220 1    
   197  100  101 1    
   198  100  102 1    
   199  100  221 1    
   200  101  222 1    
   201  101  223 1    
   202  101  224 1    
   203  102  103 2    
   204  102  104 am   BACKBONE|DICT|INTERRES
   205  104  105 1    
   206  104  225 1    
   207  105  106 1    
   208  105  107 1    
   209  105  226 1    
   210  106  227 1    
   211  106  228 1    
   212  106  229 1    
   213  107  108 2    
   214  107  109 am   BACKBONE|DICT|INTERRES
   215  109  110 1    
   216  109  230 1    
   217  110  111 1    
   218  110  112 1    
   219  110  231 1    
   220  111  232 1    
   221  111  233 1    
   222  111  234 1    
   223  112  113 2    
   224  112  114 am   BACKBONE|DICT|INTERRES
   225  114  115 1    
   226  114  235 1    
   227  115  116 1    
   228  115  117 1    
   229  115  236 1    
   230  116  237 1    
   231  116  238 1    
   232  116  239 1    
   233  117  118 2    
   234  117  119 am   BACKBONE|DICT|INTERRES
   235  119  120 1    
   236  119  240 1    
   237  120  121 1    
   238  120  124 1    
   239  120  241 1    
   240  121  122 am   BACKBONE|DICT|INTERRES
   241  121  123 2    
   242  122  242 1    
   243  122  243 1    
   244  124  125 1    
   245  124  244 1    
   246  124  245 1    
   247  125  126 1    
   248  126  246 1    
   249  126  247 1    
@<TRIPOS>SUBSTRUCTURE
     1 UNK         1 GROUP             0       ****    0 ROOT    
