@<TRIPOS>MOLECULE
3R540
247   249    1
SMALL
USER_CHARGES


@<TRIPOS>ATOM
      1 CA          6.9906  -16.4508  -47.7378 C.3       0 UNK        -0.1800 
      2 C           5.7549  -16.6194  -48.6104 C.2       0 UNK         0.5000 
      3 O           5.8366  -17.2177  -49.6830 O.2       0 UNK        -0.5000 
      4 N           4.6143  -16.0942  -48.1567 N.am      1 UNK        -0.5000 
      5 CA          3.3177  -16.1839  -48.8178 C.3       1 UNK         0.1400 
      6 C6          3.2114  -15.2111  -50.0273 C.3       23 UNK        -0.0398 
      7 S7          1.5405  -14.9414  -50.7306 S.3       23 UNK        -0.2404 
      8 C8          1.4705  -16.1746  -52.0672 C.3       23 UNK        -0.0205 
      9 C9          0.9702  -17.5267  -51.5785 C.ar      23 UNK        -0.0193 
     10 C10        -0.3978  -17.8166  -51.5964 C.ar      23 UNK        -0.1150 
     11 C11        -0.8660  -19.0797  -51.2232 C.ar      23 UNK        -0.0193 
     12 C12         0.0449  -20.0373  -50.7707 C.ar      23 UNK        -0.1150 
     13 C13         1.4156  -19.7610  -50.7389 C.ar      23 UNK        -0.0193 
     14 C14         1.8723  -18.5089  -51.1608 C.ar      23 UNK        -0.1150 
     15 C15         2.4075  -20.8402  -50.3258 C.3       23 UNK        -0.0205 
     16 S16         3.3418  -20.4359  -48.8126 S.3       23 UNK        -0.2404 
     17 C17         2.0602  -20.3622  -47.5178 C.3       23 UNK        -0.0398 
     18 CA          1.5206  -21.7548  -47.0808 C.3       11 UNK         0.1400 
     19 N           1.4287  -21.9004  -45.6237 N.am      11 UNK        -0.5000 
     20 C           1.2097  -23.0647  -44.9895 C.2       10 UNK         0.5000 
     21 O           1.1156  -24.1443  -45.5708 O.2       10 UNK        -0.5000 
     22 CA          1.0255  -23.0296  -43.4582 C.3       10 UNK         0.1400 
     23 CB          2.3653  -23.2865  -42.7535 C.3       10 UNK        -0.1800 
     24 N           0.4609  -21.7757  -42.9633 N.am      10 UNK        -0.5000 
     25 C          -0.7395  -21.2774  -43.2936 C.2       9 UNK         0.5000 
     26 O          -1.5600  -21.8810  -43.9859 O.2       9 UNK        -0.5000 
     27 CA         -1.0335  -19.8319  -42.8329 C.3       9 UNK         0.1400 
     28 CB         -1.8431  -19.8370  -41.5289 C.3       9 UNK        -0.1800 
     29 N           0.1777  -19.0189  -42.6479 N.am      9 UNK        -0.5000 
     30 C           1.0861  -18.7758  -43.6039 C.2       8 UNK         0.5000 
     31 O           0.9430  -19.1541  -44.7669 O.2       8 UNK        -0.5000 
     32 CA          2.3877  -18.0557  -43.2057 C.3       8 UNK         0.1400 
     33 CB          2.8226  -17.0508  -44.2787 C.3       8 UNK        -0.1800 
     34 N           2.3202  -17.3712  -41.9143 N.am      8 UNK        -0.5000 
     35 C           2.6210  -17.9313  -40.7359 C.2       7 UNK         0.5000 
     36 O           2.8512  -19.1333  -40.6007 O.2       7 UNK        -0.5000 
     37 CA          2.6744  -17.0116  -39.5057 C.3       7 UNK         0.1400 
     38 CB          4.0649  -16.3701  -39.3724 C.3       7 UNK        -0.1800 
     39 N           1.6595  -15.9574  -39.5513 N.am      7 UNK        -0.5000 
     40 C           0.8772  -15.6138  -38.5178 C.2       6 UNK         0.5000 
     41 O           0.9371  -16.1467  -37.4085 O.2       6 UNK        -0.5000 
     42 CA         -0.1484  -14.4823  -38.7432 C.3       6 UNK         0.1400 
     43 CB          0.3884  -13.1550  -38.1855 C.3       6 UNK        -0.1800 
     44 N          -0.5189  -14.2871  -40.1450 N.am      6 UNK        -0.5000 
     45 C          -1.1680  -15.1801  -40.9028 C.2       5 UNK         0.5000 
     46 O          -1.5963  -16.2520  -40.4754 O.2       5 UNK        -0.5000 
     47 CA         -1.3560  -14.8353  -42.3927 C.3       5 UNK         0.1400 
     48 CB         -2.7921  -14.3474  -42.6392 C.3       5 UNK        -0.1800 
     49 N          -0.4233  -13.8475  -42.9515 N.am      5 UNK        -0.5000 
     50 C           0.9159  -13.9025  -42.9494 C.2       4 UNK         0.5000 
     51 O           1.5600  -14.7229  -42.2918 O.2       4 UNK        -0.5000 
     52 CA          1.6414  -12.8895  -43.8619 C.3       4 UNK         0.1400 
     53 CB          3.1648  -13.1051  -43.8933 C.3       4 UNK        -0.1800 
     54 N           1.1266  -12.9721  -45.2307 N.am      4 UNK        -0.5000 
     55 C           0.0422  -12.3295  -45.6911 C.2       3 UNK         0.5000 
     56 O          -0.5873  -11.5051  -45.0275 O.2       3 UNK        -0.5000 
     57 CA         -0.4711  -12.7252  -47.0926 C.3       3 UNK         0.1400 
     58 CB          0.1743  -11.8454  -48.1734 C.3       3 UNK        -0.1800 
     59 N          -0.2227  -14.1311  -47.4148 N.am      3 UNK        -0.5000 
     60 C          -0.6725  -15.1794  -46.7105 C.2       2 UNK         0.5000 
     61 O          -1.5067  -15.0816  -45.8117 O.2       2 UNK        -0.5000 
     62 CA         -0.0779  -16.5670  -47.0272 C.3       2 UNK         0.1400 
     63 CB         -1.1529  -17.4716  -47.6348 C.3       2 UNK        -0.1800 
     64 N           1.0856  -16.5818  -47.9182 N.am      2 UNK        -0.5000 
     65 C           2.2542  -15.9545  -47.7345 C.2       1 UNK         0.5000 
     66 O           2.4979  -15.2029  -46.7860 O.2       1 UNK        -0.5000 
     67 C           0.1578  -22.0547  -47.7316 C.2       11 UNK         0.5000 
     68 O           0.0898  -22.8518  -48.6665 O.2       11 UNK        -0.5000 
     69 N          -0.9102  -21.4513  -47.1866 N.am      12 UNK        -0.5000 
     70 CA         -2.2903  -21.6703  -47.6221 C.3       12 UNK         0.1400 
     71 CB         -3.2359  -20.7086  -46.8884 C.3       12 UNK        -0.1800 
     72 C          -2.7418  -23.1256  -47.4227 C.2       12 UNK         0.5000 
     73 O          -3.3988  -23.6767  -48.3049 O.2       12 UNK        -0.5000 
     74 N          -2.3452  -23.7292  -46.2931 N.am      13 UNK        -0.5000 
     75 CA         -2.5823  -25.1379  -45.9807 C.3       13 UNK         0.1400 
     76 CB         -2.1660  -25.4250  -44.5307 C.3       13 UNK        -0.1800 
     77 C          -1.8691  -26.0893  -46.9601 C.2       13 UNK         0.5000 
     78 O          -2.5024  -27.0155  -47.4664 O.2       13 UNK        -0.5000 
     79 N          -0.5848  -25.8240  -47.2433 N.am      14 UNK        -0.5000 
     80 CA          0.2352  -26.5822  -48.1930 C.3       14 UNK         0.1400 
     81 CB          1.6979  -26.1236  -48.0919 C.3       14 UNK        -0.1800 
     82 C          -0.2657  -26.4733  -49.6450 C.2       14 UNK         0.5000 
     83 O          -0.2537  -27.4685  -50.3700 O.2       14 UNK        -0.5000 
     84 N          -0.7263  -25.2763  -50.0305 N.am      15 UNK        -0.5000 
     85 CA         -1.3360  -24.9907  -51.3305 C.3       15 UNK         0.1400 
     86 CB         -1.2912  -23.4739  -51.5673 C.3       15 UNK        -0.1800 
     87 C          -2.7812  -25.5136  -51.4657 C.2       15 UNK         0.5000 
     88 O          -3.3224  -25.4842  -52.5710 O.2       15 UNK        -0.5000 
     89 N          -3.3837  -25.9545  -50.3506 N.am      16 UNK        -0.5000 
     90 CA         -4.7668  -26.4176  -50.2023 C.3       16 UNK         0.1400 
     91 CB         -4.9895  -27.7367  -50.9710 C.3       16 UNK        -0.1800 
     92 C          -5.7967  -25.3221  -50.5523 C.2       16 UNK         0.5000 
     93 O          -6.8043  -25.6041  -51.2036 O.2       16 UNK        -0.5000 
     94 N          -5.5068  -24.0894  -50.1070 N.am      17 UNK        -0.5000 
     95 CA         -6.2702  -22.8561  -50.3155 C.3       17 UNK         0.1400 
     96 CB         -7.5856  -22.8905  -49.5114 C.3       17 UNK        -0.1800 
     97 C          -6.4765  -22.5342  -51.8105 C.2       17 UNK         0.5000 
     98 O          -7.6100  -22.3405  -52.2533 O.2       17 UNK        -0.5000 
     99 N          -5.3631  -22.5111  -52.5592 N.am      18 UNK        -0.5000 
    100 CA        -5.2935  -22.2333  -53.9957 C.3       18 UNK         0.1400 
    101 CB        -3.8254  -22.2809  -54.4471 C.3       18 UNK        -0.1800 
    102 C         -5.9289  -20.8805  -54.3664 C.2       18 UNK         0.5000 
    103 O         -5.3945  -19.8333  -53.9934 O.2       18 UNK        -0.5000 
    104 N         -7.0537  -20.9342  -55.0921 N.am      19 UNK        -0.5000 
    105 CA        -7.9420  -19.8084  -55.4055 C.3       19 UNK         0.1400 
    106 CB        -9.1445  -20.3378  -56.2022 C.3       19 UNK        -0.1800 
    107 C         -7.2870  -18.6276  -56.1495 C.2       19 UNK         0.5000 
    108 O         -7.8146  -17.5162  -56.0988 O.2       19 UNK        -0.5000 
    109 N         -6.1480  -18.8804  -56.8067 N.am      20 UNK        -0.5000 
    110 CA        -5.3354  -17.8907  -57.5123 C.3       20 UNK         0.1400 
    111 CB        -4.2340  -18.6254  -58.2925 C.3       20 UNK        -0.1800 
    112 C         -4.7158  -16.8108  -56.6007 C.2       20 UNK         0.5000 
    113 O         -4.4059  -15.7273  -57.0990 O.2       20 UNK        -0.5000 
    114 N         -4.5383  -17.1087  -55.3045 N.am      21 UNK        -0.5000 
    115 CA        -3.9455  -16.1831  -54.3337 C.3       21 UNK         0.1400 
    116 CB        -2.4173  -16.3541  -54.3264 C.3       21 UNK        -0.1800 
    117 C         -4.5333  -16.3118  -52.9168 C.2       21 UNK         0.5000 
    118 O         -4.5185  -15.3260  -52.1790 O.2       21 UNK        -0.5000 
    119 N         -5.0513  -17.4928  -52.5604 N.am      22 UNK        -0.5000 
    120 CA        -5.6830  -17.7995  -51.2655 C.3       22 UNK         0.1400 
    121 C         -7.2326  -17.9255  -51.3669 C.2       22 UNK         0.5000 
    122 N         -7.8641  -17.5289  -52.4655 N.am      22 UNK        -0.7600 
    123 O         -7.8838  -18.3655  -50.4235 O.2       22 UNK        -0.5000 
    124 C124       -5.0376  -19.0524  -50.6128 C.3       23 UNK        -0.0398 
    125 S125       -3.3416  -18.7281  -50.0308 S.3       23 UNK        -0.2404 
    126 C126       -2.3418  -19.4270  -51.3737 C.3       23 UNK        -0.0205 
    127 H127        7.3909  -17.4265  -47.4623 H         1 UNK         0.0600 
    128 H128        6.7680  -15.9036  -46.8213 H         1 UNK         0.0600 
    129 H129        7.7622  -15.9052  -48.2810 H         1 UNK         0.0600 
    130 H130        4.5767  -15.6253  -47.2592 H         1 UNK         0.3000 
    131 H131        3.1987  -17.2088  -49.1684 H         1 UNK         0.0600 
    132 H132        3.8831  -15.5389  -50.8212 H         1 UNK         0.0800 
    133 H133        3.5792  -14.2283  -49.7278 H         1 UNK         0.0800 
    134 H134        0.8006  -15.8016  -52.8435 H         1 UNK         0.0800 
    135 H135        2.4470  -16.2759  -52.5430 H         1 UNK         0.0800 
    136 H136       -1.1003  -17.0666  -51.9264 H         1 UNK         0.1150 
    137 H137       -0.3134  -21.0119  -50.4789 H         1 UNK         0.1150 
    138 H138        2.9343  -18.3065  -51.1755 H         1 UNK         0.1150 
    139 H139        1.9131  -21.8037  -50.2032 H         1 UNK         0.0800 
    140 H140        3.1211  -20.9793  -51.1389 H         1 UNK         0.0800 
    141 H141        1.2701  -19.6754  -47.8243 H         1 UNK         0.0800 
    142 H142        2.5449  -19.8709  -46.6739 H         1 UNK         0.0800 
    143 H143        2.2179  -22.5226  -47.4236 H         1 UNK         0.0600 
    144 H144        1.4245  -21.0371  -45.0915 H         1 UNK         0.3000 
    145 H145        0.3374  -23.8320  -43.1873 H         1 UNK         0.0600 
    146 H146        2.2377  -23.3480  -41.6725 H         1 UNK         0.0600 
    147 H147        2.8047  -24.2296  -43.0816 H         1 UNK         0.0600 
    148 H148        3.0882  -22.4967  -42.9625 H         1 UNK         0.0600 
    149 H149        1.0624  -21.2109  -42.3816 H         1 UNK         0.3000 
    150 H150       -1.6358  -19.3588  -43.6112 H         1 UNK         0.0600 
    151 H151       -2.7539  -20.4275  -41.6364 H         1 UNK         0.0600 
    152 H152       -2.1442  -18.8279  -41.2482 H         1 UNK         0.0600 
    153 H153       -1.2718  -20.2601  -40.7018 H         1 UNK         0.0600 
    154 H154        0.3628  -18.6794  -41.7154 H         1 UNK         0.3000 
    155 H155        3.1609  -18.8251  -43.1565 H         1 UNK         0.0600 
    156 H156        3.7445  -16.5423  -43.9973 H         1 UNK         0.0600 
    157 H157        3.0075  -17.5476  -45.2317 H         1 UNK         0.0600 
    158 H158        2.0563  -16.2944  -44.4436 H         1 UNK         0.0600 
    159 H159        2.1151  -16.3754  -41.9646 H         1 UNK         0.3000 
    160 H160        2.5120  -17.6530  -38.6370 H         1 UNK         0.0600 
    161 H161        4.2813  -15.7040  -40.2087 H         1 UNK         0.0600 
    162 H162        4.8469  -17.1301  -39.3442 H         1 UNK         0.0600 
    163 H163        4.1430  -15.7893  -38.4532 H         1 UNK         0.0600 
    164 H164        1.5443  -15.4658  -40.4312 H         1 UNK         0.3000 
    165 H165       -1.0527  -14.7461  -38.1909 H         1 UNK         0.0600 
    166 H166       -0.3562  -12.3628  -38.2649 H         1 UNK         0.0600 
    167 H167        0.6477  -13.2503  -37.1302 H         1 UNK         0.0600 
    168 H168        1.2846  -12.8300  -38.7156 H         1 UNK         0.0600 
    169 H169       -0.1984  -13.4376  -40.5855 H         1 UNK         0.3000 
    170 H170       -1.2092  -15.7613  -42.9525 H         1 UNK         0.0600 
    171 H171       -3.5215  -15.0747  -42.2801 H         1 UNK         0.0600 
    172 H172       -2.9879  -13.4043  -42.1276 H         1 UNK         0.0600 
    173 H173       -2.9839  -14.1979  -43.7017 H         1 UNK         0.0600 
    174 H174       -0.8458  -13.1267  -43.5230 H         1 UNK         0.3000 
    175 H175        1.4542  -11.8931  -43.4567 H         1 UNK         0.0600 
    176 H176        3.5927  -13.0383  -42.8923 H         1 UNK         0.0600 
    177 H177        3.4251  -14.0827  -44.2994 H         1 UNK         0.0600 
    178 H178        3.6553  -12.3494  -44.5068 H         1 UNK         0.0600 
    179 H179        1.5613  -13.6727  -45.8240 H         1 UNK         0.3000 
    180 H180       -1.5507  -12.5633  -47.1107 H         1 UNK         0.0600 
    181 H181        1.2547  -11.9898  -48.2168 H         1 UNK         0.0600 
    182 H182       -0.0094  -10.7882  -47.9779 H         1 UNK         0.0600 
    183 H183       -0.2333  -12.0691  -49.1596 H         1 UNK         0.0600 
    184 H184        0.4511  -14.3127  -48.1441 H         1 UNK         0.3000 
    185 H185        0.2349  -16.9949  -46.0748 H         1 UNK         0.0600 
    186 H186       -2.0394  -17.5107  -47.0011 H         1 UNK         0.0600 
    187 H187       -1.4621  -17.0978  -48.6107 H         1 UNK         0.0600 
    188 H188       -0.7974  -18.4934  -47.7622 H         1 UNK         0.0600 
    189 H189        0.9699  -17.1251  -48.7623 H         1 UNK         0.3000 
    190 H190       -0.7753  -20.8501  -46.3866 H         1 UNK         0.3000 
    191 H191       -2.3412  -21.4493  -48.6903 H         1 UNK         0.0600 
    192 H192       -3.2238  -20.8666  -45.8101 H         1 UNK         0.0600 
    193 H193       -4.2639  -20.8417  -47.2281 H         1 UNK         0.0600 
    194 H194       -2.9691  -19.6709  -47.0778 H         1 UNK         0.0600 
    195 H195       -1.8522  -23.1788  -45.5986 H         1 UNK         0.3000 
    196 H196       -3.6563  -25.3169  -46.0646 H         1 UNK         0.0600 
    197 H197       -2.4193  -26.4479  -44.2498 H         1 UNK         0.0600 
    198 H198       -2.6747  -24.7592  -43.8331 H         1 UNK         0.0600 
    199 H199       -1.0928  -25.3045  -44.3876 H         1 UNK         0.0600 
    200 H200       -0.1187  -25.0627  -46.7578 H         1 UNK         0.3000 
    201 H201        0.1893  -27.6348  -47.9061 H         1 UNK         0.0600 
    202 H202        2.0939  -26.2900  -47.0900 H         1 UNK         0.0600 
    203 H203        1.8037  -25.0626  -48.3212 H         1 UNK         0.0600 
    204 H204        2.3311  -26.6759  -48.7873 H         1 UNK         0.0600 
    205 H205       -0.6314  -24.4898  -49.3930 H         1 UNK         0.3000 
    206 H206       -0.7406  -25.4743  -52.1075 H         1 UNK         0.0600 
    207 H207       -0.2654  -23.1068  -51.5356 H         1 UNK         0.0600 
    208 H208       -1.6942  -23.2134  -52.5456 H         1 UNK         0.0600 
    209 H209       -1.8683  -22.9351  -50.8150 H         1 UNK         0.0600 
    210 H210       -2.8529  -25.9138  -49.4902 H         1 UNK         0.3000 
    211 H211       -4.9011  -26.6301  -49.1407 H         1 UNK         0.0600 
    212 H212       -4.9263  -27.5943  -52.0501 H         1 UNK         0.0600 
    213 H213       -5.9735  -28.1535  -50.7536 H         1 UNK         0.0600 
    214 H214       -4.2505  -28.4861  -50.6873 H         1 UNK         0.0600 
    215 H215       -4.6619  -23.9845  -49.5458 H         1 UNK         0.3000 
    216 H216       -5.6606  -22.0487  -49.9074 H         1 UNK         0.0600 
    217 H217       -8.2616  -23.6667  -49.8711 H         1 UNK         0.0600 
    218 H218       -8.1115  -21.9376  -49.5847 H         1 UNK         0.0600 
    219 H219       -7.3952  -23.0751  -48.4542 H         1 UNK         0.0600 
    220 H220       -4.4868  -22.7295  -52.1107 H         1 UNK         0.3000 
    221 H221       -5.8323  -23.0305  -54.5114 H         1 UNK         0.0600 
    222 H222       -3.4007  -23.2733  -54.2977 H         1 UNK         0.0600 
    223 H223       -3.2108  -21.5636  -53.9014 H         1 UNK         0.0600 
    224 H224       -3.7343  -22.0490  -55.5091 H         1 UNK         0.0600 
    225 H225       -7.4075  -21.8452  -55.3457 H         1 UNK         0.3000 
    226 H226       -8.3122  -19.4216  -54.4551 H         1 UNK         0.0600 
    227 H227       -9.6885  -21.0965  -55.6391 H         1 UNK         0.0600 
    228 H228       -9.8501  -19.5367  -56.4273 H         1 UNK         0.0600 
    229 H229       -8.8348  -20.7788  -57.1505 H         1 UNK         0.0600 
    230 H230       -5.7918  -19.8242  -56.7838 H         1 UNK         0.3000 
    231 H231       -5.9812  -17.3800  -58.2296 H         1 UNK         0.0600 
    232 H232       -3.5694  -19.1765  -57.6258 H         1 UNK         0.0600 
    233 H233       -3.6214  -17.9234  -58.8598 H         1 UNK         0.0600 
    234 H234       -4.6587  -19.3325  -59.0053 H         1 UNK         0.0600 
    235 H235       -4.8215  -18.0222  -54.9715 H         1 UNK         0.3000 
    236 H236       -4.1649  -15.1586  -54.6425 H         1 UNK         0.0600 
    237 H237       -1.9904  -16.1196  -55.3015 H         1 UNK         0.0600 
    238 H238       -1.9516  -15.6837  -53.6033 H         1 UNK         0.0600 
    239 H239       -2.1306  -17.3753  -54.0757 H         1 UNK         0.0600 
    240 H240       -5.0517  -18.2755  -53.2095 H         1 UNK         0.3000 
    241 H241       -5.5286  -16.9652  -50.5793 H         1 UNK         0.0600 
    242 H242       -8.8687  -17.5936  -52.5060 H         1 UNK         0.3800 
    243 H243       -7.3536  -17.1299  -53.2365 H         1 UNK         0.3800 
    244 H244       -5.0403  -19.8946  -51.3039 H         1 UNK         0.0800 
    245 H245       -5.6044  -19.3744  -49.7378 H         1 UNK         0.0800 
    246 H246       -2.4813  -20.5084  -51.3973 H         1 UNK         0.0800 
    247 H247       -2.7034  -19.0526  -52.3317 H         1 UNK         0.0800 
@<TRIPOS>BOND
     1    1    2 1    
     2    1  127 1    
     3    1  128 1    
     4    1  129 1    
     5    2    3 2    
     6    2    4 am   BACKBONE|DICT|INTERRES
     7    4    5 1    
     8    4  130 1    
     9    5    6 1    
    10    5   65 1    
    11    5  131 1    
    12    6    7 1    
    13    6  132 1    
    14    6  133 1    
    15    7    8 1    
    16    8    9 1    
    17    8  134 1    
    18    8  135 1    
    19    9   10 ar   
    20    9   14 ar   
    21   10   11 ar   
    22   10  136 1    
    23   11   12 ar   
    24   11  126 1    
    25   12   13 ar   
    26   12  137 1    
    27   13   14 ar   
    28   13   15 1    
    29   14  138 1    
    30   15   16 1    
    31   15  139 1    
    32   15  140 1    
    33   16   17 1    
    34   17   18 1    
    35   17  141 1    
    36   17  142 1    
    37   18   19 1    
    38   18   67 1    
    39   18  143 1    
    40   19   20 am   BACKBONE|DICT|INTERRES
    41   19  144 1    
    42   20   21 2    
    43   20   22 1    
    44   22   23 1    
    45   22   24 1    
    46   22  145 1    
    47   23  146 1    
    48   23  147 1    
    49   23  148 1    
    50   24   25 am   BACKBONE|DICT|INTERRES
    51   24  149 1    
    52   25   26 2    
    53   25   27 1    
    54   27   28 1    
    55   27   29 1    
    56   27  150 1    
    57   28  151 1    
    58   28  152 1    
    59   28  153 1    
    60   29   30 am   BACKBONE|DICT|INTERRES
    61   29  154 1    
    62   30   31 2    
    63   30   32 1    
    64   32   33 1    
    65   32   34 1    
    66   32  155 1    
    67   33  156 1    
    68   33  157 1    
    69   33  158 1    
    70   34   35 am   BACKBONE|DICT|INTERRES
    71   34  159 1    
    72   35   36 2    
    73   35   37 1    
    74   37   38 1    
    75   37   39 1    
    76   37  160 1    
    77   38  161 1    
    78   38  162 1    
    79   38  163 1    
    80   39   40 am   BACKBONE|DICT|INTERRES
    81   39  164 1    
    82   40   41 2    
    83   40   42 1    
    84   42   43 1    
    85   42   44 1    
    86   42  165 1    
    87   43  166 1    
    88   43  167 1    
    89   43  168 1    
    90   44   45 am   BACKBONE|DICT|INTERRES
    91   44  169 1    
    92   45   46 2    
    93   45   47 1    
    94   47   48 1    
    95   47   49 1    
    96   47  170 1    
    97   48  171 1    
    98   48  172 1    
    99   48  173 1    
   100   49   50 am   BACKBONE|DICT|INTERRES
   101   49  174 1    
   102   50   51 2    
   103   50   52 1    
   104   52   53 1    
   105   52   54 1    
   106   52  175 1    
   107   53  176 1    
   108   53  177 1    
   109   53  178 1    
   110   54   55 am   BACKBONE|DICT|INTERRES
   111   54  179 1    
   112   55   56 2    
   113   55   57 1    
   114   57   58 1    
   115   57   59 1    
   116   57  180 1    
   117   58  181 1    
   118   58  182 1    
   119   58  183 1    
   120   59   60 am   BACKBONE|DICT|INTERRES
   121   59  184 1    
   122   60   61 2    
   123   60   62 1    
   124   62   63 1    
   125   62   64 1    
   126   62  185 1    
   127   63  186 1    
   128   63  187 1    
   129   63  188 1    
   130   64   65 am   BACKBONE|DICT|INTERRES
   131   64  189 1    
   132   65   66 2    
   133   67   68 2    
   134   67   69 am   BACKBONE|DICT|INTERRES
   135   69   70 1    
   136   69  190 1    
   137   70   71 1    
   138   70   72 1    
   139   70  191 1    
   140   71  192 1    
   141   71  193 1    
   142   71  194 1    
   143   72   73 2    
   144   72   74 am   BACKBONE|DICT|INTERRES
   145   74   75 1    
   146   74  195 1    
   147   75   76 1    
   148   75   77 1    
   149   75  196 1    
   150   76  197 1    
   151   76  198 1    
   152   76  199 1    
   153   77   78 2    
   154   77   79 am   BACKBONE|DICT|INTERRES
   155   79   80 1    
   156   79  200 1    
   157   80   81 1    
   158   80   82 1    
   159   80  201 1    
   160   81  202 1    
   161   81  203 1    
   162   81  204 1    
   163   82   83 2    
   164   82   84 am   BACKBONE|DICT|INTERRES
   165   84   85 1    
   166   84  205 1    
   167   85   86 1    
   168   85   87 1    
   169   85  206 1    
   170   86  207 1    
   171   86  208 1    
   172   86  209 1    
   173   87   88 2    
   174   87   89 am   BACKBONE|DICT|INTERRES
   175   89   90 1    
   176   89  210 1    
   177   90   91 1    
   178   90   92 1    
   179   90  211 1    
   180   91  212 1    
   181   91  213 1    
   182   91  214 1    
   183   92   93 2    
   184   92   94 am   BACKBONE|DICT|INTERRES
   185   94   95 1    
   186   94  215 1    
   187   95   96 1    
   188   95   97 1    
   189   95  216 1    
   190   96  217 1    
   191   96  218 1    
   192   96  219 1    
   193   97   98 2    
   194   97   99 am   BACKBONE|DICT|INTERRES
   195   99  100 1    
   196   99  220 1    
   197  100  101 1    
   198  100  102 1    
   199  100  221 1    
   200  101  222 1    
   201  101  223 1    
   202  101  224 1    
   203  102  103 2    
   204  102  104 am   BACKBONE|DICT|INTERRES
   205  104  105 1    
   206  104  225 1    
   207  105  106 1    
   208  105  107 1    
   209  105  226 1    
   210  106  227 1    
   211  106  228 1    
   212  106  229 1    
   213  107  108 2    
   214  107  109 am   BACKBONE|DICT|INTERRES
   215  109  110 1    
   216  109  230 1    
   217  110  111 1    
   218  110  112 1    
   219  110  231 1    
   220  111  232 1    
   221  111  233 1    
   222  111  234 1    
   223  112  113 2    
   224  112  114 am   BACKBONE|DICT|INTERRES
   225  114  115 1    
   226  114  235 1    
   227  115  116 1    
   228  115  117 1    
   229  115  236 1    
   230  116  237 1    
   231  116  238 1    
   232  116  239 1    
   233  117  118 2    
   234  117  119 am   BACKBONE|DICT|INTERRES
   235  119  120 1    
   236  119  240 1    
   237  120  121 1    
   238  120  124 1    
   239  120  241 1    
   240  121  122 am   BACKBONE|DICT|INTERRES
   241  121  123 2    
   242  122  242 1    
   243  122  243 1    
   244  124  125 1    
   245  124  244 1    
   246  124  245 1    
   247  125  126 1    
   248  126  246 1    
   249  126  247 1    
@<TRIPOS>SUBSTRUCTURE
     1 UNK         1 GROUP             0       ****    0 ROOT    
