@<TRIPOS>MOLECULE
3R540
247   249    1
SMALL
USER_CHARGES


@<TRIPOS>ATOM
      1 CA          5.9890  -14.7310  -44.4825 C.3       0 UNK        -0.1800 
      2 C           4.5741  -14.2021  -44.6635 C.2       0 UNK         0.5000 
      3 O           3.6810  -14.5590  -43.8959 O.2       0 UNK        -0.5000 
      4 N           4.3730  -13.3633  -45.6855 N.am      1 UNK        -0.5000 
      5 CA          3.1102  -12.6640  -45.9586 C.3       1 UNK         0.1400 
      6 C6          2.6218  -12.8855  -47.4122 C.3       23 UNK        -0.0398 
      7 S7          1.9696  -14.5716  -47.6550 S.3       23 UNK        -0.2404 
      8 C8          3.0069  -15.1966  -49.0168 C.3       23 UNK        -0.0205 
      9 C9          2.3911  -16.4217  -49.6834 C.ar      23 UNK        -0.0193 
     10 C10         1.1892  -16.2929  -50.3854 C.ar      23 UNK        -0.1150 
     11 C11         0.6141  -17.3930  -51.0252 C.ar      23 UNK        -0.0193 
     12 C12         1.2627  -18.6295  -50.9828 C.ar      23 UNK        -0.1150 
     13 C13         2.4763  -18.7724  -50.3038 C.ar      23 UNK        -0.0193 
     14 C14         3.0295  -17.6676  -49.6434 C.ar      23 UNK        -0.1150 
     15 C15         3.2165  -20.1041  -50.3464 C.3       23 UNK        -0.0205 
     16 S16         2.8855  -21.1597  -48.9013 S.3       23 UNK        -0.2404 
     17 C17         1.1463  -21.6505  -49.1658 C.3       23 UNK        -0.0398 
     18 CA          0.6873  -22.7311  -48.1550 C.3       11 UNK         0.1400 
     19 N           0.6522  -22.2357  -46.7758 N.am      11 UNK        -0.5000 
     20 C           0.4667  -22.9922  -45.6861 C.2       10 UNK         0.5000 
     21 O           0.3360  -24.2150  -45.7214 O.2       10 UNK        -0.5000 
     22 CA          0.3643  -22.2605  -44.3339 C.3       10 UNK         0.1400 
     23 CB          1.7545  -21.8857  -43.7993 C.3       10 UNK        -0.1800 
     24 N          -0.4828  -21.0680  -44.4000 N.am      10 UNK        -0.5000 
     25 C          -1.8020  -21.0936  -44.6395 C.2       9 UNK         0.5000 
     26 O          -2.4478  -22.1302  -44.7899 O.2       9 UNK        -0.5000 
     27 CA         -2.5137  -19.7357  -44.7846 C.3       9 UNK         0.1400 
     28 CB         -2.8412  -19.1307  -43.4116 C.3       9 UNK        -0.1800 
     29 N          -1.7355  -18.7796  -45.5696 N.am      9 UNK        -0.5000 
     30 C          -1.4212  -18.9421  -46.8629 C.2       8 UNK         0.5000 
     31 O          -1.8019  -19.8877  -47.5522 O.2       8 UNK        -0.5000 
     32 CA         -0.4716  -17.8981  -47.4698 C.3       8 UNK         0.1400 
     33 CB         -1.2583  -16.6410  -47.8669 C.3       8 UNK        -0.1800 
     34 N           0.6304  -17.5568  -46.5643 N.am      8 UNK        -0.5000 
     35 C           1.5444  -18.4438  -46.1423 C.2       7 UNK         0.5000 
     36 O           1.5372  -19.6251  -46.4693 O.2       7 UNK        -0.5000 
     37 CA          2.6029  -17.9747  -45.1327 C.3       7 UNK         0.1400 
     38 CB          3.8466  -17.4304  -45.8454 C.3       7 UNK        -0.1800 
     39 N           2.0778  -17.0065  -44.1702 N.am      7 UNK        -0.5000 
     40 C           1.1445  -17.3157  -43.2582 C.2       6 UNK         0.5000 
     41 O           0.6763  -18.4471  -43.1179 O.2       6 UNK        -0.5000 
     42 CA          0.6093  -16.1635  -42.3928 C.3       6 UNK         0.1400 
     43 CB          1.5757  -15.8340  -41.2455 C.3       6 UNK        -0.1800 
     44 N           0.3338  -14.9525  -43.1658 N.am      6 UNK        -0.5000 
     45 C          -0.6053  -14.8389  -44.1133 C.2       5 UNK         0.5000 
     46 O          -1.3159  -15.7805  -44.4716 O.2       5 UNK        -0.5000 
     47 CA         -0.7891  -13.4381  -44.7438 C.3       5 UNK         0.1400 
     48 CB         -1.9928  -13.3638  -45.6991 C.3       5 UNK        -0.1800 
     49 N          -0.9302  -12.3728  -43.7456 N.am      5 UNK        -0.5000 
     50 C           0.0664  -11.8235  -43.0425 C.2       4 UNK         0.5000 
     51 O           1.2341  -12.2130  -43.0981 O.2       4 UNK        -0.5000 
     52 CA         -0.3031  -10.6708  -42.1018 C.3       4 UNK         0.1400 
     53 CB         -0.6465  -11.1925  -40.6967 C.3       4 UNK        -0.1800 
     54 N           0.8348   -9.7631  -42.0282 N.am      4 UNK        -0.5000 
     55 C           0.7801   -8.4404  -41.8540 C.2       3 UNK         0.5000 
     56 O          -0.2693   -7.8276  -41.6521 O.2       3 UNK        -0.5000 
     57 CA          2.1038   -7.6511  -41.9472 C.3       3 UNK         0.1400 
     58 CB          2.8260   -7.6077  -40.5864 C.3       3 UNK        -0.1800 
     59 N           3.0036   -8.0807  -43.0307 N.am      3 UNK        -0.5000 
     60 C           3.6886   -9.2258  -43.1500 C.2       2 UNK         0.5000 
     61 O           3.6873  -10.1235  -42.3051 O.2       2 UNK        -0.5000 
     62 CA          4.5150   -9.4010  -44.4368 C.3       2 UNK         0.1400 
     63 CB          6.0091   -9.1766  -44.1584 C.3       2 UNK        -0.1800 
     64 N           4.3260  -10.7421  -44.9865 N.am      2 UNK        -0.5000 
     65 C           3.2097  -11.1632  -45.5992 C.2       1 UNK         0.5000 
     66 O           2.2724  -10.4109  -45.8718 O.2       1 UNK        -0.5000 
     67 C          -0.6636  -23.3495  -48.5693 C.2       11 UNK         0.5000 
     68 O          -0.6724  -24.4311  -49.1571 O.2       11 UNK        -0.5000 
     69 N          -1.7783  -22.6929  -48.2136 N.am      12 UNK        -0.5000 
     70 CA         -3.1350  -23.2034  -48.4181 C.3       12 UNK         0.1400 
     71 CB         -4.1635  -22.1175  -48.0715 C.3       12 UNK        -0.1800 
     72 C          -3.4121  -24.4897  -47.6203 C.2       12 UNK         0.5000 
     73 O          -4.0071  -25.4176  -48.1647 O.2       12 UNK        -0.5000 
     74 N          -2.9493  -24.5452  -46.3631 N.am      13 UNK        -0.5000 
     75 CA         -3.0401  -25.7279  -45.5051 C.3       13 UNK         0.1400 
     76 CB         -2.6249  -25.3693  -44.0706 C.3       13 UNK        -0.1800 
     77 C          -2.2151  -26.9134  -46.0389 C.2       13 UNK         0.5000 
     78 O          -2.7081  -28.0412  -46.0301 O.2       13 UNK        -0.5000 
     79 N          -0.9999  -26.6364  -46.5332 N.am      14 UNK        -0.5000 
     80 CA         -0.1116  -27.6141  -47.1670 C.3       14 UNK         0.1400 
     81 CB          1.2709  -26.9830  -47.3909 C.3       14 UNK        -0.1800 
     82 C          -0.6788  -28.1719  -48.4865 C.2       14 UNK         0.5000 
     83 O          -0.5615  -29.3712  -48.7403 O.2       14 UNK        -0.5000 
     84 N          -1.3130  -27.3015  -49.2839 N.am      15 UNK        -0.5000 
     85 CA         -2.0275  -27.6560  -50.5134 C.3       15 UNK         0.1400 
     86 CB         -2.2198  -26.3834  -51.3524 C.3       15 UNK        -0.1800 
     87 C          -3.3855  -28.3464  -50.2606 C.2       15 UNK         0.5000 
     88 O          -3.9511  -28.9175  -51.1935 O.2       15 UNK        -0.5000 
     89 N          -3.8825  -28.2682  -49.0175 N.am      16 UNK        -0.5000 
     90 CA         -5.1714  -28.7555  -48.5145 C.3       16 UNK         0.1400 
     91 CB         -5.2813  -30.2882  -48.6523 C.3       16 UNK        -0.1800 
     92 C          -6.3914  -28.0090  -49.0987 C.2       16 UNK         0.5000 
     93 O          -7.5089  -28.5246  -49.0338 O.2       16 UNK        -0.5000 
     94 N          -6.1650  -26.8010  -49.6267 N.am      17 UNK        -0.5000 
     95 CA         -7.1430  -25.8917  -50.2124 C.3       17 UNK         0.1400 
     96 CB         -7.7953  -26.5036  -51.4692 C.3       17 UNK        -0.1800 
     97 C          -6.4220  -24.5937  -50.5947 C.2       17 UNK         0.5000 
     98 O          -5.2773  -24.6403  -51.0510 O.2       17 UNK        -0.5000 
     99 N          -7.1207  -23.4593  -50.4778 N.am      18 UNK        -0.5000 
    100 CA        -6.6753  -22.1553  -50.9737 C.3       18 UNK         0.1400 
    101 CB        -7.3423  -21.0468  -50.1393 C.3       18 UNK        -0.1800 
    102 C         -6.9823  -22.0350  -52.4804 C.2       18 UNK         0.5000 
    103 O         -7.8182  -21.2218  -52.8805 O.2       18 UNK        -0.5000 
    104 N         -6.3368  -22.8970  -53.2783 N.am      19 UNK        -0.5000 
    105 CA        -6.5137  -23.0585  -54.7225 C.3       19 UNK         0.1400 
    106 CB        -5.5622  -24.1589  -55.2187 C.3       19 UNK        -0.1800 
    107 C         -6.2961  -21.7411  -55.4883 C.2       19 UNK         0.5000 
    108 O         -5.1604  -21.2702  -55.5820 O.2       19 UNK        -0.5000 
    109 N         -7.4031  -21.1474  -55.9606 N.am      20 UNK        -0.5000 
    110 CA        -7.4964  -19.8333  -56.6121 C.3       20 UNK         0.1400 
    111 CB        -6.8560  -19.8836  -58.0149 C.3       20 UNK        -0.1800 
    112 C         -6.9383  -18.6828  -55.7427 C.2       20 UNK         0.5000 
    113 O         -6.3826  -17.7216  -56.2769 O.2       20 UNK        -0.5000 
    114 N         -7.0425  -18.8353  -54.4130 N.am      21 UNK        -0.5000 
    115 CA        -6.4562  -18.0306  -53.3331 C.3       21 UNK         0.1400 
    116 CB        -6.9369  -16.5679  -53.3813 C.3       21 UNK        -0.1800 
    117 C         -4.9173  -18.1139  -53.2473 C.2       21 UNK         0.5000 
    118 O         -4.3813  -18.2166  -52.1438 O.2       21 UNK        -0.5000 
    119 N         -4.2365  -18.0761  -54.3957 N.am      22 UNK        -0.5000 
    120 CA        -2.7784  -18.1193  -54.5453 C.3       22 UNK         0.1400 
    121 C         -2.3613  -18.6468  -55.9506 C.2       22 UNK         0.5000 
    122 N         -3.0834  -19.5956  -56.5338 N.am      22 UNK        -0.7600 
    123 O         -1.3820  -18.1956  -56.5382 O.2       22 UNK        -0.5000 
    124 C124       -2.1208  -16.7673  -54.1433 C.3       23 UNK        -0.0398 
    125 S125       -0.4099  -16.9588  -53.5420 S.3       23 UNK        -0.2404 
    126 C126       -0.7010  -17.2420  -51.7703 C.3       23 UNK        -0.0205 
    127 H127        6.4712  -14.9033  -45.4450 H         1 UNK         0.0600 
    128 H128        5.9803  -15.6731  -43.9345 H         1 UNK         0.0600 
    129 H129        6.5869  -14.0166  -43.9169 H         1 UNK         0.0600 
    130 H130        5.1429  -13.1327  -46.2983 H         1 UNK         0.3000 
    131 H131        2.3355  -13.0501  -45.2982 H         1 UNK         0.0600 
    132 H132        3.4209  -12.6742  -48.1239 H         1 UNK         0.0800 
    133 H133        1.8057  -12.2061  -47.6639 H         1 UNK         0.0800 
    134 H134        3.1269  -14.4180  -49.7713 H         1 UNK         0.0800 
    135 H135        4.0046  -15.4180  -48.6351 H         1 UNK         0.0800 
    136 H136        0.6979  -15.3308  -50.4278 H         1 UNK         0.1150 
    137 H137        0.8312  -19.4760  -51.4981 H         1 UNK         0.1150 
    138 H138        3.9696  -17.7741  -49.1212 H         1 UNK         0.1150 
    139 H139        2.9664  -20.6497  -51.2576 H         1 UNK         0.0800 
    140 H140        4.2899  -19.9162  -50.3972 H         1 UNK         0.0800 
    141 H141        1.0546  -22.0181  -50.1895 H         1 UNK         0.0800 
    142 H142        0.5126  -20.7653  -49.0922 H         1 UNK         0.0800 
    143 H143        1.4193  -23.5412  -48.1824 H         1 UNK         0.0600 
    144 H144        0.8285  -21.2386  -46.6553 H         1 UNK         0.3000 
    145 H145       -0.0924  -22.9489  -43.6199 H         1 UNK         0.0600 
    146 H146        1.6850  -21.3849  -42.8335 H         1 UNK         0.0600 
    147 H147        2.3694  -22.7760  -43.6625 H         1 UNK         0.0600 
    148 H148        2.2873  -21.2245  -44.4817 H         1 UNK         0.0600 
    149 H149       -0.0271  -20.1717  -44.2741 H         1 UNK         0.3000 
    150 H150       -3.4546  -19.9091  -45.3108 H         1 UNK         0.0600 
    151 H151       -3.4580  -19.8115  -42.8236 H         1 UNK         0.0600 
    152 H152       -3.3935  -18.1964  -43.5146 H         1 UNK         0.0600 
    153 H153       -1.9402  -18.9231  -42.8343 H         1 UNK         0.0600 
    154 H154       -1.3853  -17.9615  -45.0850 H         1 UNK         0.3000 
    155 H155       -0.0312  -18.3278  -48.3705 H         1 UNK         0.0600 
    156 H156       -0.6055  -15.8472  -48.2245 H         1 UNK         0.0600 
    157 H157       -1.9616  -16.8675  -48.6690 H         1 UNK         0.0600 
    158 H158       -1.8380  -16.2521  -47.0314 H         1 UNK         0.0600 
    159 H159        0.6872  -16.6022  -46.2431 H         1 UNK         0.3000 
    160 H160        2.9182  -18.8556  -44.5697 H         1 UNK         0.0600 
    161 H161        3.6477  -16.4845  -46.3437 H         1 UNK         0.0600 
    162 H162        4.2010  -18.1319  -46.6019 H         1 UNK         0.0600 
    163 H163        4.6629  -17.2803  -45.1409 H         1 UNK         0.0600 
    164 H164        2.4595  -16.0647  -44.1900 H         1 UNK         0.3000 
    165 H165       -0.3335  -16.4958  -41.9530 H         1 UNK         0.0600 
    166 H166        1.1558  -15.0771  -40.5827 H         1 UNK         0.0600 
    167 H167        1.7805  -16.7188  -40.6415 H         1 UNK         0.0600 
    168 H168        2.5308  -15.4604  -41.6157 H         1 UNK         0.0600 
    169 H169        0.8981  -14.1330  -42.9592 H         1 UNK         0.3000 
    170 H170        0.1008  -13.2369  -45.3397 H         1 UNK         0.0600 
    171 H171       -1.8616  -14.0354  -46.5459 H         1 UNK         0.0600 
    172 H172       -2.9238  -13.6344  -45.1994 H         1 UNK         0.0600 
    173 H173       -2.1107  -12.3605  -46.1089 H         1 UNK         0.0600 
    174 H174       -1.8689  -12.0287  -43.6029 H         1 UNK         0.3000 
    175 H175       -1.1651  -10.1455  -42.5184 H         1 UNK         0.0600 
    176 H176       -1.4898  -11.8833  -40.7306 H         1 UNK         0.0600 
    177 H177        0.1957  -11.7221  -40.2494 H         1 UNK         0.0600 
    178 H178       -0.9213  -10.3760  -40.0288 H         1 UNK         0.0600 
    179 H179        1.7401  -10.1947  -42.2032 H         1 UNK         0.3000 
    180 H180        1.8295   -6.6244  -42.1949 H         1 UNK         0.0600 
    181 H181        3.1001   -8.6025  -40.2349 H         1 UNK         0.0600 
    182 H182        2.1864   -7.1617  -39.8239 H         1 UNK         0.0600 
    183 H183        3.7343   -7.0076  -40.6403 H         1 UNK         0.0600 
    184 H184        3.0608   -7.4279  -43.8004 H         1 UNK         0.3000 
    185 H185        4.1887   -8.6695  -45.1793 H         1 UNK         0.0600 
    186 H186        6.1857   -8.1752  -43.7638 H         1 UNK         0.0600 
    187 H187        6.3951   -9.8896  -43.4286 H         1 UNK         0.0600 
    188 H188        6.5996   -9.2754  -45.0695 H         1 UNK         0.0600 
    189 H189        5.0201  -11.4312  -44.7392 H         1 UNK         0.3000 
    190 H190       -1.6989  -21.7803  -47.7718 H         1 UNK         0.3000 
    191 H191       -3.2441  -23.4441  -49.4776 H         1 UNK         0.0600 
    192 H192       -4.0654  -21.7842  -47.0382 H         1 UNK         0.0600 
    193 H193       -5.1803  -22.4895  -48.2014 H         1 UNK         0.0600 
    194 H194       -4.0493  -21.2462  -48.7166 H         1 UNK         0.0600 
    195 H195       -2.5205  -23.7189  -45.9572 H         1 UNK         0.3000 
    196 H196       -4.0865  -26.0396  -45.4822 H         1 UNK         0.0600 
    197 H197       -2.7074  -26.2350  -43.4124 H         1 UNK         0.0600 
    198 H198       -3.2637  -24.5871  -43.6601 H         1 UNK         0.0600 
    199 H199       -1.5945  -25.0180  -44.0228 H         1 UNK         0.0600 
    200 H200       -0.6431  -25.6883  -46.4444 H         1 UNK         0.3000 
    201 H201        0.0068  -28.4522  -46.4772 H         1 UNK         0.0600 
    202 H202        1.7103  -26.6531  -46.4494 H         1 UNK         0.0600 
    203 H203        1.2172  -26.1198  -48.0545 H         1 UNK         0.0600 
    204 H204        1.9601  -27.7000  -47.8387 H         1 UNK         0.0600 
    205 H205       -1.3012  -26.3160  -49.0373 H         1 UNK         0.3000 
    206 H206       -1.4105  -28.3514  -51.0859 H         1 UNK         0.0600 
    207 H207       -1.2609  -25.9431  -51.6258 H         1 UNK         0.0600 
    208 H208       -2.7576  -26.5950  -52.2774 H         1 UNK         0.0600 
    209 H209       -2.7881  -25.6295  -50.8073 H         1 UNK         0.0600 
    210 H210       -3.3428  -27.7385  -48.3456 H         1 UNK         0.3000 
    211 H211       -5.1719  -28.5256  -47.4483 H         1 UNK         0.0600 
    212 H212       -5.3762  -30.5972  -49.6934 H         1 UNK         0.0600 
    213 H213       -6.1546  -30.6669  -48.1203 H         1 UNK         0.0600 
    214 H214       -4.4069  -30.7849  -48.2315 H         1 UNK         0.0600 
    215 H215       -5.2248  -26.4193  -49.5695 H         1 UNK         0.3000 
    216 H216       -7.9080  -25.6731  -49.4651 H         1 UNK         0.0600 
    217 H217       -7.0444  -26.8109  -52.1985 H         1 UNK         0.0600 
    218 H218       -8.4527  -25.7844  -51.9595 H         1 UNK         0.0600 
    219 H219       -8.4035  -27.3748  -51.2280 H         1 UNK         0.0600 
    220 H220       -8.0703  -23.5023  -50.1362 H         1 UNK         0.3000 
    221 H221       -5.5945  -22.0613  -50.8470 H         1 UNK         0.0600 
    222 H222       -7.0907  -21.1415  -49.0831 H         1 UNK         0.0600 
    223 H223       -8.4292  -21.0715  -50.2267 H         1 UNK         0.0600 
    224 H224       -7.0073  -20.0609  -50.4632 H         1 UNK         0.0600 
    225 H225       -5.6845  -23.5336  -52.8353 H         1 UNK         0.3000 
    226 H226       -7.5370  -23.3989  -54.8926 H         1 UNK         0.0600 
    227 H227       -5.7727  -25.1115  -54.7318 H         1 UNK         0.0600 
    228 H228       -5.6687  -24.3119  -56.2933 H         1 UNK         0.0600 
    229 H229       -4.5187  -23.9073  -55.0241 H         1 UNK         0.0600 
    230 H230       -8.2897  -21.6007  -55.7866 H         1 UNK         0.3000 
    231 H231       -8.5597  -19.6263  -56.7401 H         1 UNK         0.0600 
    232 H232       -5.7766  -20.0284  -57.9625 H         1 UNK         0.0600 
    233 H233       -7.0351  -18.9571  -58.5616 H         1 UNK         0.0600 
    234 H234       -7.2743  -20.6950  -58.6102 H         1 UNK         0.0600 
    235 H235       -7.4791  -19.6929  -54.0854 H         1 UNK         0.3000 
    236 H236       -6.8410  -18.4663  -52.4100 H         1 UNK         0.0600 
    237 H237       -6.5950  -16.0203  -52.5023 H         1 UNK         0.0600 
    238 H238       -6.5596  -16.0397  -54.2571 H         1 UNK         0.0600 
    239 H239       -8.0253  -16.5109  -53.3969 H         1 UNK         0.0600 
    240 H240       -4.7657  -17.9858  -55.2587 H         1 UNK         0.3000 
    241 H241       -2.4218  -18.8835  -53.8525 H         1 UNK         0.0600 
    242 H242       -2.8045  -19.9233  -57.4443 H         1 UNK         0.3800 
    243 H243       -3.8581  -20.0580  -56.0608 H         1 UNK         0.3800 
    244 H244       -2.6931  -16.2748  -53.3564 H         1 UNK         0.0800 
    245 H245       -2.1277  -16.0691  -54.9817 H         1 UNK         0.0800 
    246 H246       -1.3108  -18.1370  -51.6357 H         1 UNK         0.0800 
    247 H247       -1.2752  -16.4122  -51.3550 H         1 UNK         0.0800 
@<TRIPOS>BOND
     1    1    2 1    
     2    1  127 1    
     3    1  128 1    
     4    1  129 1    
     5    2    3 2    
     6    2    4 am   BACKBONE|DICT|INTERRES
     7    4    5 1    
     8    4  130 1    
     9    5    6 1    
    10    5   65 1    
    11    5  131 1    
    12    6    7 1    
    13    6  132 1    
    14    6  133 1    
    15    7    8 1    
    16    8    9 1    
    17    8  134 1    
    18    8  135 1    
    19    9   10 ar   
    20    9   14 ar   
    21   10   11 ar   
    22   10  136 1    
    23   11   12 ar   
    24   11  126 1    
    25   12   13 ar   
    26   12  137 1    
    27   13   14 ar   
    28   13   15 1    
    29   14  138 1    
    30   15   16 1    
    31   15  139 1    
    32   15  140 1    
    33   16   17 1    
    34   17   18 1    
    35   17  141 1    
    36   17  142 1    
    37   18   19 1    
    38   18   67 1    
    39   18  143 1    
    40   19   20 am   BACKBONE|DICT|INTERRES
    41   19  144 1    
    42   20   21 2    
    43   20   22 1    
    44   22   23 1    
    45   22   24 1    
    46   22  145 1    
    47   23  146 1    
    48   23  147 1    
    49   23  148 1    
    50   24   25 am   BACKBONE|DICT|INTERRES
    51   24  149 1    
    52   25   26 2    
    53   25   27 1    
    54   27   28 1    
    55   27   29 1    
    56   27  150 1    
    57   28  151 1    
    58   28  152 1    
    59   28  153 1    
    60   29   30 am   BACKBONE|DICT|INTERRES
    61   29  154 1    
    62   30   31 2    
    63   30   32 1    
    64   32   33 1    
    65   32   34 1    
    66   32  155 1    
    67   33  156 1    
    68   33  157 1    
    69   33  158 1    
    70   34   35 am   BACKBONE|DICT|INTERRES
    71   34  159 1    
    72   35   36 2    
    73   35   37 1    
    74   37   38 1    
    75   37   39 1    
    76   37  160 1    
    77   38  161 1    
    78   38  162 1    
    79   38  163 1    
    80   39   40 am   BACKBONE|DICT|INTERRES
    81   39  164 1    
    82   40   41 2    
    83   40   42 1    
    84   42   43 1    
    85   42   44 1    
    86   42  165 1    
    87   43  166 1    
    88   43  167 1    
    89   43  168 1    
    90   44   45 am   BACKBONE|DICT|INTERRES
    91   44  169 1    
    92   45   46 2    
    93   45   47 1    
    94   47   48 1    
    95   47   49 1    
    96   47  170 1    
    97   48  171 1    
    98   48  172 1    
    99   48  173 1    
   100   49   50 am   BACKBONE|DICT|INTERRES
   101   49  174 1    
   102   50   51 2    
   103   50   52 1    
   104   52   53 1    
   105   52   54 1    
   106   52  175 1    
   107   53  176 1    
   108   53  177 1    
   109   53  178 1    
   110   54   55 am   BACKBONE|DICT|INTERRES
   111   54  179 1    
   112   55   56 2    
   113   55   57 1    
   114   57   58 1    
   115   57   59 1    
   116   57  180 1    
   117   58  181 1    
   118   58  182 1    
   119   58  183 1    
   120   59   60 am   BACKBONE|DICT|INTERRES
   121   59  184 1    
   122   60   61 2    
   123   60   62 1    
   124   62   63 1    
   125   62   64 1    
   126   62  185 1    
   127   63  186 1    
   128   63  187 1    
   129   63  188 1    
   130   64   65 am   BACKBONE|DICT|INTERRES
   131   64  189 1    
   132   65   66 2    
   133   67   68 2    
   134   67   69 am   BACKBONE|DICT|INTERRES
   135   69   70 1    
   136   69  190 1    
   137   70   71 1    
   138   70   72 1    
   139   70  191 1    
   140   71  192 1    
   141   71  193 1    
   142   71  194 1    
   143   72   73 2    
   144   72   74 am   BACKBONE|DICT|INTERRES
   145   74   75 1    
   146   74  195 1    
   147   75   76 1    
   148   75   77 1    
   149   75  196 1    
   150   76  197 1    
   151   76  198 1    
   152   76  199 1    
   153   77   78 2    
   154   77   79 am   BACKBONE|DICT|INTERRES
   155   79   80 1    
   156   79  200 1    
   157   80   81 1    
   158   80   82 1    
   159   80  201 1    
   160   81  202 1    
   161   81  203 1    
   162   81  204 1    
   163   82   83 2    
   164   82   84 am   BACKBONE|DICT|INTERRES
   165   84   85 1    
   166   84  205 1    
   167   85   86 1    
   168   85   87 1    
   169   85  206 1    
   170   86  207 1    
   171   86  208 1    
   172   86  209 1    
   173   87   88 2    
   174   87   89 am   BACKBONE|DICT|INTERRES
   175   89   90 1    
   176   89  210 1    
   177   90   91 1    
   178   90   92 1    
   179   90  211 1    
   180   91  212 1    
   181   91  213 1    
   182   91  214 1    
   183   92   93 2    
   184   92   94 am   BACKBONE|DICT|INTERRES
   185   94   95 1    
   186   94  215 1    
   187   95   96 1    
   188   95   97 1    
   189   95  216 1    
   190   96  217 1    
   191   96  218 1    
   192   96  219 1    
   193   97   98 2    
   194   97   99 am   BACKBONE|DICT|INTERRES
   195   99  100 1    
   196   99  220 1    
   197  100  101 1    
   198  100  102 1    
   199  100  221 1    
   200  101  222 1    
   201  101  223 1    
   202  101  224 1    
   203  102  103 2    
   204  102  104 am   BACKBONE|DICT|INTERRES
   205  104  105 1    
   206  104  225 1    
   207  105  106 1    
   208  105  107 1    
   209  105  226 1    
   210  106  227 1    
   211  106  228 1    
   212  106  229 1    
   213  107  108 2    
   214  107  109 am   BACKBONE|DICT|INTERRES
   215  109  110 1    
   216  109  230 1    
   217  110  111 1    
   218  110  112 1    
   219  110  231 1    
   220  111  232 1    
   221  111  233 1    
   222  111  234 1    
   223  112  113 2    
   224  112  114 am   BACKBONE|DICT|INTERRES
   225  114  115 1    
   226  114  235 1    
   227  115  116 1    
   228  115  117 1    
   229  115  236 1    
   230  116  237 1    
   231  116  238 1    
   232  116  239 1    
   233  117  118 2    
   234  117  119 am   BACKBONE|DICT|INTERRES
   235  119  120 1    
   236  119  240 1    
   237  120  121 1    
   238  120  124 1    
   239  120  241 1    
   240  121  122 am   BACKBONE|DICT|INTERRES
   241  121  123 2    
   242  122  242 1    
   243  122  243 1    
   244  124  125 1    
   245  124  244 1    
   246  124  245 1    
   247  125  126 1    
   248  126  246 1    
   249  126  247 1    
@<TRIPOS>SUBSTRUCTURE
     1 UNK         1 GROUP             0       ****    0 ROOT    
