@<TRIPOS>MOLECULE
3R540
247   249    1
SMALL
USER_CHARGES


@<TRIPOS>ATOM
      1 CA          5.6110   -9.0066  -49.4280 C.3       0 UNK        -0.1800 
      2 C           5.7619   -9.9524  -48.2446 C.2       0 UNK         0.5000 
      3 O           6.7161   -9.8252  -47.4763 O.2       0 UNK        -0.5000 
      4 N           4.8318  -10.9039  -48.1019 N.am      1 UNK        -0.5000 
      5 CA          4.7823  -11.8737  -47.0033 C.3       1 UNK         0.1400 
      6 C6          3.7742  -13.0103  -47.2830 C.3       23 UNK        -0.0398 
      7 S7          4.1084  -13.9702  -48.7961 S.3       23 UNK        -0.2404 
      8 C8          2.7968  -15.2083  -48.5907 C.3       23 UNK        -0.0205 
      9 C9          2.6676  -16.1488  -49.7736 C.ar      23 UNK        -0.0193 
     10 C10         1.7689  -15.8586  -50.8042 C.ar      23 UNK        -0.1150 
     11 C11         1.5700  -16.7693  -51.8447 C.ar      23 UNK        -0.0193 
     12 C12         2.2848  -17.9692  -51.8566 C.ar      23 UNK        -0.1150 
     13 C13         3.1806  -18.2708  -50.8283 C.ar      23 UNK        -0.0193 
     14 C14         3.3813  -17.3497  -49.7969 C.ar      23 UNK        -0.1150 
     15 C15         3.8827  -19.6188  -50.8028 C.3       23 UNK        -0.0205 
     16 S16         3.1930  -20.7129  -49.5193 S.3       23 UNK        -0.2404 
     17 C17         1.4090  -20.6876  -49.9161 C.3       23 UNK        -0.0398 
     18 CA          0.6268  -21.8127  -49.2000 C.3       11 UNK         0.1400 
     19 N           0.7990  -21.7318  -47.7463 N.am      11 UNK        -0.5000 
     20 C           0.3830  -22.6194  -46.8363 C.2       10 UNK         0.5000 
     21 O          -0.2280  -23.6487  -47.1214 O.2       10 UNK        -0.5000 
     22 CA          0.6157  -22.2640  -45.3551 C.3       10 UNK         0.1400 
     23 CB          1.1320  -23.4612  -44.5335 C.3       10 UNK        -0.1800 
     24 N           1.4209  -21.0587  -45.1357 N.am      10 UNK        -0.5000 
     25 C           2.7349  -20.8702  -45.3240 C.2       9 UNK         0.5000 
     26 O           3.5065  -21.7356  -45.7359 O.2       9 UNK        -0.5000 
     27 CA          3.2719  -19.4574  -45.0108 C.3       9 UNK         0.1400 
     28 CB          3.5415  -18.6857  -46.3117 C.3       9 UNK        -0.1800 
     29 N           2.3574  -18.6675  -44.1814 N.am      9 UNK        -0.5000 
     30 C           2.1209  -18.8802  -42.8793 C.2       8 UNK         0.5000 
     31 O           2.7068  -19.7267  -42.2043 O.2       8 UNK        -0.5000 
     32 CA          1.0101  -18.0301  -42.2415 C.3       8 UNK         0.1400 
     33 CB          1.5388  -16.6375  -41.8619 C.3       8 UNK        -0.1800 
     34 N          -0.1487  -17.9023  -43.1306 N.am      8 UNK        -0.5000 
     35 C          -1.0905  -18.8453  -43.2887 C.2       7 UNK         0.5000 
     36 O          -1.0958  -19.9112  -42.6745 O.2       7 UNK        -0.5000 
     37 CA         -2.1984  -18.5744  -44.3253 C.3       7 UNK         0.1400 
     38 CB         -3.4066  -17.8908  -43.6717 C.3       7 UNK        -0.1800 
     39 N          -1.7206  -17.7632  -45.4440 N.am      7 UNK        -0.5000 
     40 C          -1.0214  -18.2606  -46.4738 C.2       6 UNK         0.5000 
     41 O          -0.8237  -19.4655  -46.6355 O.2       6 UNK        -0.5000 
     42 CA         -0.4229  -17.2624  -47.4847 C.3       6 UNK         0.1400 
     43 CB         -1.2492  -17.2359  -48.7767 C.3       6 UNK        -0.1800 
     44 N          -0.2884  -15.8979  -46.9678 N.am      6 UNK        -0.5000 
     45 C           0.5129  -15.5426  -45.9549 C.2       5 UNK         0.5000 
     46 O           1.2033  -16.3470  -45.3295 O.2       5 UNK        -0.5000 
     47 CA          0.5596  -14.0559  -45.5595 C.3       5 UNK         0.1400 
     48 CB         -0.1934  -13.1103  -46.5222 C.3       5 UNK        -0.1800 
     49 N           0.1183  -13.8460  -44.1828 N.am      5 UNK        -0.5000 
     50 C          -1.0814  -14.1386  -43.6600 C.2       4 UNK         0.5000 
     51 O          -1.9668  -14.7197  -44.2900 O.2       4 UNK        -0.5000 
     52 CA         -1.3402  -13.7288  -42.1921 C.3       4 UNK         0.1400 
     53 CB         -2.0566  -14.8428  -41.4089 C.3       4 UNK        -0.1800 
     54 N          -0.1248  -13.3455  -41.4673 N.am      4 UNK        -0.5000 
     55 C           0.4732  -12.1478  -41.5201 C.2       3 UNK         0.5000 
     56 O           0.0444  -11.2023  -42.1835 O.2       3 UNK        -0.5000 
     57 CA          1.7771  -11.9719  -40.7106 C.3       3 UNK         0.1400 
     58 CB          2.2352  -13.2442  -39.9603 C.3       3 UNK        -0.1800 
     59 N           2.8806  -11.4511  -41.5255 N.am      3 UNK        -0.5000 
     60 C           3.3851  -11.9860  -42.6472 C.2       2 UNK         0.5000 
     61 O           2.9274  -12.9892  -43.2031 O.2       2 UNK        -0.5000 
     62 CA          4.6517  -11.3007  -43.1978 C.3       2 UNK         0.1400 
     63 CB          5.8660  -11.6313  -42.3134 C.3       2 UNK        -0.1800 
     64 N           4.9524  -11.7281  -44.5639 N.am      2 UNK        -0.5000 
     65 C           4.4180  -11.1907  -45.6657 C.2       1 UNK         0.5000 
     66 O           3.6421  -10.2310  -45.6532 O.2       1 UNK        -0.5000 
     67 C          -0.8593  -21.8004  -49.6265 C.2       11 UNK         0.5000 
     68 O          -1.1947  -22.3560  -50.6755 O.2       11 UNK        -0.5000 
     69 N          -1.7199  -21.1863  -48.8018 N.am      12 UNK        -0.5000 
     70 CA         -3.1724  -21.2802  -48.9101 C.3       12 UNK         0.1400 
     71 CB         -3.8105  -19.9117  -48.6276 C.3       12 UNK        -0.1800 
     72 C          -3.7332  -22.3472  -47.9595 C.2       12 UNK         0.5000 
     73 O          -4.5701  -23.1463  -48.3823 O.2       12 UNK        -0.5000 
     74 N          -3.2738  -22.3451  -46.6977 N.am      13 UNK        -0.5000 
     75 CA         -3.8169  -23.1707  -45.6112 C.3       13 UNK         0.1400 
     76 CB         -3.1464  -22.8060  -44.2791 C.3       13 UNK        -0.1800 
     77 C          -3.7280  -24.6884  -45.8515 C.2       13 UNK         0.5000 
     78 O          -4.6395  -25.4099  -45.4458 O.2       13 UNK        -0.5000 
     79 N          -2.6791  -25.1448  -46.5519 N.am      14 UNK        -0.5000 
     80 CA         -2.4895  -26.5442  -46.9514 C.3       14 UNK         0.1400 
     81 CB         -1.0963  -26.7059  -47.5777 C.3       14 UNK        -0.1800 
     82 C          -3.5746  -27.0743  -47.9129 C.2       14 UNK         0.5000 
     83 O          -3.7763  -28.2870  -47.9841 O.2       14 UNK        -0.5000 
     84 N          -4.2603  -26.1620  -48.6130 N.am      15 UNK        -0.5000 
     85 CA         -5.3872  -26.4364  -49.5018 C.3       15 UNK         0.1400 
     86 CB         -5.0460  -25.8781  -50.8911 C.3       15 UNK        -0.1800 
     87 C          -6.6931  -25.8212  -48.9595 C.2       15 UNK         0.5000 
     88 O          -7.6410  -25.6465  -49.7276 O.2       15 UNK        -0.5000 
     89 N          -6.7124  -25.4519  -47.6668 N.am      16 UNK        -0.5000 
     90 CA         -7.8115  -24.8064  -46.9334 C.3       16 UNK         0.1400 
     91 CB         -8.9677  -25.8066  -46.7289 C.3       16 UNK        -0.1800 
     92 C          -8.2908  -23.4756  -47.5595 C.2       16 UNK         0.5000 
     93 O          -9.4482  -23.0944  -47.3799 O.2       16 UNK        -0.5000 
     94 N          -7.3995  -22.8185  -48.3177 N.am      17 UNK        -0.5000 
     95 CA         -7.6162  -21.6441  -49.1688 C.3       17 UNK         0.1400 
     96 CB         -7.9836  -20.4104  -48.3204 C.3       17 UNK        -0.1800 
     97 C          -8.5998  -21.8699  -50.3419 C.2       17 UNK         0.5000 
     98 O          -8.9669  -20.9027  -51.0102 O.2       17 UNK        -0.5000 
     99 N          -8.9963  -23.1252  -50.5981 N.am      18 UNK        -0.5000 
    100 CA        -9.9349  -23.5016  -51.6567 C.3       18 UNK         0.1400 
    101 CB       -10.6740  -24.7812  -51.2357 C.3       18 UNK        -0.1800 
    102 C         -9.2352  -23.7061  -53.0117 C.2       18 UNK         0.5000 
    103 O         -9.8631  -23.5153  -54.0538 O.2       18 UNK        -0.5000 
    104 N         -7.9525  -24.0832  -52.9734 N.am      19 UNK        -0.5000 
    105 CA        -7.1034  -24.3253  -54.1372 C.3       19 UNK         0.1400 
    106 CB        -7.2481  -25.7899  -54.5949 C.3       19 UNK        -0.1800 
    107 C         -5.6595  -23.9283  -53.7926 C.2       19 UNK         0.5000 
    108 O         -4.7374  -24.7292  -53.9545 O.2       19 UNK        -0.5000 
    109 N         -5.5063  -22.7052  -53.2653 N.am      20 UNK        -0.5000 
    110 CA        -4.2411  -22.1106  -52.8302 C.3       20 UNK         0.1400 
    111 CB        -4.5253  -20.6965  -52.2961 C.3       20 UNK        -0.1800 
    112 C         -3.1883  -22.0358  -53.9507 C.2       20 UNK         0.5000 
    113 O         -3.5411  -21.8081  -55.1120 O.2       20 UNK        -0.5000 
    114 N         -1.9084  -22.1547  -53.5707 N.am      21 UNK        -0.5000 
    115 CA        -0.7574  -22.0878  -54.4808 C.3       21 UNK         0.1400 
    116 CB         0.5159  -22.4592  -53.7077 C.3       21 UNK        -0.1800 
    117 C         -0.5877  -20.7234  -55.1828 C.2       21 UNK         0.5000 
    118 O          0.0975  -20.6473  -56.2034 O.2       21 UNK        -0.5000 
    119 N         -1.2306  -19.6832  -54.6381 N.am      22 UNK        -0.5000 
    120 CA        -1.3467  -18.3418  -55.2273 C.3       22 UNK         0.1400 
    121 C         -2.2275  -18.2790  -56.5114 C.2       22 UNK         0.5000 
    122 N         -3.0396  -19.2861  -56.8172 N.am      22 UNK        -0.7600 
    123 O         -2.1709  -17.2957  -57.2446 O.2       22 UNK        -0.5000 
    124 C124       -1.8363  -17.2894  -54.1946 C.3       23 UNK        -0.0398 
    125 S125       -0.9939  -17.3875  -52.5794 S.3       23 UNK        -0.2404 
    126 C126        0.5481  -16.4929  -52.9322 C.3       23 UNK        -0.0205 
    127 H127        4.7313   -9.2434  -50.0269 H         1 UNK         0.0600 
    128 H128        6.4877   -9.0690  -50.0727 H         1 UNK         0.0600 
    129 H129        5.5167   -7.9790  -49.0771 H         1 UNK         0.0600 
    130 H130        4.0693  -10.9543  -48.7617 H         1 UNK         0.3000 
    131 H131        5.7769  -12.3142  -46.9042 H         1 UNK         0.0600 
    132 H132        2.7637  -12.6041  -47.3570 H         1 UNK         0.0800 
    133 H133        3.7714  -13.7126  -46.4471 H         1 UNK         0.0800 
    134 H134        1.8489  -14.6914  -48.4461 H         1 UNK         0.0800 
    135 H135        2.9819  -15.7831  -47.6818 H         1 UNK         0.0800 
    136 H136        1.1998  -14.9398  -50.7790 H         1 UNK         0.1150 
    137 H137        2.1113  -18.6843  -52.6487 H         1 UNK         0.1150 
    138 H138        4.0617  -17.5878  -48.9917 H         1 UNK         0.1150 
    139 H139        3.8085  -20.1134  -51.7726 H         1 UNK         0.0800 
    140 H140        4.9467  -19.4717  -50.6128 H         1 UNK         0.0800 
    141 H141        1.2990  -20.7705  -50.9965 H         1 UNK         0.0800 
    142 H142        1.0077  -19.7102  -49.6406 H         1 UNK         0.0800 
    143 H143        1.0381  -22.7720  -49.5207 H         1 UNK         0.0600 
    144 H144        1.2672  -20.9064  -47.4047 H         1 UNK         0.3000 
    145 H145       -0.3659  -21.9996  -44.9664 H         1 UNK         0.0600 
    146 H146        1.2587  -23.1935  -43.4844 H         1 UNK         0.0600 
    147 H147        0.4286  -24.2939  -44.5726 H         1 UNK         0.0600 
    148 H148        2.0884  -23.8279  -44.9065 H         1 UNK         0.0600 
    149 H149        0.8956  -20.2553  -44.8221 H         1 UNK         0.3000 
    150 H150        4.2159  -19.5715  -44.4740 H         1 UNK         0.0600 
    151 H151        4.2670  -19.2109  -46.9341 H         1 UNK         0.0600 
    152 H152        3.9466  -17.6945  -46.1071 H         1 UNK         0.0600 
    153 H153        2.6331  -18.5609  -46.9013 H         1 UNK         0.0600 
    154 H154        1.8788  -17.8944  -44.6399 H         1 UNK         0.3000 
    155 H155        0.6969  -18.5293  -41.3219 H         1 UNK         0.0600 
    156 H156        2.4387  -16.7158  -41.2505 H         1 UNK         0.0600 
    157 H157        0.8046  -16.0879  -41.2768 H         1 UNK         0.0600 
    158 H158        1.7917  -16.0389  -42.7375 H         1 UNK         0.0600 
    159 H159       -0.1653  -17.0914  -43.7334 H         1 UNK         0.3000 
    160 H160       -2.5357  -19.5382  -44.7103 H         1 UNK         0.0600 
    161 H161       -3.1464  -16.9143  -43.2664 H         1 UNK         0.0600 
    162 H162       -3.7998  -18.4928  -42.8515 H         1 UNK         0.0600 
    163 H163       -4.2150  -17.7505  -44.3893 H         1 UNK         0.0600 
    164 H164       -1.8572  -16.7618  -45.3759 H         1 UNK         0.3000 
    165 H165        0.5773  -17.6196  -47.7367 H         1 UNK         0.0600 
    166 H166       -0.8202  -16.5489  -49.5060 H         1 UNK         0.0600 
    167 H167       -1.2726  -18.2209  -49.2442 H         1 UNK         0.0600 
    168 H168       -2.2796  -16.9300  -48.5922 H         1 UNK         0.0600 
    169 H169       -0.8543  -15.1886  -47.4106 H         1 UNK         0.3000 
    170 H170        1.6111  -13.7761  -45.5735 H         1 UNK         0.0600 
    171 H171        0.1782  -13.1987  -47.5433 H         1 UNK         0.0600 
    172 H172       -1.2663  -13.3049  -46.5395 H         1 UNK         0.0600 
    173 H173       -0.0555  -12.0705  -46.2250 H         1 UNK         0.0600 
    174 H174        0.8148  -13.4297  -43.5758 H         1 UNK         0.3000 
    175 H175       -2.0090  -12.8663  -42.2219 H         1 UNK         0.0600 
    176 H176       -3.0516  -15.0241  -41.8163 H         1 UNK         0.0600 
    177 H177       -1.5112  -15.7855  -41.4455 H         1 UNK         0.0600 
    178 H178       -2.1882  -14.5699  -40.3617 H         1 UNK         0.0600 
    179 H179        0.3055  -14.0648  -40.9054 H         1 UNK         0.3000 
    180 H180        1.5613  -11.2094  -39.9609 H         1 UNK         0.0600 
    181 H181        2.4768  -14.0591  -40.6434 H         1 UNK         0.0600 
    182 H182        1.4706  -13.5979  -39.2676 H         1 UNK         0.0600 
    183 H183        3.1273  -13.0424  -39.3672 H         1 UNK         0.0600 
    184 H184        3.3093  -10.6080  -41.1701 H         1 UNK         0.3000 
    185 H185        4.4945  -10.2200  -43.1826 H         1 UNK         0.0600 
    186 H186        5.7165  -11.2869  -41.2894 H         1 UNK         0.0600 
    187 H187        6.0543  -12.7051  -42.2731 H         1 UNK         0.0600 
    188 H188        6.7686  -11.1466  -42.6864 H         1 UNK         0.0600 
    189 H189        5.5397  -12.5449  -44.6492 H         1 UNK         0.3000 
    190 H190       -1.3457  -20.7085  -47.9868 H         1 UNK         0.3000 
    191 H191       -3.4534  -21.5777  -49.9191 H         1 UNK         0.0600 
    192 H192       -3.5409  -19.5303  -47.6425 H         1 UNK         0.0600 
    193 H193       -4.8984  -19.9696  -48.6681 H         1 UNK         0.0600 
    194 H194       -3.5024  -19.1766  -49.3705 H         1 UNK         0.0600 
    195 H195       -2.5783  -21.6625  -46.4408 H         1 UNK         0.3000 
    196 H196       -4.8767  -22.9199  -45.5287 H         1 UNK         0.0600 
    197 H197       -3.6712  -23.2756  -43.4462 H         1 UNK         0.0600 
    198 H198       -3.1580  -21.7319  -44.0991 H         1 UNK         0.0600 
    199 H199       -2.1150  -23.1527  -44.2375 H         1 UNK         0.0600 
    200 H200       -1.9509  -24.4950  -46.8372 H         1 UNK         0.3000 
    201 H201       -2.5302  -27.1564  -46.0482 H         1 UNK         0.0600 
    202 H202       -0.3128  -26.4313  -46.8711 H         1 UNK         0.0600 
    203 H203       -0.9812  -26.0819  -48.4650 H         1 UNK         0.0600 
    204 H204       -0.9157  -27.7396  -47.8754 H         1 UNK         0.0600 
    205 H205       -4.0453  -25.1807  -48.4742 H         1 UNK         0.3000 
    206 H206       -5.5567  -27.5106  -49.5945 H         1 UNK         0.0600 
    207 H207       -4.1137  -26.2980  -51.2692 H         1 UNK         0.0600 
    208 H208       -5.8241  -26.1244  -51.6136 H         1 UNK         0.0600 
    209 H209       -4.9395  -24.7929  -50.8707 H         1 UNK         0.0600 
    210 H210       -5.8795  -25.6230  -47.1148 H         1 UNK         0.3000 
    211 H211       -7.4136  -24.5513  -45.9503 H         1 UNK         0.0600 
    212 H212       -9.4540  -26.0590  -47.6719 H         1 UNK         0.0600 
    213 H213       -9.7308  -25.3969  -46.0661 H         1 UNK         0.0600 
    214 H214       -8.6121  -26.7323  -46.2766 H         1 UNK         0.0600 
    215 H215       -6.4591  -23.2028  -48.3680 H         1 UNK         0.3000 
    216 H216       -6.6511  -21.4438  -49.6339 H         1 UNK         0.0600 
    217 H217       -7.9778  -19.5029  -48.9252 H         1 UNK         0.0600 
    218 H218       -7.2696  -20.2624  -47.5102 H         1 UNK         0.0600 
    219 H219       -8.9769  -20.5018  -47.8806 H         1 UNK         0.0600 
    220 H220       -8.6267  -23.8842  -50.0349 H         1 UNK         0.3000 
    221 H221      -10.6766  -22.7093  -51.7788 H         1 UNK         0.0600 
    222 H222       -9.9908  -25.6236  -51.1216 H         1 UNK         0.0600 
    223 H223      -11.1945  -24.6418  -50.2880 H         1 UNK         0.0600 
    224 H224      -11.4205  -25.0630  -51.9794 H         1 UNK         0.0600 
    225 H225       -7.5195  -24.2173  -52.0700 H         1 UNK         0.3000 
    226 H226       -7.4130  -23.6765  -54.9593 H         1 UNK         0.0600 
    227 H227       -8.2773  -26.0157  -54.8740 H         1 UNK         0.0600 
    228 H228       -6.6251  -25.9913  -55.4671 H         1 UNK         0.0600 
    229 H229       -6.9543  -26.4873  -53.8100 H         1 UNK         0.0600 
    230 H230       -6.3225  -22.1156  -53.1961 H         1 UNK         0.3000 
    231 H231       -3.8457  -22.7282  -52.0213 H         1 UNK         0.0600 
    232 H232       -5.2287  -20.7183  -51.4645 H         1 UNK         0.0600 
    233 H233       -4.9455  -20.0530  -53.0703 H         1 UNK         0.0600 
    234 H234       -3.6123  -20.2184  -51.9380 H         1 UNK         0.0600 
    235 H235       -1.6936  -22.3065  -52.5883 H         1 UNK         0.3000 
    236 H236       -0.9117  -22.8353  -55.2616 H         1 UNK         0.0600 
    237 H237        1.3799  -22.4998  -54.3722 H         1 UNK         0.0600 
    238 H238        0.7339  -21.7276  -52.9323 H         1 UNK         0.0600 
    239 H239        0.4229  -23.4364  -53.2333 H         1 UNK         0.0600 
    240 H240       -1.7458  -19.8361  -53.7851 H         1 UNK         0.3000 
    241 H241       -0.3427  -18.0506  -55.5403 H         1 UNK         0.0600 
    242 H242       -3.6004  -19.2310  -57.6526 H         1 UNK         0.3800 
    243 H243       -3.1080  -20.1056  -56.2240 H         1 UNK         0.3800 
    244 H244       -1.7209  -16.2796  -54.5924 H         1 UNK         0.0800 
    245 H245       -2.9036  -17.4184  -54.0052 H         1 UNK         0.0800 
    246 H246        0.3423  -15.4244  -53.0115 H         1 UNK         0.0800 
    247 H247        0.9519  -16.8072  -53.8954 H         1 UNK         0.0800 
@<TRIPOS>BOND
     1    1    2 1    
     2    1  127 1    
     3    1  128 1    
     4    1  129 1    
     5    2    3 2    
     6    2    4 am   BACKBONE|DICT|INTERRES
     7    4    5 1    
     8    4  130 1    
     9    5    6 1    
    10    5   65 1    
    11    5  131 1    
    12    6    7 1    
    13    6  132 1    
    14    6  133 1    
    15    7    8 1    
    16    8    9 1    
    17    8  134 1    
    18    8  135 1    
    19    9   10 ar   
    20    9   14 ar   
    21   10   11 ar   
    22   10  136 1    
    23   11   12 ar   
    24   11  126 1    
    25   12   13 ar   
    26   12  137 1    
    27   13   14 ar   
    28   13   15 1    
    29   14  138 1    
    30   15   16 1    
    31   15  139 1    
    32   15  140 1    
    33   16   17 1    
    34   17   18 1    
    35   17  141 1    
    36   17  142 1    
    37   18   19 1    
    38   18   67 1    
    39   18  143 1    
    40   19   20 am   BACKBONE|DICT|INTERRES
    41   19  144 1    
    42   20   21 2    
    43   20   22 1    
    44   22   23 1    
    45   22   24 1    
    46   22  145 1    
    47   23  146 1    
    48   23  147 1    
    49   23  148 1    
    50   24   25 am   BACKBONE|DICT|INTERRES
    51   24  149 1    
    52   25   26 2    
    53   25   27 1    
    54   27   28 1    
    55   27   29 1    
    56   27  150 1    
    57   28  151 1    
    58   28  152 1    
    59   28  153 1    
    60   29   30 am   BACKBONE|DICT|INTERRES
    61   29  154 1    
    62   30   31 2    
    63   30   32 1    
    64   32   33 1    
    65   32   34 1    
    66   32  155 1    
    67   33  156 1    
    68   33  157 1    
    69   33  158 1    
    70   34   35 am   BACKBONE|DICT|INTERRES
    71   34  159 1    
    72   35   36 2    
    73   35   37 1    
    74   37   38 1    
    75   37   39 1    
    76   37  160 1    
    77   38  161 1    
    78   38  162 1    
    79   38  163 1    
    80   39   40 am   BACKBONE|DICT|INTERRES
    81   39  164 1    
    82   40   41 2    
    83   40   42 1    
    84   42   43 1    
    85   42   44 1    
    86   42  165 1    
    87   43  166 1    
    88   43  167 1    
    89   43  168 1    
    90   44   45 am   BACKBONE|DICT|INTERRES
    91   44  169 1    
    92   45   46 2    
    93   45   47 1    
    94   47   48 1    
    95   47   49 1    
    96   47  170 1    
    97   48  171 1    
    98   48  172 1    
    99   48  173 1    
   100   49   50 am   BACKBONE|DICT|INTERRES
   101   49  174 1    
   102   50   51 2    
   103   50   52 1    
   104   52   53 1    
   105   52   54 1    
   106   52  175 1    
   107   53  176 1    
   108   53  177 1    
   109   53  178 1    
   110   54   55 am   BACKBONE|DICT|INTERRES
   111   54  179 1    
   112   55   56 2    
   113   55   57 1    
   114   57   58 1    
   115   57   59 1    
   116   57  180 1    
   117   58  181 1    
   118   58  182 1    
   119   58  183 1    
   120   59   60 am   BACKBONE|DICT|INTERRES
   121   59  184 1    
   122   60   61 2    
   123   60   62 1    
   124   62   63 1    
   125   62   64 1    
   126   62  185 1    
   127   63  186 1    
   128   63  187 1    
   129   63  188 1    
   130   64   65 am   BACKBONE|DICT|INTERRES
   131   64  189 1    
   132   65   66 2    
   133   67   68 2    
   134   67   69 am   BACKBONE|DICT|INTERRES
   135   69   70 1    
   136   69  190 1    
   137   70   71 1    
   138   70   72 1    
   139   70  191 1    
   140   71  192 1    
   141   71  193 1    
   142   71  194 1    
   143   72   73 2    
   144   72   74 am   BACKBONE|DICT|INTERRES
   145   74   75 1    
   146   74  195 1    
   147   75   76 1    
   148   75   77 1    
   149   75  196 1    
   150   76  197 1    
   151   76  198 1    
   152   76  199 1    
   153   77   78 2    
   154   77   79 am   BACKBONE|DICT|INTERRES
   155   79   80 1    
   156   79  200 1    
   157   80   81 1    
   158   80   82 1    
   159   80  201 1    
   160   81  202 1    
   161   81  203 1    
   162   81  204 1    
   163   82   83 2    
   164   82   84 am   BACKBONE|DICT|INTERRES
   165   84   85 1    
   166   84  205 1    
   167   85   86 1    
   168   85   87 1    
   169   85  206 1    
   170   86  207 1    
   171   86  208 1    
   172   86  209 1    
   173   87   88 2    
   174   87   89 am   BACKBONE|DICT|INTERRES
   175   89   90 1    
   176   89  210 1    
   177   90   91 1    
   178   90   92 1    
   179   90  211 1    
   180   91  212 1    
   181   91  213 1    
   182   91  214 1    
   183   92   93 2    
   184   92   94 am   BACKBONE|DICT|INTERRES
   185   94   95 1    
   186   94  215 1    
   187   95   96 1    
   188   95   97 1    
   189   95  216 1    
   190   96  217 1    
   191   96  218 1    
   192   96  219 1    
   193   97   98 2    
   194   97   99 am   BACKBONE|DICT|INTERRES
   195   99  100 1    
   196   99  220 1    
   197  100  101 1    
   198  100  102 1    
   199  100  221 1    
   200  101  222 1    
   201  101  223 1    
   202  101  224 1    
   203  102  103 2    
   204  102  104 am   BACKBONE|DICT|INTERRES
   205  104  105 1    
   206  104  225 1    
   207  105  106 1    
   208  105  107 1    
   209  105  226 1    
   210  106  227 1    
   211  106  228 1    
   212  106  229 1    
   213  107  108 2    
   214  107  109 am   BACKBONE|DICT|INTERRES
   215  109  110 1    
   216  109  230 1    
   217  110  111 1    
   218  110  112 1    
   219  110  231 1    
   220  111  232 1    
   221  111  233 1    
   222  111  234 1    
   223  112  113 2    
   224  112  114 am   BACKBONE|DICT|INTERRES
   225  114  115 1    
   226  114  235 1    
   227  115  116 1    
   228  115  117 1    
   229  115  236 1    
   230  116  237 1    
   231  116  238 1    
   232  116  239 1    
   233  117  118 2    
   234  117  119 am   BACKBONE|DICT|INTERRES
   235  119  120 1    
   236  119  240 1    
   237  120  121 1    
   238  120  124 1    
   239  120  241 1    
   240  121  122 am   BACKBONE|DICT|INTERRES
   241  121  123 2    
   242  122  242 1    
   243  122  243 1    
   244  124  125 1    
   245  124  244 1    
   246  124  245 1    
   247  125  126 1    
   248  126  246 1    
   249  126  247 1    
@<TRIPOS>SUBSTRUCTURE
     1 UNK         1 GROUP             0       ****    0 ROOT    
