@<TRIPOS>MOLECULE
3R540
247   249    1
SMALL
USER_CHARGES


@<TRIPOS>ATOM
      1 CA          6.6464  -15.6400  -45.1205 C.3       0 UNK        -0.1800 
      2 C           5.4676  -14.7046  -44.8944 C.2       0 UNK         0.5000 
      3 O           5.0372  -14.5200  -43.7558 O.2       0 UNK        -0.5000 
      4 N           4.9455  -14.1069  -45.9721 N.am      1 UNK        -0.5000 
      5 CA          3.8377  -13.1448  -45.9615 C.3       1 UNK         0.1400 
      6 C6          3.0908  -13.1102  -47.3182 C.3       23 UNK        -0.0398 
      7 S7          2.2389  -14.6789  -47.6975 S.3       23 UNK        -0.2404 
      8 C8          3.2217  -15.2949  -49.1005 C.3       23 UNK        -0.0205 
      9 C9          2.4680  -16.3614  -49.8794 C.ar      23 UNK        -0.0193 
     10 C10         1.3775  -15.9905  -50.6684 C.ar      23 UNK        -0.1150 
     11 C11         0.6651  -16.9427  -51.4046 C.ar      23 UNK        -0.0193 
     12 C12         1.0834  -18.2770  -51.3701 C.ar      23 UNK        -0.1150 
     13 C13         2.1938  -18.6604  -50.6105 C.ar      23 UNK        -0.0193 
     14 C14         2.8717  -17.6996  -49.8517 C.ar      23 UNK        -0.1150 
     15 C15         2.7120  -20.0918  -50.6695 C.3       23 UNK        -0.0205 
     16 S16         2.3452  -21.0433  -49.1637 S.3       23 UNK        -0.2404 
     17 C17         0.6659  -21.6689  -49.5027 C.3       23 UNK        -0.0398 
     18 CA          0.2574  -22.7933  -48.5197 C.3       11 UNK         0.1400 
     19 N           0.2258  -22.3476  -47.1227 N.am      11 UNK        -0.5000 
     20 C           0.0601  -23.1521  -46.0636 C.2       10 UNK         0.5000 
     21 O          -0.0313  -24.3756  -46.1448 O.2       10 UNK        -0.5000 
     22 CA         -0.0844  -22.4784  -44.6883 C.3       10 UNK         0.1400 
     23 CB          1.2875  -22.1666  -44.0710 C.3       10 UNK        -0.1800 
     24 N          -0.8914  -21.2609  -44.7638 N.am      10 UNK        -0.5000 
     25 C          -2.2165  -21.2502  -44.9670 C.2       9 UNK         0.5000 
     26 O          -2.9001  -22.2700  -45.0545 O.2       9 UNK        -0.5000 
     27 CA         -2.8828  -19.8725  -45.1438 C.3       9 UNK         0.1400 
     28 CB         -3.1999  -19.2420  -43.7801 C.3       9 UNK        -0.1800 
     29 N          -2.0624  -18.9473  -45.9249 N.am      9 UNK        -0.5000 
     30 C          -1.7543  -19.1167  -47.2189 C.2       8 UNK         0.5000 
     31 O          -2.1802  -20.0450  -47.9029 O.2       8 UNK        -0.5000 
     32 CA         -0.7576  -18.1148  -47.8299 C.3       8 UNK         0.1400 
     33 CB         -1.5074  -16.8928  -48.3695 C.3       8 UNK        -0.1800 
     34 N           0.2747  -17.6805  -46.8837 N.am      8 UNK        -0.5000 
     35 C           1.1391  -18.5036  -46.2722 C.2       7 UNK         0.5000 
     36 O           1.1401  -19.7212  -46.4322 O.2       7 UNK        -0.5000 
     37 CA          2.1301  -17.8934  -45.2686 C.3       7 UNK         0.1400 
     38 CB          3.5257  -17.7425  -45.8885 C.3       7 UNK        -0.1800 
     39 N           1.6740  -16.6160  -44.7166 N.am      7 UNK        -0.5000 
     40 C           0.7119  -16.5187  -43.7880 C.2       6 UNK         0.5000 
     41 O           0.1124  -17.4888  -43.3226 O.2       6 UNK        -0.5000 
     42 CA          0.3440  -15.1026  -43.3158 C.3       6 UNK         0.1400 
     43 CB          1.4101  -14.5489  -42.3577 C.3       6 UNK        -0.1800 
     44 N           0.1529  -14.1576  -44.4138 N.am      6 UNK        -0.5000 
     45 C          -0.8215  -14.2046  -45.3293 C.2       5 UNK         0.5000 
     46 O          -1.6454  -15.1177  -45.3887 O.2       5 UNK        -0.5000 
     47 CA         -0.8974  -13.0117  -46.3140 C.3       5 UNK         0.1400 
     48 CB         -2.0827  -13.1184  -47.2903 C.3       5 UNK        -0.1800 
     49 N          -0.9637  -11.7094  -45.6398 N.am      5 UNK        -0.5000 
     50 C           0.0440  -11.1015  -45.0012 C.2       4 UNK         0.5000 
     51 O           1.1696  -11.5944  -44.8886 O.2       4 UNK        -0.5000 
     52 CA         -0.2632   -9.7393  -44.3619 C.3       4 UNK         0.1400 
     53 CB         -1.2351   -9.8824  -43.1768 C.3       4 UNK        -0.1800 
     54 N           0.9860   -9.1521  -43.8930 N.am      4 UNK        -0.5000 
     55 C           1.2719   -7.8531  -43.7901 C.2       3 UNK         0.5000 
     56 O           0.4698   -6.9623  -44.0743 O.2       3 UNK        -0.5000 
     57 CA          2.6867   -7.4608  -43.3068 C.3       3 UNK         0.1400 
     58 CB          2.6755   -7.1141  -41.8052 C.3       3 UNK        -0.1800 
     59 N           3.7657   -8.4140  -43.6218 N.am      3 UNK        -0.5000 
     60 C           3.9596   -9.6551  -43.1546 C.2       2 UNK         0.5000 
     61 O           3.1939  -10.2304  -42.3788 O.2       2 UNK        -0.5000 
     62 CA          5.2153  -10.3898  -43.6531 C.3       2 UNK         0.1400 
     63 CB          6.1751  -10.6943  -42.4925 C.3       2 UNK        -0.1800 
     64 N           4.8303  -11.6418  -44.2957 N.am      2 UNK        -0.5000 
     65 C           4.3313  -11.7432  -45.5326 C.2       1 UNK         0.5000 
     66 O           4.2763  -10.7936  -46.3171 O.2       1 UNK        -0.5000 
     67 C          -1.0775  -23.4464  -48.9363 C.2       11 UNK         0.5000 
     68 O          -1.0620  -24.5218  -49.5351 O.2       11 UNK        -0.5000 
     69 N          -2.2028  -22.8240  -48.5580 N.am      12 UNK        -0.5000 
     70 CA         -3.5539  -23.3514  -48.7510 C.3       12 UNK         0.1400 
     71 CB         -4.5780  -22.2881  -48.3359 C.3       12 UNK        -0.1800 
     72 C          -3.7996  -24.6609  -47.9814 C.2       12 UNK         0.5000 
     73 O          -4.3893  -25.5876  -48.5357 O.2       12 UNK        -0.5000 
     74 N          -3.3194  -24.7332  -46.7311 N.am      13 UNK        -0.5000 
     75 CA         -3.3880  -25.9303  -45.8908 C.3       13 UNK         0.1400 
     76 CB         -2.9721  -25.5834  -44.4537 C.3       13 UNK        -0.1800 
     77 C          -2.5439  -27.0950  -46.4412 C.2       13 UNK         0.5000 
     78 O          -2.9991  -28.2382  -46.4038 O.2       13 UNK        -0.5000 
     79 N          -1.3508  -26.7838  -46.9674 N.am      14 UNK        -0.5000 
     80 CA         -0.4541  -27.7342  -47.6269 C.3       14 UNK         0.1400 
     81 CB          0.9185  -27.0808  -47.8491 C.3       14 UNK        -0.1800 
     82 C          -1.0287  -28.2682  -48.9517 C.2       14 UNK         0.5000 
     83 O          -0.9124  -29.4642  -49.2228 O.2       14 UNK        -0.5000 
     84 N          -1.6598  -27.3840  -49.7379 N.am      15 UNK        -0.5000 
     85 CA         -2.3891  -27.7342  -50.9591 C.3       15 UNK         0.1400 
     86 CB         -2.7101  -26.4523  -51.7434 C.3       15 UNK        -0.1800 
     87 C          -3.6821  -28.5250  -50.6775 C.2       15 UNK         0.5000 
     88 O          -4.0819  -29.3434  -51.5063 O.2       15 UNK        -0.5000 
     89 N          -4.3008  -28.2555  -49.5181 N.am      16 UNK        -0.5000 
     90 CA         -5.5760  -28.7825  -49.0256 C.3       16 UNK         0.1400 
     91 CB         -5.4799  -30.2981  -48.7549 C.3       16 UNK        -0.1800 
     92 C          -6.7514  -28.3935  -49.9451 C.2       16 UNK         0.5000 
     93 O          -7.6307  -29.2141  -50.2164 O.2       16 UNK        -0.5000 
     94 N          -6.7276  -27.1465  -50.4291 N.am      17 UNK        -0.5000 
     95 CA         -7.6461  -26.5999  -51.4213 C.3       17 UNK         0.1400 
     96 CB         -7.2808  -27.1526  -52.8162 C.3       17 UNK        -0.1800 
     97 C          -7.5723  -25.0650  -51.3973 C.2       17 UNK         0.5000 
     98 O          -6.7777  -24.4925  -50.6485 O.2       17 UNK        -0.5000 
     99 N          -8.3814  -24.4253  -52.2525 N.am      18 UNK        -0.5000 
    100 CA        -8.3586  -22.9808  -52.5083 C.3       18 UNK         0.1400 
    101 CB        -9.6595  -22.5829  -53.2226 C.3       18 UNK        -0.1800 
    102 C         -7.1294  -22.5217  -53.3234 C.2       18 UNK         0.5000 
    103 O         -6.8747  -21.3199  -53.4134 O.2       18 UNK        -0.5000 
    104 N         -6.3824  -23.4729  -53.9019 N.am      19 UNK        -0.5000 
    105 CA        -5.0915  -23.2473  -54.5473 C.3       19 UNK         0.1400 
    106 CB        -4.5890  -24.5705  -55.1448 C.3       19 UNK        -0.1800 
    107 C         -4.0717  -22.6748  -53.5452 C.2       19 UNK         0.5000 
    108 O         -3.9082  -23.2359  -52.4619 O.2       19 UNK        -0.5000 
    109 N         -3.4372  -21.5583  -53.9244 N.am      20 UNK        -0.5000 
    110 CA        -2.4763  -20.7713  -53.1408 C.3       20 UNK         0.1400 
    111 CB        -1.2645  -21.6260  -52.7143 C.3       20 UNK        -0.1800 
    112 C         -3.0891  -19.9943  -51.9532 C.2       20 UNK         0.5000 
    113 O         -2.3392  -19.3661  -51.2063 O.2       20 UNK        -0.5000 
    114 N         -4.4240  -19.9786  -51.8204 N.am      21 UNK        -0.5000 
    115 CA        -5.1552  -19.2127  -50.8079 C.3       21 UNK         0.1400 
    116 CB        -6.4642  -19.9512  -50.4641 C.3       21 UNK        -0.1800 
    117 C         -5.4051  -17.7702  -51.2950 C.2       21 UNK         0.5000 
    118 O         -6.5567  -17.3539  -51.4395 O.2       21 UNK        -0.5000 
    119 N         -4.3205  -17.0425  -51.5855 N.am      22 UNK        -0.5000 
    120 CA        -4.3497  -15.6423  -52.0342 C.3       22 UNK         0.1400 
    121 C         -4.8434  -14.6398  -50.9470 C.2       22 UNK         0.5000 
    122 N         -5.2976  -13.4599  -51.3494 N.am      22 UNK        -0.7600 
    123 O         -4.8040  -14.9060  -49.7474 O.2       22 UNK        -0.5000 
    124 C124       -2.9995  -15.2147  -52.6676 C.3       23 UNK        -0.0398 
    125 S125       -1.5873  -15.2733  -51.5131 S.3       23 UNK        -0.2404 
    126 C126       -0.5208  -16.5400  -52.2787 C.3       23 UNK        -0.0205 
    127 H127        6.7796  -15.8733  -46.1771 H         1 UNK         0.0600 
    128 H128        6.4949  -16.5763  -44.5836 H         1 UNK         0.0600 
    129 H129        7.5635  -15.1809  -44.7517 H         1 UNK         0.0600 
    130 H130        5.3628  -14.2760  -46.8756 H         1 UNK         0.3000 
    131 H131        3.1164  -13.4601  -45.2048 H         1 UNK         0.0600 
    132 H132        3.7743  -12.8446  -48.1259 H         1 UNK         0.0800 
    133 H133        2.3264  -12.3315  -47.3093 H         1 UNK         0.0800 
    134 H134        3.4549  -14.4727  -49.7785 H         1 UNK         0.0800 
    135 H135        4.1755  -15.6780  -48.7357 H         1 UNK         0.0800 
    136 H136        1.0823  -14.9514  -50.7003 H         1 UNK         0.1150 
    137 H137        0.5580  -19.0130  -51.9595 H         1 UNK         0.1150 
    138 H138        3.7293  -17.9923  -49.2623 H         1 UNK         0.1150 
    139 H139        2.3196  -20.6129  -51.5440 H         1 UNK         0.0800 
    140 H140        3.7946  -20.0650  -50.8014 H         1 UNK         0.0800 
    141 H141        0.6557  -22.0530  -50.5231 H         1 UNK         0.0800 
    142 H142       -0.0417  -20.8393  -49.4728 H         1 UNK         0.0800 
    143 H143        1.0179  -23.5747  -48.5824 H         1 UNK         0.0600 
    144 H144        0.3762  -21.3549  -46.9591 H         1 UNK         0.3000 
    145 H145       -0.5936  -23.1806  -44.0251 H         1 UNK         0.0600 
    146 H146        1.1829  -21.7041  -43.0895 H         1 UNK         0.0600 
    147 H147        1.8674  -23.0809  -43.9395 H         1 UNK         0.0600 
    148 H148        1.8772  -21.4969  -44.6964 H         1 UNK         0.0600 
    149 H149       -0.3898  -20.3842  -44.7756 H         1 UNK         0.3000 
    150 H150       -3.8229  -20.0234  -45.6785 H         1 UNK         0.0600 
    151 H151       -3.8313  -19.9011  -43.1829 H         1 UNK         0.0600 
    152 H152       -3.7332  -18.2983  -43.8965 H         1 UNK         0.0600 
    153 H153       -2.2933  -19.0456  -43.2061 H         1 UNK         0.0600 
    154 H154       -1.6613  -18.1609  -45.4327 H         1 UNK         0.3000 
    155 H155       -0.2517  -18.6017  -48.6653 H         1 UNK         0.0600 
    156 H156       -0.8170  -16.1346  -48.7376 H         1 UNK         0.0600 
    157 H157       -2.1566  -17.1778  -49.1982 H         1 UNK         0.0600 
    158 H158       -2.1380  -16.4349  -47.6082 H         1 UNK         0.0600 
    159 H159        0.3276  -16.6922  -46.6878 H         1 UNK         0.3000 
    160 H160        2.2212  -18.6060  -44.4456 H         1 UNK         0.0600 
    161 H161        3.5438  -17.0044  -46.6870 H         1 UNK         0.0600 
    162 H162        3.8674  -18.6876  -46.3130 H         1 UNK         0.0600 
    163 H163        4.2535  -17.4469  -45.1347 H         1 UNK         0.0600 
    164 H164        2.1078  -15.7767  -45.0719 H         1 UNK         0.3000 
    165 H165       -0.5991  -15.1713  -42.7696 H         1 UNK         0.0600 
    166 H166        1.1110  -13.5822  -41.9516 H         1 UNK         0.0600 
    167 H167        1.5655  -15.2223  -41.5139 H         1 UNK         0.0600 
    168 H168        2.3719  -14.4173  -42.8546 H         1 UNK         0.0600 
    169 H169        0.7548  -13.3384  -44.4283 H         1 UNK         0.3000 
    170 H170        0.0130  -13.0316  -46.9121 H         1 UNK         0.0600 
    171 H171       -2.0241  -14.0314  -47.8827 H         1 UNK         0.0600 
    172 H172       -3.0388  -13.1270  -46.7657 H         1 UNK         0.0600 
    173 H173       -2.0924  -12.2852  -47.9931 H         1 UNK         0.0600 
    174 H174       -1.8655  -11.2555  -45.6555 H         1 UNK         0.3000 
    175 H175       -0.7049   -9.0993  -45.1284 H         1 UNK         0.0600 
    176 H176       -2.1906  -10.3011  -43.4939 H         1 UNK         0.0600 
    177 H177       -0.8288  -10.5361  -42.4038 H         1 UNK         0.0600 
    178 H178       -1.4443   -8.9153  -42.7192 H         1 UNK         0.0600 
    179 H179        1.7032   -9.8266  -43.6413 H         1 UNK         0.3000 
    180 H180        2.9445   -6.5479  -43.8460 H         1 UNK         0.0600 
    181 H181        2.3957   -7.9704  -41.1909 H         1 UNK         0.0600 
    182 H182        1.9597   -6.3183  -41.5955 H         1 UNK         0.0600 
    183 H183        3.6535   -6.7664  -41.4725 H         1 UNK         0.0600 
    184 H184        4.4359   -8.0679  -44.2947 H         1 UNK         0.3000 
    185 H185        5.7433   -9.7635  -44.3754 H         1 UNK         0.0600 
    186 H186        6.4849   -9.7760  -41.9921 H         1 UNK         0.0600 
    187 H187        5.7119  -11.3374  -41.7429 H         1 UNK         0.0600 
    188 H188        7.0774  -11.1920  -42.8482 H         1 UNK         0.0600 
    189 H189        4.8475  -12.4781  -43.7218 H         1 UNK         0.3000 
    190 H190       -2.1356  -21.9058  -48.1249 H         1 UNK         0.3000 
    191 H191       -3.6845  -23.5569  -49.8148 H         1 UNK         0.0600 
    192 H192       -4.5174  -22.0585  -47.2720 H         1 UNK         0.0600 
    193 H193       -5.5939  -22.6251  -48.5454 H         1 UNK         0.0600 
    194 H194       -4.4155  -21.3617  -48.8838 H         1 UNK         0.0600 
    195 H195       -2.8945  -23.9096  -46.3191 H         1 UNK         0.3000 
    196 H196       -4.4290  -26.2596  -45.8684 H         1 UNK         0.0600 
    197 H197       -3.0520  -26.4555  -43.8037 H         1 UNK         0.0600 
    198 H198       -3.6114  -24.8062  -44.0348 H         1 UNK         0.0600 
    199 H199       -1.9418  -25.2321  -44.4049 H         1 UNK         0.0600 
    200 H200       -1.0189  -25.8259  -46.8900 H         1 UNK         0.3000 
    201 H201       -0.3180  -28.5857  -46.9569 H         1 UNK         0.0600 
    202 H202        1.3639  -26.7702  -46.9039 H         1 UNK         0.0600 
    203 H203        0.8480  -26.2013  -48.4894 H         1 UNK         0.0600 
    204 H204        1.6112  -27.7778  -48.3222 H         1 UNK         0.0600 
    205 H205       -1.6443  -26.4006  -49.4823 H         1 UNK         0.3000 
    206 H206       -1.7418  -28.3601  -51.5766 H         1 UNK         0.0600 
    207 H207       -1.8025  -25.9066  -52.0016 H         1 UNK         0.0600 
    208 H208       -3.2276  -26.6834  -52.6748 H         1 UNK         0.0600 
    209 H209       -3.3506  -25.7790  -51.1720 H         1 UNK         0.0600 
    210 H210       -3.9235  -27.4925  -48.9665 H         1 UNK         0.3000 
    211 H211       -5.7584  -28.2882  -48.0703 H         1 UNK         0.0600 
    212 H212       -5.3523  -30.8690  -49.6749 H         1 UNK         0.0600 
    213 H213       -6.3827  -30.6646  -48.2652 H         1 UNK         0.0600 
    214 H214       -4.6396  -30.5259  -48.0987 H         1 UNK         0.0600 
    215 H215       -6.0187  -26.4954  -50.1061 H         1 UNK         0.3000 
    216 H216       -8.6666  -26.8904  -51.1637 H         1 UNK         0.0600 
    217 H217       -6.2674  -26.8694  -53.1042 H         1 UNK         0.0600 
    218 H218       -7.9595  -26.7866  -53.5869 H         1 UNK         0.0600 
    219 H219       -7.3369  -28.2410  -52.8406 H         1 UNK         0.0600 
    220 H220       -9.0172  -24.9662  -52.8212 H         1 UNK         0.3000 
    221 H221       -8.3225  -22.4606  -51.5488 H         1 UNK         0.0600 
    222 H222      -10.5335  -22.8436  -52.6255 H         1 UNK         0.0600 
    223 H223       -9.7538  -23.0751  -54.1913 H         1 UNK         0.0600 
    224 H224       -9.6969  -21.5065  -53.3965 H         1 UNK         0.0600 
    225 H225       -6.6521  -24.4335  -53.7615 H         1 UNK         0.3000 
    226 H226       -5.2411  -22.5340  -55.3604 H         1 UNK         0.0600 
    227 H227       -5.2874  -24.9606  -55.8853 H         1 UNK         0.0600 
    228 H228       -3.6287  -24.4332  -55.6435 H         1 UNK         0.0600 
    229 H229       -4.4536  -25.3327  -54.3766 H         1 UNK         0.0600 
    230 H230       -3.6627  -21.1714  -54.8306 H         1 UNK         0.3000 
    231 H231       -2.1032  -20.0075  -53.8244 H         1 UNK         0.0600 
    232 H232       -1.5221  -22.3339  -51.9260 H         1 UNK         0.0600 
    233 H233       -0.4623  -20.9967  -52.3336 H         1 UNK         0.0600 
    234 H234       -0.8598  -22.1896  -53.5547 H         1 UNK         0.0600 
    235 H235       -4.9909  -20.4832  -52.4904 H         1 UNK         0.3000 
    236 H236       -4.5564  -19.1552  -49.8961 H         1 UNK         0.0600 
    237 H237       -6.9241  -19.5253  -49.5719 H         1 UNK         0.0600 
    238 H238       -7.1957  -19.8824  -51.2691 H         1 UNK         0.0600 
    239 H239       -6.2932  -21.0097  -50.2727 H         1 UNK         0.0600 
    240 H240       -3.4080  -17.4458  -51.4128 H         1 UNK         0.3000 
    241 H241       -5.0924  -15.6003  -52.8336 H         1 UNK         0.0600 
    242 H242       -5.6131  -12.7986  -50.6569 H         1 UNK         0.3800 
    243 H243       -5.3447  -13.2114  -52.3254 H         1 UNK         0.3800 
    244 H244       -3.0700  -14.2004  -53.0634 H         1 UNK         0.0800 
    245 H245       -2.7881  -15.8459  -53.5316 H         1 UNK         0.0800 
    246 H246       -0.1424  -16.1604  -53.2284 H         1 UNK         0.0800 
    247 H247       -1.1276  -17.4152  -52.5108 H         1 UNK         0.0800 
@<TRIPOS>BOND
     1    1    2 1    
     2    1  127 1    
     3    1  128 1    
     4    1  129 1    
     5    2    3 2    
     6    2    4 am   BACKBONE|DICT|INTERRES
     7    4    5 1    
     8    4  130 1    
     9    5    6 1    
    10    5   65 1    
    11    5  131 1    
    12    6    7 1    
    13    6  132 1    
    14    6  133 1    
    15    7    8 1    
    16    8    9 1    
    17    8  134 1    
    18    8  135 1    
    19    9   10 ar   
    20    9   14 ar   
    21   10   11 ar   
    22   10  136 1    
    23   11   12 ar   
    24   11  126 1    
    25   12   13 ar   
    26   12  137 1    
    27   13   14 ar   
    28   13   15 1    
    29   14  138 1    
    30   15   16 1    
    31   15  139 1    
    32   15  140 1    
    33   16   17 1    
    34   17   18 1    
    35   17  141 1    
    36   17  142 1    
    37   18   19 1    
    38   18   67 1    
    39   18  143 1    
    40   19   20 am   BACKBONE|DICT|INTERRES
    41   19  144 1    
    42   20   21 2    
    43   20   22 1    
    44   22   23 1    
    45   22   24 1    
    46   22  145 1    
    47   23  146 1    
    48   23  147 1    
    49   23  148 1    
    50   24   25 am   BACKBONE|DICT|INTERRES
    51   24  149 1    
    52   25   26 2    
    53   25   27 1    
    54   27   28 1    
    55   27   29 1    
    56   27  150 1    
    57   28  151 1    
    58   28  152 1    
    59   28  153 1    
    60   29   30 am   BACKBONE|DICT|INTERRES
    61   29  154 1    
    62   30   31 2    
    63   30   32 1    
    64   32   33 1    
    65   32   34 1    
    66   32  155 1    
    67   33  156 1    
    68   33  157 1    
    69   33  158 1    
    70   34   35 am   BACKBONE|DICT|INTERRES
    71   34  159 1    
    72   35   36 2    
    73   35   37 1    
    74   37   38 1    
    75   37   39 1    
    76   37  160 1    
    77   38  161 1    
    78   38  162 1    
    79   38  163 1    
    80   39   40 am   BACKBONE|DICT|INTERRES
    81   39  164 1    
    82   40   41 2    
    83   40   42 1    
    84   42   43 1    
    85   42   44 1    
    86   42  165 1    
    87   43  166 1    
    88   43  167 1    
    89   43  168 1    
    90   44   45 am   BACKBONE|DICT|INTERRES
    91   44  169 1    
    92   45   46 2    
    93   45   47 1    
    94   47   48 1    
    95   47   49 1    
    96   47  170 1    
    97   48  171 1    
    98   48  172 1    
    99   48  173 1    
   100   49   50 am   BACKBONE|DICT|INTERRES
   101   49  174 1    
   102   50   51 2    
   103   50   52 1    
   104   52   53 1    
   105   52   54 1    
   106   52  175 1    
   107   53  176 1    
   108   53  177 1    
   109   53  178 1    
   110   54   55 am   BACKBONE|DICT|INTERRES
   111   54  179 1    
   112   55   56 2    
   113   55   57 1    
   114   57   58 1    
   115   57   59 1    
   116   57  180 1    
   117   58  181 1    
   118   58  182 1    
   119   58  183 1    
   120   59   60 am   BACKBONE|DICT|INTERRES
   121   59  184 1    
   122   60   61 2    
   123   60   62 1    
   124   62   63 1    
   125   62   64 1    
   126   62  185 1    
   127   63  186 1    
   128   63  187 1    
   129   63  188 1    
   130   64   65 am   BACKBONE|DICT|INTERRES
   131   64  189 1    
   132   65   66 2    
   133   67   68 2    
   134   67   69 am   BACKBONE|DICT|INTERRES
   135   69   70 1    
   136   69  190 1    
   137   70   71 1    
   138   70   72 1    
   139   70  191 1    
   140   71  192 1    
   141   71  193 1    
   142   71  194 1    
   143   72   73 2    
   144   72   74 am   BACKBONE|DICT|INTERRES
   145   74   75 1    
   146   74  195 1    
   147   75   76 1    
   148   75   77 1    
   149   75  196 1    
   150   76  197 1    
   151   76  198 1    
   152   76  199 1    
   153   77   78 2    
   154   77   79 am   BACKBONE|DICT|INTERRES
   155   79   80 1    
   156   79  200 1    
   157   80   81 1    
   158   80   82 1    
   159   80  201 1    
   160   81  202 1    
   161   81  203 1    
   162   81  204 1    
   163   82   83 2    
   164   82   84 am   BACKBONE|DICT|INTERRES
   165   84   85 1    
   166   84  205 1    
   167   85   86 1    
   168   85   87 1    
   169   85  206 1    
   170   86  207 1    
   171   86  208 1    
   172   86  209 1    
   173   87   88 2    
   174   87   89 am   BACKBONE|DICT|INTERRES
   175   89   90 1    
   176   89  210 1    
   177   90   91 1    
   178   90   92 1    
   179   90  211 1    
   180   91  212 1    
   181   91  213 1    
   182   91  214 1    
   183   92   93 2    
   184   92   94 am   BACKBONE|DICT|INTERRES
   185   94   95 1    
   186   94  215 1    
   187   95   96 1    
   188   95   97 1    
   189   95  216 1    
   190   96  217 1    
   191   96  218 1    
   192   96  219 1    
   193   97   98 2    
   194   97   99 am   BACKBONE|DICT|INTERRES
   195   99  100 1    
   196   99  220 1    
   197  100  101 1    
   198  100  102 1    
   199  100  221 1    
   200  101  222 1    
   201  101  223 1    
   202  101  224 1    
   203  102  103 2    
   204  102  104 am   BACKBONE|DICT|INTERRES
   205  104  105 1    
   206  104  225 1    
   207  105  106 1    
   208  105  107 1    
   209  105  226 1    
   210  106  227 1    
   211  106  228 1    
   212  106  229 1    
   213  107  108 2    
   214  107  109 am   BACKBONE|DICT|INTERRES
   215  109  110 1    
   216  109  230 1    
   217  110  111 1    
   218  110  112 1    
   219  110  231 1    
   220  111  232 1    
   221  111  233 1    
   222  111  234 1    
   223  112  113 2    
   224  112  114 am   BACKBONE|DICT|INTERRES
   225  114  115 1    
   226  114  235 1    
   227  115  116 1    
   228  115  117 1    
   229  115  236 1    
   230  116  237 1    
   231  116  238 1    
   232  116  239 1    
   233  117  118 2    
   234  117  119 am   BACKBONE|DICT|INTERRES
   235  119  120 1    
   236  119  240 1    
   237  120  121 1    
   238  120  124 1    
   239  120  241 1    
   240  121  122 am   BACKBONE|DICT|INTERRES
   241  121  123 2    
   242  122  242 1    
   243  122  243 1    
   244  124  125 1    
   245  124  244 1    
   246  124  245 1    
   247  125  126 1    
   248  126  246 1    
   249  126  247 1    
@<TRIPOS>SUBSTRUCTURE
     1 UNK         1 GROUP             0       ****    0 ROOT    
