@<TRIPOS>MOLECULE
3R540
247   249    1
SMALL
USER_CHARGES


@<TRIPOS>ATOM
      1 CA          4.8579   -9.1259  -47.6900 C.3       0 UNK        -0.1800 
      2 C           5.5046  -10.4431  -47.2866 C.2       0 UNK         0.5000 
      3 O           6.6326  -10.4492  -46.7919 O.2       0 UNK        -0.5000 
      4 N           4.7935  -11.5587  -47.4897 N.am      1 UNK        -0.5000 
      5 CA          5.2136  -12.9298  -47.1701 C.3       1 UNK         0.1400 
      6 C6          4.3902  -13.9787  -47.9703 C.3       23 UNK        -0.0398 
      7 S7          4.5051  -13.7291  -49.7745 S.3       23 UNK        -0.2404 
      8 C8          5.1937  -15.3184  -50.3448 C.3       23 UNK        -0.0205 
      9 C9          4.1650  -16.4447  -50.3828 C.ar      23 UNK        -0.0193 
     10 C10         2.9573  -16.2794  -51.0697 C.ar      23 UNK        -0.1150 
     11 C11         2.0350  -17.3254  -51.1539 C.ar      23 UNK        -0.0193 
     12 C12         2.3438  -18.5575  -50.5736 C.ar      23 UNK        -0.1150 
     13 C13         3.5395  -18.7395  -49.8717 C.ar      23 UNK        -0.0193 
     14 C14         4.4422  -17.6741  -49.7749 C.ar      23 UNK        -0.1150 
     15 C15         3.8790  -20.0937  -49.2557 C.3       23 UNK        -0.0205 
     16 S16         2.8491  -20.4976  -47.8033 S.3       23 UNK        -0.2404 
     17 C17         1.3272  -21.1162  -48.5961 C.3       23 UNK        -0.0398 
     18 CA          0.5366  -22.1222  -47.7252 C.3       11 UNK         0.1400 
     19 N          -0.1522  -21.4723  -46.6060 N.am      11 UNK        -0.5000 
     20 C          -0.8901  -22.0957  -45.6764 C.2       10 UNK         0.5000 
     21 O          -1.0153  -23.3181  -45.6090 O.2       10 UNK        -0.5000 
     22 CA         -1.6685  -21.2055  -44.6893 C.3       10 UNK         0.1400 
     23 CB         -0.7694  -20.7574  -43.5279 C.3       10 UNK        -0.1800 
     24 N          -2.2881  -20.0395  -45.3265 N.am      10 UNK        -0.5000 
     25 C          -3.2257  -20.1088  -46.2839 C.2       9 UNK         0.5000 
     26 O          -3.6725  -21.1654  -46.7249 O.2       9 UNK        -0.5000 
     27 CA         -3.7188  -18.7852  -46.8912 C.3       9 UNK         0.1400 
     28 CB         -4.7185  -18.0879  -45.9585 C.3       9 UNK        -0.1800 
     29 N          -2.6199  -17.8790  -47.2114 N.am      9 UNK        -0.5000 
     30 C          -1.6804  -18.1273  -48.1348 C.2       8 UNK         0.5000 
     31 O          -1.6906  -19.1095  -48.8805 O.2       8 UNK        -0.5000 
     32 CA         -0.5190  -17.1208  -48.2115 C.3       8 UNK         0.1400 
     33 CB         -0.9386  -15.8533  -48.9724 C.3       8 UNK        -0.1800 
     34 N          -0.0137  -16.7385  -46.8947 N.am      8 UNK        -0.5000 
     35 C           0.4700  -17.5855  -45.9767 C.2       7 UNK         0.5000 
     36 O           0.5619  -18.7982  -46.1430 O.2       7 UNK        -0.5000 
     37 CA          0.8600  -16.9808  -44.6212 C.3       7 UNK         0.1400 
     38 CB          2.2257  -16.2904  -44.7160 C.3       7 UNK        -0.1800 
     39 N          -0.1533  -16.0402  -44.1422 N.am      7 UNK        -0.5000 
     40 C          -1.3777  -16.4037  -43.7327 C.2       6 UNK         0.5000 
     41 O          -1.7596  -17.5723  -43.6727 O.2       6 UNK        -0.5000 
     42 CA         -2.3545  -15.2700  -43.3734 C.3       6 UNK         0.1400 
     43 CB         -2.1342  -14.7913  -41.9321 C.3       6 UNK        -0.1800 
     44 N          -2.2489  -14.1321  -44.2861 N.am      6 UNK        -0.5000 
     45 C          -2.6286  -14.1668  -45.5711 C.2       5 UNK         0.5000 
     46 O          -3.1278  -15.1546  -46.1102 O.2       5 UNK        -0.5000 
     47 CA         -2.3614  -12.9006  -46.4067 C.3       5 UNK         0.1400 
     48 CB         -3.5229  -11.9062  -46.2655 C.3       5 UNK        -0.1800 
     49 N          -1.1033  -12.2279  -46.0709 N.am      5 UNK        -0.5000 
     50 C           0.1105  -12.7912  -46.1367 C.2       4 UNK         0.5000 
     51 O           0.3003  -13.9616  -46.4643 O.2       4 UNK        -0.5000 
     52 CA          1.3265  -11.9254  -45.7728 C.3       4 UNK         0.1400 
     53 CB          1.0559  -10.4047  -45.7689 C.3       4 UNK        -0.1800 
     54 N           1.9347  -12.3542  -44.5133 N.am      4 UNK        -0.5000 
     55 C           1.4035  -12.3162  -43.2819 C.2       3 UNK         0.5000 
     56 O           0.2344  -12.0028  -43.0532 O.2       3 UNK        -0.5000 
     57 CA          2.3323  -12.6832  -42.1008 C.3       3 UNK         0.1400 
     58 CB          1.8092  -13.9107  -41.3385 C.3       3 UNK        -0.1800 
     59 N           3.7197  -12.9277  -42.5094 N.am      3 UNK        -0.5000 
     60 C           4.6170  -11.9756  -42.8032 C.2       2 UNK         0.5000 
     61 O           4.4008  -10.7702  -42.6736 O.2       2 UNK        -0.5000 
     62 CA          5.9668  -12.4404  -43.3894 C.3       2 UNK         0.1400 
     63 CB          6.4514  -13.7932  -42.8222 C.3       2 UNK        -0.1800 
     64 N           5.9383  -12.4609  -44.8574 N.am      2 UNK        -0.5000 
     65 C           5.1309  -13.1825  -45.6473 C.2       1 UNK         0.5000 
     66 O           4.3022  -13.9780  -45.2090 O.2       1 UNK        -0.5000 
     67 C          -0.4500  -22.9126  -48.6068 C.2       11 UNK         0.5000 
     68 O          -0.2264  -24.0969  -48.8543 O.2       11 UNK        -0.5000 
     69 N          -1.5366  -22.2582  -49.0404 N.am      12 UNK        -0.5000 
     70 CA         -2.5771  -22.8736  -49.8650 C.3       12 UNK         0.1400 
     71 CB         -3.4900  -21.7816  -50.4310 C.3       12 UNK        -0.1800 
     72 C          -3.3856  -23.9557  -49.1276 C.2       12 UNK         0.5000 
     73 O          -3.7694  -24.9493  -49.7460 O.2       12 UNK        -0.5000 
     74 N          -3.6181  -23.7643  -47.8230 N.am      13 UNK        -0.5000 
     75 CA         -4.2560  -24.7424  -46.9425 C.3       13 UNK         0.1400 
     76 CB         -4.5804  -24.0962  -45.5885 C.3       13 UNK        -0.1800 
     77 C          -3.4010  -26.0093  -46.7552 C.2       13 UNK         0.5000 
     78 O          -3.9478  -27.1108  -46.7442 O.2       13 UNK        -0.5000 
     79 N          -2.0775  -25.8415  -46.6469 N.am      14 UNK        -0.5000 
     80 CA         -1.1196  -26.9435  -46.5850 C.3       14 UNK         0.1400 
     81 CB          0.2382  -26.4160  -46.0958 C.3       14 UNK        -0.1800 
     82 C          -0.9724  -27.6684  -47.9358 C.2       14 UNK         0.5000 
     83 O          -0.9375  -28.8993  -47.9624 O.2       14 UNK        -0.5000 
     84 N          -0.8739  -26.8954  -49.0257 N.am      15 UNK        -0.5000 
     85 CA         -0.6127  -27.4006  -50.3716 C.3       15 UNK         0.1400 
     86 CB         -0.0982  -26.2547  -51.2574 C.3       15 UNK        -0.1800 
     87 C          -1.8258  -28.0802  -51.0288 C.2       15 UNK         0.5000 
     88 O          -1.6726  -29.1705  -51.5818 O.2       15 UNK        -0.5000 
     89 N          -2.9872  -27.4129  -51.0011 N.am      16 UNK        -0.5000 
     90 CA         -4.1573  -27.7777  -51.8064 C.3       16 UNK         0.1400 
     91 CB         -4.3524  -26.6939  -52.8817 C.3       16 UNK        -0.1800 
     92 C          -5.4477  -27.9451  -50.9874 C.2       16 UNK         0.5000 
     93 O          -6.4369  -28.4258  -51.5407 O.2       16 UNK        -0.5000 
     94 N          -5.4426  -27.5150  -49.7162 N.am      17 UNK        -0.5000 
     95 CA         -6.5879  -27.4541  -48.7917 C.3       17 UNK         0.1400 
     96 CB         -7.1953  -28.8513  -48.5463 C.3       17 UNK        -0.1800 
     97 C          -7.6559  -26.4057  -49.1767 C.2       17 UNK         0.5000 
     98 O          -8.7146  -26.3603  -48.5490 O.2       17 UNK        -0.5000 
     99 N          -7.3621  -25.5705  -50.1820 N.am      18 UNK        -0.5000 
    100 CA        -8.2628  -24.5444  -50.7049 C.3       18 UNK         0.1400 
    101 CB        -7.8958  -24.2689  -52.1721 C.3       18 UNK        -0.1800 
    102 C         -8.2078  -23.2395  -49.8933 C.2       18 UNK         0.5000 
    103 O         -9.2126  -22.5325  -49.8209 O.2       18 UNK        -0.5000 
    104 N         -7.0243  -22.9308  -49.3371 N.am      19 UNK        -0.5000 
    105 CA        -6.6767  -21.7067  -48.5965 C.3       19 UNK         0.1400 
    106 CB        -7.4736  -21.6145  -47.2803 C.3       19 UNK        -0.1800 
    107 C         -6.7723  -20.4068  -49.4331 C.2       19 UNK         0.5000 
    108 O         -6.7771  -19.3120  -48.8701 O.2       19 UNK        -0.5000 
    109 N         -6.8202  -20.5391  -50.7659 N.am      20 UNK        -0.5000 
    110 CA        -7.1063  -19.4832  -51.7409 C.3       20 UNK         0.1400 
    111 CB        -7.7074  -20.1433  -52.9956 C.3       20 UNK        -0.1800 
    112 C         -5.8967  -18.5806  -52.0721 C.2       20 UNK         0.5000 
    113 O         -5.6819  -18.2467  -53.2394 O.2       20 UNK        -0.5000 
    114 N         -5.1233  -18.2062  -51.0426 N.am      21 UNK        -0.5000 
    115 CA        -4.0010  -17.2554  -51.0643 C.3       21 UNK         0.1400 
    116 CB        -4.5417  -15.8137  -51.1374 C.3       21 UNK        -0.1800 
    117 C         -2.9299  -17.5470  -52.1431 C.2       21 UNK         0.5000 
    118 O         -2.4067  -16.6174  -52.7567 O.2       21 UNK        -0.5000 
    119 N         -2.6667  -18.8416  -52.3639 N.am      22 UNK        -0.5000 
    120 CA        -1.8331  -19.4404  -53.4247 C.3       22 UNK         0.1400 
    121 C         -2.2388  -19.1066  -54.8954 C.2       22 UNK         0.5000 
    122 N         -3.4458  -18.6163  -55.1550 N.am      22 UNK        -0.7600 
    123 O         -1.4739  -19.3466  -55.8258 O.2       22 UNK        -0.5000 
    124 C124       -0.3020  -19.4098  -53.1278 C.3       23 UNK        -0.0398 
    125 S125        0.5833  -17.8477  -53.4830 S.3       23 UNK        -0.2404 
    126 C126        0.6884  -17.1057  -51.8275 C.3       23 UNK        -0.0205 
    127 H127        3.8591   -9.2734  -48.1016 H         1 UNK         0.0600 
    128 H128        5.4660   -8.6244  -48.4428 H         1 UNK         0.0600 
    129 H129        4.7744   -8.4693  -46.8240 H         1 UNK         0.0600 
    130 H130        3.8880  -11.4817  -47.9286 H         1 UNK         0.3000 
    131 H131        6.2614  -13.0448  -47.4558 H         1 UNK         0.0600 
    132 H132        3.3344  -13.9388  -47.6960 H         1 UNK         0.0800 
    133 H133        4.7231  -14.9889  -47.7252 H         1 UNK         0.0800 
    134 H134        5.5843  -15.1815  -51.3539 H         1 UNK         0.0800 
    135 H135        6.0491  -15.5850  -49.7220 H         1 UNK         0.0800 
    136 H136        2.7334  -15.3296  -51.5347 H         1 UNK         0.1150 
    137 H137        1.6458  -19.3730  -50.6675 H         1 UNK         0.1150 
    138 H138        5.3761  -17.8115  -49.2482 H         1 UNK         0.1150 
    139 H139        3.7897  -20.8746  -50.0119 H         1 UNK         0.0800 
    140 H140        4.9232  -20.1072  -48.9402 H         1 UNK         0.0800 
    141 H141        1.6113  -21.5769  -49.5443 H         1 UNK         0.0800 
    142 H142        0.6967  -20.2623  -48.8428 H         1 UNK         0.0800 
    143 H143        1.2387  -22.8445  -47.3037 H         1 UNK         0.0600 
    144 H144       -0.0385  -20.4621  -46.5349 H         1 UNK         0.3000 
    145 H145       -2.4743  -21.8103  -44.2695 H         1 UNK         0.0600 
    146 H146       -1.3362  -20.1979  -42.7838 H         1 UNK         0.0600 
    147 H147       -0.3294  -21.6176  -43.0219 H         1 UNK         0.0600 
    148 H148        0.0494  -20.1254  -43.8703 H         1 UNK         0.0600 
    149 H149       -1.9823  -19.1296  -44.9982 H         1 UNK         0.3000 
    150 H150       -4.2357  -19.0221  -47.8229 H         1 UNK         0.0600 
    151 H151       -5.5525  -18.7481  -45.7175 H         1 UNK         0.0600 
    152 H152       -5.1357  -17.1967  -46.4277 H         1 UNK         0.0600 
    153 H153       -4.2529  -17.7851  -45.0201 H         1 UNK         0.0600 
    154 H154       -2.5700  -17.0176  -46.6766 H         1 UNK         0.3000 
    155 H155        0.2997  -17.6000  -48.7494 H         1 UNK         0.0600 
    156 H156       -1.3562  -16.0880  -49.9499 H         1 UNK         0.0600 
    157 H157       -0.0865  -15.1920  -49.1320 H         1 UNK         0.0600 
    158 H158       -1.6982  -15.2935  -48.4290 H         1 UNK         0.0600 
    159 H159       -0.0111  -15.7429  -46.6814 H         1 UNK         0.3000 
    160 H160        0.9424  -17.7951  -43.8984 H         1 UNK         0.0600 
    161 H161        2.1963  -15.4440  -45.4009 H         1 UNK         0.0600 
    162 H162        2.9865  -16.9789  -45.0859 H         1 UNK         0.0600 
    163 H163        2.5645  -15.9298  -43.7466 H         1 UNK         0.0600 
    164 H164        0.0528  -15.0576  -44.2435 H         1 UNK         0.3000 
    165 H165       -3.3675  -15.6724  -43.4448 H         1 UNK         0.0600 
    166 H166       -2.8931  -14.0659  -41.6384 H         1 UNK         0.0600 
    167 H167       -2.1896  -15.6234  -41.2290 H         1 UNK         0.0600 
    168 H168       -1.1593  -14.3211  -41.8119 H         1 UNK         0.0600 
    169 H169       -1.8182  -13.2901  -43.9277 H         1 UNK         0.3000 
    170 H170       -2.3016  -13.2034  -47.4535 H         1 UNK         0.0600 
    171 H171       -4.4722  -12.3749  -46.5287 H         1 UNK         0.0600 
    172 H172       -3.6124  -11.5334  -45.2444 H         1 UNK         0.0600 
    173 H173       -3.3914  -11.0491  -46.9262 H         1 UNK         0.0600 
    174 H174       -1.1704  -11.2684  -45.7644 H         1 UNK         0.3000 
    175 H175        2.0675  -12.1175  -46.5483 H         1 UNK         0.0600 
    176 H176        0.3521  -10.1070  -44.9912 H         1 UNK         0.0600 
    177 H177        1.9796   -9.8497  -45.6037 H         1 UNK         0.0600 
    178 H178        0.6523  -10.0751  -46.7271 H         1 UNK         0.0600 
    179 H179        2.8628  -12.7550  -44.5987 H         1 UNK         0.3000 
    180 H180        2.3237  -11.8360  -41.4120 H         1 UNK         0.0600 
    181 H181        1.6488  -14.7644  -41.9955 H         1 UNK         0.0600 
    182 H182        0.8592  -13.6854  -40.8541 H         1 UNK         0.0600 
    183 H183        2.5014  -14.2149  -40.5531 H         1 UNK         0.0600 
    184 H184        3.9695  -13.8865  -42.7081 H         1 UNK         0.3000 
    185 H185        6.7028  -11.6866  -43.1056 H         1 UNK         0.0600 
    186 H186        6.4756  -13.7719  -41.7320 H         1 UNK         0.0600 
    187 H187        5.8175  -14.6283  -43.1206 H         1 UNK         0.0600 
    188 H188        7.4633  -14.0141  -43.1617 H         1 UNK         0.0600 
    189 H189        6.5130  -11.7608  -45.3181 H         1 UNK         0.3000 
    190 H190       -1.6611  -21.2831  -48.7910 H         1 UNK         0.3000 
    191 H191       -2.0906  -23.3667  -50.7090 H         1 UNK         0.0600 
    192 H192       -2.9463  -21.1883  -51.1605 H         1 UNK         0.0600 
    193 H193       -4.3557  -22.2067  -50.9401 H         1 UNK         0.0600 
    194 H194       -3.8434  -21.1061  -49.6527 H         1 UNK         0.0600 
    195 H195       -3.3413  -22.8832  -47.3966 H         1 UNK         0.3000 
    196 H196       -5.1996  -25.0354  -47.4047 H         1 UNK         0.0600 
    197 H197       -5.1036  -24.7973  -44.9373 H         1 UNK         0.0600 
    198 H198       -5.2222  -23.2239  -45.7097 H         1 UNK         0.0600 
    199 H199       -3.6776  -23.7771  -45.0687 H         1 UNK         0.0600 
    200 H200       -1.6996  -24.9001  -46.5962 H         1 UNK         0.3000 
    201 H201       -1.4794  -27.6702  -45.8535 H         1 UNK         0.0600 
    202 H202        0.1521  -25.9701  -45.1048 H         1 UNK         0.0600 
    203 H203        0.6438  -25.6581  -46.7668 H         1 UNK         0.0600 
    204 H204        0.9698  -27.2221  -46.0284 H         1 UNK         0.0600 
    205 H205       -0.8472  -25.8858  -48.9072 H         1 UNK         0.3000 
    206 H206        0.1838  -28.1450  -50.3034 H         1 UNK         0.0600 
    207 H207        0.8219  -25.8299  -50.8557 H         1 UNK         0.0600 
    208 H208        0.1203  -26.6066  -52.2664 H         1 UNK         0.0600 
    209 H209       -0.8289  -25.4497  -51.3409 H         1 UNK         0.0600 
    210 H210       -3.0385  -26.5198  -50.5186 H         1 UNK         0.3000 
    211 H211       -3.9970  -28.7305  -52.3146 H         1 UNK         0.0600 
    212 H212       -4.5225  -25.7122  -52.4375 H         1 UNK         0.0600 
    213 H213       -5.2072  -26.9188  -53.5209 H         1 UNK         0.0600 
    214 H214       -3.4774  -26.6202  -53.5277 H         1 UNK         0.0600 
    215 H215       -4.5821  -27.1203  -49.3610 H         1 UNK         0.3000 
    216 H216       -6.1964  -27.1163  -47.8356 H         1 UNK         0.0600 
    217 H217       -7.9119  -28.8253  -47.7247 H         1 UNK         0.0600 
    218 H218       -6.4244  -29.5739  -48.2783 H         1 UNK         0.0600 
    219 H219       -7.7234  -29.2295  -49.4216 H         1 UNK         0.0600 
    220 H220       -6.4715  -25.6820  -50.6433 H         1 UNK         0.3000 
    221 H221       -9.2892  -24.9167  -50.6745 H         1 UNK         0.0600 
    222 H222       -6.8722  -23.9059  -52.2742 H         1 UNK         0.0600 
    223 H223       -7.9911  -25.1714  -52.7763 H         1 UNK         0.0600 
    224 H224       -8.5566  -23.5175  -52.6068 H         1 UNK         0.0600 
    225 H225       -6.2766  -23.5993  -49.4515 H         1 UNK         0.3000 
    226 H226       -5.6289  -21.8117  -48.3241 H         1 UNK         0.0600 
    227 H227       -7.4071  -22.5427  -46.7130 H         1 UNK         0.0600 
    228 H228       -7.0843  -20.8187  -46.6442 H         1 UNK         0.0600 
    229 H229       -8.5285  -21.4048  -47.4583 H         1 UNK         0.0600 
    230 H230       -6.7746  -21.4742  -51.1395 H         1 UNK         0.3000 
    231 H231       -7.8710  -18.8287  -51.3177 H         1 UNK         0.0600 
    232 H232       -6.9888  -20.8001  -53.4875 H         1 UNK         0.0600 
    233 H233       -8.0226  -19.3948  -53.7237 H         1 UNK         0.0600 
    234 H234       -8.5877  -20.7362  -52.7457 H         1 UNK         0.0600 
    235 H235       -5.4186  -18.5247  -50.1256 H         1 UNK         0.3000 
    236 H236       -3.5029  -17.3617  -50.1036 H         1 UNK         0.0600 
    237 H237       -5.2578  -15.6207  -50.3385 H         1 UNK         0.0600 
    238 H238       -3.7372  -15.0849  -51.0307 H         1 UNK         0.0600 
    239 H239       -5.0390  -15.6197  -52.0884 H         1 UNK         0.0600 
    240 H240       -3.1793  -19.5031  -51.8015 H         1 UNK         0.3000 
    241 H241       -2.0979  -20.4961  -53.3602 H         1 UNK         0.0600 
    242 H242       -3.7026  -18.4213  -56.1093 H         1 UNK         0.3800 
    243 H243       -4.1149  -18.4369  -54.4122 H         1 UNK         0.3800 
    244 H244       -0.1291  -19.7051  -52.0932 H         1 UNK         0.0800 
    245 H245        0.1868  -20.1824  -53.7231 H         1 UNK         0.0800 
    246 H246       -0.0982  -17.5193  -51.1987 H         1 UNK         0.0800 
    247 H247        0.4766  -16.0389  -51.9129 H         1 UNK         0.0800 
@<TRIPOS>BOND
     1    1    2 1    
     2    1  127 1    
     3    1  128 1    
     4    1  129 1    
     5    2    3 2    
     6    2    4 am   BACKBONE|DICT|INTERRES
     7    4    5 1    
     8    4  130 1    
     9    5    6 1    
    10    5   65 1    
    11    5  131 1    
    12    6    7 1    
    13    6  132 1    
    14    6  133 1    
    15    7    8 1    
    16    8    9 1    
    17    8  134 1    
    18    8  135 1    
    19    9   10 ar   
    20    9   14 ar   
    21   10   11 ar   
    22   10  136 1    
    23   11   12 ar   
    24   11  126 1    
    25   12   13 ar   
    26   12  137 1    
    27   13   14 ar   
    28   13   15 1    
    29   14  138 1    
    30   15   16 1    
    31   15  139 1    
    32   15  140 1    
    33   16   17 1    
    34   17   18 1    
    35   17  141 1    
    36   17  142 1    
    37   18   19 1    
    38   18   67 1    
    39   18  143 1    
    40   19   20 am   BACKBONE|DICT|INTERRES
    41   19  144 1    
    42   20   21 2    
    43   20   22 1    
    44   22   23 1    
    45   22   24 1    
    46   22  145 1    
    47   23  146 1    
    48   23  147 1    
    49   23  148 1    
    50   24   25 am   BACKBONE|DICT|INTERRES
    51   24  149 1    
    52   25   26 2    
    53   25   27 1    
    54   27   28 1    
    55   27   29 1    
    56   27  150 1    
    57   28  151 1    
    58   28  152 1    
    59   28  153 1    
    60   29   30 am   BACKBONE|DICT|INTERRES
    61   29  154 1    
    62   30   31 2    
    63   30   32 1    
    64   32   33 1    
    65   32   34 1    
    66   32  155 1    
    67   33  156 1    
    68   33  157 1    
    69   33  158 1    
    70   34   35 am   BACKBONE|DICT|INTERRES
    71   34  159 1    
    72   35   36 2    
    73   35   37 1    
    74   37   38 1    
    75   37   39 1    
    76   37  160 1    
    77   38  161 1    
    78   38  162 1    
    79   38  163 1    
    80   39   40 am   BACKBONE|DICT|INTERRES
    81   39  164 1    
    82   40   41 2    
    83   40   42 1    
    84   42   43 1    
    85   42   44 1    
    86   42  165 1    
    87   43  166 1    
    88   43  167 1    
    89   43  168 1    
    90   44   45 am   BACKBONE|DICT|INTERRES
    91   44  169 1    
    92   45   46 2    
    93   45   47 1    
    94   47   48 1    
    95   47   49 1    
    96   47  170 1    
    97   48  171 1    
    98   48  172 1    
    99   48  173 1    
   100   49   50 am   BACKBONE|DICT|INTERRES
   101   49  174 1    
   102   50   51 2    
   103   50   52 1    
   104   52   53 1    
   105   52   54 1    
   106   52  175 1    
   107   53  176 1    
   108   53  177 1    
   109   53  178 1    
   110   54   55 am   BACKBONE|DICT|INTERRES
   111   54  179 1    
   112   55   56 2    
   113   55   57 1    
   114   57   58 1    
   115   57   59 1    
   116   57  180 1    
   117   58  181 1    
   118   58  182 1    
   119   58  183 1    
   120   59   60 am   BACKBONE|DICT|INTERRES
   121   59  184 1    
   122   60   61 2    
   123   60   62 1    
   124   62   63 1    
   125   62   64 1    
   126   62  185 1    
   127   63  186 1    
   128   63  187 1    
   129   63  188 1    
   130   64   65 am   BACKBONE|DICT|INTERRES
   131   64  189 1    
   132   65   66 2    
   133   67   68 2    
   134   67   69 am   BACKBONE|DICT|INTERRES
   135   69   70 1    
   136   69  190 1    
   137   70   71 1    
   138   70   72 1    
   139   70  191 1    
   140   71  192 1    
   141   71  193 1    
   142   71  194 1    
   143   72   73 2    
   144   72   74 am   BACKBONE|DICT|INTERRES
   145   74   75 1    
   146   74  195 1    
   147   75   76 1    
   148   75   77 1    
   149   75  196 1    
   150   76  197 1    
   151   76  198 1    
   152   76  199 1    
   153   77   78 2    
   154   77   79 am   BACKBONE|DICT|INTERRES
   155   79   80 1    
   156   79  200 1    
   157   80   81 1    
   158   80   82 1    
   159   80  201 1    
   160   81  202 1    
   161   81  203 1    
   162   81  204 1    
   163   82   83 2    
   164   82   84 am   BACKBONE|DICT|INTERRES
   165   84   85 1    
   166   84  205 1    
   167   85   86 1    
   168   85   87 1    
   169   85  206 1    
   170   86  207 1    
   171   86  208 1    
   172   86  209 1    
   173   87   88 2    
   174   87   89 am   BACKBONE|DICT|INTERRES
   175   89   90 1    
   176   89  210 1    
   177   90   91 1    
   178   90   92 1    
   179   90  211 1    
   180   91  212 1    
   181   91  213 1    
   182   91  214 1    
   183   92   93 2    
   184   92   94 am   BACKBONE|DICT|INTERRES
   185   94   95 1    
   186   94  215 1    
   187   95   96 1    
   188   95   97 1    
   189   95  216 1    
   190   96  217 1    
   191   96  218 1    
   192   96  219 1    
   193   97   98 2    
   194   97   99 am   BACKBONE|DICT|INTERRES
   195   99  100 1    
   196   99  220 1    
   197  100  101 1    
   198  100  102 1    
   199  100  221 1    
   200  101  222 1    
   201  101  223 1    
   202  101  224 1    
   203  102  103 2    
   204  102  104 am   BACKBONE|DICT|INTERRES
   205  104  105 1    
   206  104  225 1    
   207  105  106 1    
   208  105  107 1    
   209  105  226 1    
   210  106  227 1    
   211  106  228 1    
   212  106  229 1    
   213  107  108 2    
   214  107  109 am   BACKBONE|DICT|INTERRES
   215  109  110 1    
   216  109  230 1    
   217  110  111 1    
   218  110  112 1    
   219  110  231 1    
   220  111  232 1    
   221  111  233 1    
   222  111  234 1    
   223  112  113 2    
   224  112  114 am   BACKBONE|DICT|INTERRES
   225  114  115 1    
   226  114  235 1    
   227  115  116 1    
   228  115  117 1    
   229  115  236 1    
   230  116  237 1    
   231  116  238 1    
   232  116  239 1    
   233  117  118 2    
   234  117  119 am   BACKBONE|DICT|INTERRES
   235  119  120 1    
   236  119  240 1    
   237  120  121 1    
   238  120  124 1    
   239  120  241 1    
   240  121  122 am   BACKBONE|DICT|INTERRES
   241  121  123 2    
   242  122  242 1    
   243  122  243 1    
   244  124  125 1    
   245  124  244 1    
   246  124  245 1    
   247  125  126 1    
   248  126  246 1    
   249  126  247 1    
@<TRIPOS>SUBSTRUCTURE
     1 UNK         1 GROUP             0       ****    0 ROOT    
