@<TRIPOS>MOLECULE
3R540
247   249    1
SMALL
USER_CHARGES


@<TRIPOS>ATOM
      1 CA          3.3619  -13.4478  -55.5450 C.3       0 UNK        -0.1800 
      2 C           3.3364  -13.9809  -54.1192 C.2       0 UNK         0.5000 
      3 O           4.3740  -14.0080  -53.4567 O.2       0 UNK        -0.5000 
      4 N           2.1593  -14.4110  -53.6486 N.am      1 UNK        -0.5000 
      5 CA          1.9272  -14.8908  -52.2846 C.3       1 UNK         0.1400 
      6 C6          0.5719  -15.6363  -52.1830 C.3       23 UNK        -0.0398 
      7 S7          0.3485  -16.5003  -50.5907 S.3       23 UNK        -0.2404 
      8 C8          0.2650  -18.2442  -51.1053 C.3       23 UNK        -0.0205 
      9 C9          0.1418  -19.1498  -49.8918 C.ar      23 UNK        -0.0193 
     10 C10        -1.0424  -19.1603  -49.1485 C.ar      23 UNK        -0.1150 
     11 C11        -1.1387  -19.9289  -47.9875 C.ar      23 UNK        -0.0193 
     12 C12        -0.0606  -20.7245  -47.6014 C.ar      23 UNK        -0.1150 
     13 C13         1.1283  -20.7431  -48.3398 C.ar      23 UNK        -0.0193 
     14 C14         1.2189  -19.9463  -49.4869 C.ar      23 UNK        -0.1150 
     15 C15         2.3175  -21.6170  -47.9379 C.3       23 UNK        -0.0205 
     16 S16         2.4815  -21.8861  -46.1371 S.3       23 UNK        -0.2404 
     17 C17         2.0735  -23.6633  -45.9340 C.3       23 UNK        -0.0398 
     18 CA          0.5710  -24.0046  -45.6993 C.3       11 UNK         0.1400 
     19 N          -0.0662  -23.0294  -44.8050 N.am      11 UNK        -0.5000 
     20 C          -1.1872  -23.1662  -44.0877 C.2       10 UNK         0.5000 
     21 O          -1.8634  -24.1962  -44.0812 O.2       10 UNK        -0.5000 
     22 CA         -1.6387  -21.9316  -43.2776 C.3       10 UNK         0.1400 
     23 CB         -2.5220  -22.2969  -42.0680 C.3       10 UNK        -0.1800 
     24 N          -0.5391  -21.0493  -42.8695 N.am      10 UNK        -0.5000 
     25 C           0.4917  -21.3402  -42.0607 C.2       9 UNK         0.5000 
     26 O           0.6998  -22.4521  -41.5742 O.2       9 UNK        -0.5000 
     27 CA          1.4394  -20.1739  -41.7193 C.3       9 UNK         0.1400 
     28 CB          2.4682  -19.9559  -42.8394 C.3       9 UNK        -0.1800 
     29 N           0.7150  -18.9261  -41.4679 N.am      9 UNK        -0.5000 
     30 C          -0.0652  -18.7044  -40.3994 C.2       8 UNK         0.5000 
     31 O          -0.1906  -19.4995  -39.4672 O.2       8 UNK        -0.5000 
     32 CA         -0.8503  -17.3808  -40.3696 C.3       8 UNK         0.1400 
     33 CB         -0.0242  -16.2641  -39.7128 C.3       8 UNK        -0.1800 
     34 N          -1.2689  -16.9608  -41.7067 N.am      8 UNK        -0.5000 
     35 C          -2.3127  -17.4838  -42.3668 C.2       7 UNK         0.5000 
     36 O          -3.0617  -18.3391  -41.8944 O.2       7 UNK        -0.5000 
     37 CA         -2.5565  -16.9743  -43.8009 C.3       7 UNK         0.1400 
     38 CB         -3.4460  -15.7218  -43.7599 C.3       7 UNK        -0.1800 
     39 N          -1.3235  -16.6716  -44.5329 N.am      7 UNK        -0.5000 
     40 C          -0.3515  -17.5573  -44.7978 C.2       6 UNK         0.5000 
     41 O          -0.4158  -18.7471  -44.4928 O.2       6 UNK        -0.5000 
     42 CA          0.9388  -17.0177  -45.4402 C.3       6 UNK         0.1400 
     43 CB          0.8291  -16.9871  -46.9664 C.3       6 UNK        -0.1800 
     44 N           1.3077  -15.6882  -44.9632 N.am      6 UNK        -0.5000 
     45 C           1.6294  -15.3861  -43.6993 C.2       5 UNK         0.5000 
     46 O           1.6033  -16.1996  -42.7753 O.2       5 UNK        -0.5000 
     47 CA          2.0218  -13.9263  -43.4263 C.3       5 UNK         0.1400 
     48 CB          3.4866  -13.6771  -43.8178 C.3       5 UNK        -0.1800 
     49 N           1.1600  -13.0085  -44.1698 N.am      5 UNK        -0.5000 
     50 C          -0.0085  -12.5376  -43.7162 C.2       4 UNK         0.5000 
     51 O          -0.4499  -12.7713  -42.5906 O.2       4 UNK        -0.5000 
     52 CA         -0.8328  -11.6669  -44.6855 C.3       4 UNK         0.1400 
     53 CB         -0.4432  -10.1877  -44.5442 C.3       4 UNK        -0.1800 
     54 N          -0.7073  -12.0637  -46.0903 N.am      4 UNK        -0.5000 
     55 C          -1.1279  -13.2347  -46.5873 C.2       3 UNK         0.5000 
     56 O          -1.6424  -14.1208  -45.9075 O.2       3 UNK        -0.5000 
     57 CA         -0.9042  -13.4752  -48.0911 C.3       3 UNK         0.1400 
     58 CB         -2.0206  -12.8140  -48.9135 C.3       3 UNK        -0.1800 
     59 N           0.3935  -13.0455  -48.6223 N.am      3 UNK        -0.5000 
     60 C           1.6064  -13.2863  -48.1052 C.2       2 UNK         0.5000 
     61 O           1.7984  -13.7587  -46.9838 O.2       2 UNK        -0.5000 
     62 CA          2.7996  -13.0006  -49.0380 C.3       2 UNK         0.1400 
     63 CB          4.1559  -13.1702  -48.3297 C.3       2 UNK        -0.1800 
     64 N           2.7504  -13.9039  -50.1888 N.am      2 UNK        -0.5000 
     65 C           2.0027  -13.7165  -51.2837 C.2       1 UNK         0.5000 
     66 O           1.3457  -12.6928  -51.4917 O.2       1 UNK        -0.5000 
     67 C          -0.2224  -24.2697  -47.0075 C.2       11 UNK         0.5000 
     68 O           0.3615  -24.3196  -48.0912 O.2       11 UNK        -0.5000 
     69 N          -1.5430  -24.4657  -46.8913 N.am      12 UNK        -0.5000 
     70 CA         -2.4971  -24.6501  -47.9902 C.3       12 UNK         0.1400 
     71 CB         -3.9060  -24.8362  -47.4067 C.3       12 UNK        -0.1800 
     72 C          -2.1594  -25.8175  -48.9356 C.2       12 UNK         0.5000 
     73 O          -2.3752  -25.7051  -50.1425 O.2       12 UNK        -0.5000 
     74 N          -1.6022  -26.8999  -48.3753 N.am      13 UNK        -0.5000 
     75 CA         -1.1568  -28.0848  -49.1104 C.3       13 UNK         0.1400 
     76 CB         -0.8198  -29.1990  -48.1080 C.3       13 UNK        -0.1800 
     77 C           0.0424  -27.8139  -50.0399 C.2       13 UNK         0.5000 
     78 O           0.1542  -28.4614  -51.0814 O.2       13 UNK        -0.5000 
     79 N           0.9059  -26.8626  -49.6581 N.am      14 UNK        -0.5000 
     80 CA          2.0280  -26.3995  -50.4738 C.3       14 UNK         0.1400 
     81 CB          3.1437  -25.8711  -49.5590 C.3       14 UNK        -0.1800 
     82 C           1.5819  -25.3142  -51.4678 C.2       14 UNK         0.5000 
     83 O           2.0872  -25.2762  -52.5901 O.2       14 UNK        -0.5000 
     84 N           0.6443  -24.4575  -51.0379 N.am      15 UNK        -0.5000 
     85 CA          0.0745  -23.3685  -51.8293 C.3       15 UNK         0.1400 
     86 CB         -0.8126  -22.5026  -50.9251 C.3       15 UNK        -0.1800 
     87 C          -0.7484  -23.8637  -53.0294 C.2       15 UNK         0.5000 
     88 O          -0.6431  -23.2901  -54.1141 O.2       15 UNK        -0.5000 
     89 N          -1.5791  -24.8901  -52.7927 N.am      16 UNK        -0.5000 
     90 CA         -2.5481  -25.5268  -53.6928 C.3       16 UNK         0.1400 
     91 CB         -1.8612  -26.1436  -54.9262 C.3       16 UNK        -0.1800 
     92 C          -3.7193  -24.6060  -54.0903 C.2       16 UNK         0.5000 
     93 O          -4.8764  -24.9704  -53.8796 O.2       16 UNK        -0.5000 
     94 N          -3.4032  -23.4253  -54.6358 N.am      17 UNK        -0.5000 
     95 CA         -4.3584  -22.3744  -54.9899 C.3       17 UNK         0.1400 
     96 CB         -3.7049  -21.4336  -56.0137 C.3       17 UNK        -0.1800 
     97 C          -4.8424  -21.5759  -53.7645 C.2       17 UNK         0.5000 
     98 O          -5.9314  -21.0046  -53.8092 O.2       17 UNK        -0.5000 
     99 N          -4.0147  -21.5306  -52.7082 N.am      18 UNK        -0.5000 
    100 CA        -4.2391  -20.9178  -51.3887 C.3       18 UNK         0.1400 
    101 CB        -5.4422  -21.5750  -50.6894 C.3       18 UNK        -0.1800 
    102 C         -4.3463  -19.3771  -51.3636 C.2       18 UNK         0.5000 
    103 O         -4.4053  -18.8052  -50.2741 O.2       18 UNK        -0.5000 
    104 N         -4.3766  -18.7286  -52.5388 N.am      19 UNK        -0.5000 
    105 CA        -4.3729  -17.2769  -52.7851 C.3       19 UNK         0.1400 
    106 CB        -2.9830  -16.6983  -52.4513 C.3       19 UNK        -0.1800 
    107 C         -5.5072  -16.4863  -52.0916 C.2       19 UNK         0.5000 
    108 O         -5.3800  -15.2753  -51.9070 O.2       19 UNK        -0.5000 
    109 N         -6.5763  -17.1907  -51.6881 N.am      20 UNK        -0.5000 
    110 CA        -7.6709  -16.7404  -50.8165 C.3       20 UNK         0.1400 
    111 CB        -8.4937  -15.6207  -51.4872 C.3       20 UNK        -0.1800 
    112 C         -7.2187  -16.3654  -49.3831 C.2       20 UNK         0.5000 
    113 O         -7.9966  -15.7663  -48.6391 O.2       20 UNK        -0.5000 
    114 N         -5.9878  -16.7397  -49.0087 N.am      21 UNK        -0.5000 
    115 CA        -5.3890  -16.5050  -47.6965 C.3       21 UNK         0.1400 
    116 CB        -3.8839  -16.2536  -47.8855 C.3       21 UNK        -0.1800 
    117 C         -5.6404  -17.6827  -46.7380 C.2       21 UNK         0.5000 
    118 O         -5.6939  -17.4745  -45.5263 O.2       21 UNK        -0.5000 
    119 N         -5.8075  -18.8894  -47.2908 N.am      22 UNK        -0.5000 
    120 CA        -6.0676  -20.1353  -46.5506 C.3       22 UNK         0.1400 
    121 C         -7.0891  -21.0761  -47.2526 C.2       22 UNK         0.5000 
    122 N         -7.8708  -20.5964  -48.2132 N.am      22 UNK        -0.7600 
    123 O         -7.2014  -22.2494  -46.9088 O.2       22 UNK        -0.5000 
    124 C124       -4.7604  -20.8401  -46.0946 C.3       23 UNK        -0.0398 
    125 S125       -3.5638  -21.1584  -47.4404 S.3       23 UNK        -0.2404 
    126 C126       -2.3646  -19.8451  -47.0974 C.3       23 UNK        -0.0205 
    127 H127        3.6936  -12.4095  -55.5511 H         1 UNK         0.0600 
    128 H128        4.0540  -14.0316  -56.1518 H         1 UNK         0.0600 
    129 H129        2.3782  -13.4931  -56.0129 H         1 UNK         0.0600 
    130 H130        1.3388  -14.3314  -54.2319 H         1 UNK         0.3000 
    131 H131        2.7211  -15.6037  -52.0501 H         1 UNK         0.0600 
    132 H132        0.4910  -16.3655  -52.9904 H         1 UNK         0.0800 
    133 H133       -0.2627  -14.9464  -52.3209 H         1 UNK         0.0800 
    134 H134        1.1541  -18.4950  -51.6858 H         1 UNK         0.0800 
    135 H135       -0.5928  -18.4003  -51.7592 H         1 UNK         0.0800 
    136 H136       -1.8678  -18.5317  -49.4492 H         1 UNK         0.1150 
    137 H137       -0.1551  -21.3120  -46.7061 H         1 UNK         0.1150 
    138 H138        2.1337  -19.9404  -50.0624 H         1 UNK         0.1150 
    139 H139        2.2503  -22.5686  -48.4642 H         1 UNK         0.0800 
    140 H140        3.2410  -21.1484  -48.2806 H         1 UNK         0.0800 
    141 H141        2.6271  -23.9875  -45.0519 H         1 UNK         0.0800 
    142 H142        2.5086  -24.2423  -46.7490 H         1 UNK         0.0800 
    143 H143        0.5534  -24.9626  -45.1758 H         1 UNK         0.0600 
    144 H144        0.4157  -22.1435  -44.7425 H         1 UNK         0.3000 
    145 H145       -2.2520  -21.3409  -43.9591 H         1 UNK         0.0600 
    146 H146       -2.8422  -21.4028  -41.5324 H         1 UNK         0.0600 
    147 H147       -3.4229  -22.8239  -42.3843 H         1 UNK         0.0600 
    148 H148       -1.9962  -22.9409  -41.3626 H         1 UNK         0.0600 
    149 H149       -0.5624  -20.1164  -43.2784 H         1 UNK         0.3000 
    150 H150        1.9826  -20.4387  -40.8097 H         1 UNK         0.0600 
    151 H151        3.0661  -20.8542  -42.9976 H         1 UNK         0.0600 
    152 H152        3.1549  -19.1456  -42.5937 H         1 UNK         0.0600 
    153 H153        1.9906  -19.7133  -43.7883 H         1 UNK         0.0600 
    154 H154        0.7902  -18.2006  -42.1697 H         1 UNK         0.3000 
    155 H155       -1.7423  -17.5369  -39.7590 H         1 UNK         0.0600 
    156 H156        0.9058  -16.0752  -40.2486 H         1 UNK         0.0600 
    157 H157        0.2390  -16.5289  -38.6880 H         1 UNK         0.0600 
    158 H158       -0.5842  -15.3295  -39.6735 H         1 UNK         0.0600 
    159 H159       -0.6758  -16.2927  -42.1798 H         1 UNK         0.3000 
    160 H160       -3.0850  -17.7578  -44.3477 H         1 UNK         0.0600 
    161 H161       -3.7406  -15.4089  -44.7604 H         1 UNK         0.0600 
    162 H162       -2.9375  -14.8823  -43.2837 H         1 UNK         0.0600 
    163 H163       -4.3646  -15.9122  -43.2033 H         1 UNK         0.0600 
    164 H164       -1.2215  -15.7169  -44.8661 H         1 UNK         0.3000 
    165 H165        1.7531  -17.6945  -45.1751 H         1 UNK         0.0600 
    166 H166        1.6986  -16.5172  -47.4259 H         1 UNK         0.0600 
    167 H167        0.7779  -17.9999  -47.3548 H         1 UNK         0.0600 
    168 H168       -0.0616  -16.4568  -47.3015 H         1 UNK         0.0600 
    169 H169        1.3850  -14.9611  -45.6706 H         1 UNK         0.3000 
    170 H170        1.9224  -13.7432  -42.3542 H         1 UNK         0.0600 
    171 H171        4.1545  -14.3444  -43.2716 H         1 UNK         0.0600 
    172 H172        3.6562  -13.8419  -44.8827 H         1 UNK         0.0600 
    173 H173        3.7866  -12.6552  -43.5860 H         1 UNK         0.0600 
    174 H174        1.4130  -12.8349  -45.1354 H         1 UNK         0.3000 
    175 H175       -1.8829  -11.7705  -44.4040 H         1 UNK         0.0600 
    176 H176       -1.0812   -9.5510  -45.1573 H         1 UNK         0.0600 
    177 H177       -0.5486   -9.8530  -43.5113 H         1 UNK         0.0600 
    178 H178        0.5918  -10.0141  -44.8416 H         1 UNK         0.0600 
    179 H179       -0.2744  -11.4019  -46.7174 H         1 UNK         0.3000 
    180 H180       -0.9697  -14.5518  -48.2544 H         1 UNK         0.0600 
    181 H181       -1.9373  -11.7267  -48.9016 H         1 UNK         0.0600 
    182 H182       -3.0063  -13.0685  -48.5226 H         1 UNK         0.0600 
    183 H183       -1.9897  -13.1422  -49.9528 H         1 UNK         0.0600 
    184 H184        0.3753  -12.6734  -49.5645 H         1 UNK         0.3000 
    185 H185        2.7230  -11.9649  -49.3756 H         1 UNK         0.0600 
    186 H186        4.3012  -14.1903  -47.9714 H         1 UNK         0.0600 
    187 H187        4.9820  -12.9295  -48.9989 H         1 UNK         0.0600 
    188 H188        4.2319  -12.5058  -47.4679 H         1 UNK         0.0600 
    189 H189        3.2291  -14.7859  -50.0751 H         1 UNK         0.3000 
    190 H190       -1.9306  -24.4381  -45.9523 H         1 UNK         0.3000 
    191 H191       -2.4883  -23.7339  -48.5818 H         1 UNK         0.0600 
    192 H192       -3.9779  -25.7472  -46.8113 H         1 UNK         0.0600 
    193 H193       -4.6516  -24.8999  -48.2004 H         1 UNK         0.0600 
    194 H194       -4.1871  -24.0001  -46.7671 H         1 UNK         0.0600 
    195 H195       -1.4606  -26.9019  -47.3760 H         1 UNK         0.3000 
    196 H196       -1.9862  -28.4251  -49.7341 H         1 UNK         0.0600 
    197 H197       -0.5075  -30.1076  -48.6246 H         1 UNK         0.0600 
    198 H198       -1.6855  -29.4556  -47.4971 H         1 UNK         0.0600 
    199 H199       -0.0096  -28.9071  -47.4386 H         1 UNK         0.0600 
    200 H200        0.7111  -26.3331  -48.8182 H         1 UNK         0.3000 
    201 H201        2.4320  -27.2382  -51.0451 H         1 UNK         0.0600 
    202 H202        3.4636  -26.6306  -48.8457 H         1 UNK         0.0600 
    203 H203        2.8244  -24.9941  -48.9970 H         1 UNK         0.0600 
    204 H204        4.0188  -25.5825  -50.1424 H         1 UNK         0.0600 
    205 H205        0.3393  -24.5242  -50.0726 H         1 UNK         0.3000 
    206 H206        0.8997  -22.7561  -52.1984 H         1 UNK         0.0600 
    207 H207       -0.3266  -22.2975  -49.9752 H         1 UNK         0.0600 
    208 H208       -1.0297  -21.5446  -51.3980 H         1 UNK         0.0600 
    209 H209       -1.7627  -22.9865  -50.7000 H         1 UNK         0.0600 
    210 H210       -1.6312  -25.2270  -51.8338 H         1 UNK         0.3000 
    211 H211       -2.9779  -26.3486  -53.1177 H         1 UNK         0.0600 
    212 H212       -1.4117  -25.3875  -55.5700 H         1 UNK         0.0600 
    213 H213       -2.5786  -26.6996  -55.5309 H         1 UNK         0.0600 
    214 H214       -1.0765  -26.8399  -54.6299 H         1 UNK         0.0600 
    215 H215       -2.4144  -23.2149  -54.7466 H         1 UNK         0.3000 
    216 H216       -5.2328  -22.8346  -55.4550 H         1 UNK         0.0600 
    217 H217       -4.3950  -20.6456  -56.3184 H         1 UNK         0.0600 
    218 H218       -3.4134  -21.9744  -56.9143 H         1 UNK         0.0600 
    219 H219       -2.8134  -20.9530  -55.6085 H         1 UNK         0.0600 
    220 H220       -3.1347  -22.0132  -52.8107 H         1 UNK         0.3000 
    221 H221       -3.3579  -21.1509  -50.7915 H         1 UNK         0.0600 
    222 H222       -6.3843  -21.3468  -51.1881 H         1 UNK         0.0600 
    223 H223       -5.3330  -22.6588  -50.6496 H         1 UNK         0.0600 
    224 H224       -5.5261  -21.2244  -49.6632 H         1 UNK         0.0600 
    225 H225       -4.4074  -19.3057  -53.3674 H         1 UNK         0.3000 
    226 H226       -4.5357  -17.1492  -53.8560 H         1 UNK         0.0600 
    227 H227       -2.2029  -17.2106  -53.0130 H         1 UNK         0.0600 
    228 H228       -2.9170  -15.6411  -52.7103 H         1 UNK         0.0600 
    229 H229       -2.7525  -16.7900  -51.3891 H         1 UNK         0.0600 
    230 H230       -6.5729  -18.1783  -51.9014 H         1 UNK         0.3000 
    231 H231       -8.3295  -17.6022  -50.7015 H         1 UNK         0.0600 
    232 H232       -8.7984  -15.9041  -52.4946 H         1 UNK         0.0600 
    233 H233       -7.9335  -14.6880  -51.5549 H         1 UNK         0.0600 
    234 H234       -9.4026  -15.4119  -50.9221 H         1 UNK         0.0600 
    235 H235       -5.4209  -17.2718  -49.6627 H         1 UNK         0.3000 
    236 H236       -5.8254  -15.6125  -47.2432 H         1 UNK         0.0600 
    237 H237       -3.3634  -16.1787  -46.9309 H         1 UNK         0.0600 
    238 H238       -3.4095  -17.0491  -48.4577 H         1 UNK         0.0600 
    239 H239       -3.7129  -15.3232  -48.4248 H         1 UNK         0.0600 
    240 H240       -5.6792  -18.9896  -48.2890 H         1 UNK         0.3000 
    241 H241       -6.5977  -19.8635  -45.6360 H         1 UNK         0.0600 
    242 H242       -8.5387  -21.2103  -48.6523 H         1 UNK         0.3800 
    243 H243       -7.8528  -19.6206  -48.4559 H         1 UNK         0.3800 
    244 H244       -4.2832  -20.2299  -45.3269 H         1 UNK         0.0800 
    245 H245       -4.9805  -21.7874  -45.6003 H         1 UNK         0.0800 
    246 H246       -2.8445  -18.8745  -47.2047 H         1 UNK         0.0800 
    247 H247       -2.0570  -19.9182  -46.0553 H         1 UNK         0.0800 
@<TRIPOS>BOND
     1    1    2 1    
     2    1  127 1    
     3    1  128 1    
     4    1  129 1    
     5    2    3 2    
     6    2    4 am   BACKBONE|DICT|INTERRES
     7    4    5 1    
     8    4  130 1    
     9    5    6 1    
    10    5   65 1    
    11    5  131 1    
    12    6    7 1    
    13    6  132 1    
    14    6  133 1    
    15    7    8 1    
    16    8    9 1    
    17    8  134 1    
    18    8  135 1    
    19    9   10 ar   
    20    9   14 ar   
    21   10   11 ar   
    22   10  136 1    
    23   11   12 ar   
    24   11  126 1    
    25   12   13 ar   
    26   12  137 1    
    27   13   14 ar   
    28   13   15 1    
    29   14  138 1    
    30   15   16 1    
    31   15  139 1    
    32   15  140 1    
    33   16   17 1    
    34   17   18 1    
    35   17  141 1    
    36   17  142 1    
    37   18   19 1    
    38   18   67 1    
    39   18  143 1    
    40   19   20 am   BACKBONE|DICT|INTERRES
    41   19  144 1    
    42   20   21 2    
    43   20   22 1    
    44   22   23 1    
    45   22   24 1    
    46   22  145 1    
    47   23  146 1    
    48   23  147 1    
    49   23  148 1    
    50   24   25 am   BACKBONE|DICT|INTERRES
    51   24  149 1    
    52   25   26 2    
    53   25   27 1    
    54   27   28 1    
    55   27   29 1    
    56   27  150 1    
    57   28  151 1    
    58   28  152 1    
    59   28  153 1    
    60   29   30 am   BACKBONE|DICT|INTERRES
    61   29  154 1    
    62   30   31 2    
    63   30   32 1    
    64   32   33 1    
    65   32   34 1    
    66   32  155 1    
    67   33  156 1    
    68   33  157 1    
    69   33  158 1    
    70   34   35 am   BACKBONE|DICT|INTERRES
    71   34  159 1    
    72   35   36 2    
    73   35   37 1    
    74   37   38 1    
    75   37   39 1    
    76   37  160 1    
    77   38  161 1    
    78   38  162 1    
    79   38  163 1    
    80   39   40 am   BACKBONE|DICT|INTERRES
    81   39  164 1    
    82   40   41 2    
    83   40   42 1    
    84   42   43 1    
    85   42   44 1    
    86   42  165 1    
    87   43  166 1    
    88   43  167 1    
    89   43  168 1    
    90   44   45 am   BACKBONE|DICT|INTERRES
    91   44  169 1    
    92   45   46 2    
    93   45   47 1    
    94   47   48 1    
    95   47   49 1    
    96   47  170 1    
    97   48  171 1    
    98   48  172 1    
    99   48  173 1    
   100   49   50 am   BACKBONE|DICT|INTERRES
   101   49  174 1    
   102   50   51 2    
   103   50   52 1    
   104   52   53 1    
   105   52   54 1    
   106   52  175 1    
   107   53  176 1    
   108   53  177 1    
   109   53  178 1    
   110   54   55 am   BACKBONE|DICT|INTERRES
   111   54  179 1    
   112   55   56 2    
   113   55   57 1    
   114   57   58 1    
   115   57   59 1    
   116   57  180 1    
   117   58  181 1    
   118   58  182 1    
   119   58  183 1    
   120   59   60 am   BACKBONE|DICT|INTERRES
   121   59  184 1    
   122   60   61 2    
   123   60   62 1    
   124   62   63 1    
   125   62   64 1    
   126   62  185 1    
   127   63  186 1    
   128   63  187 1    
   129   63  188 1    
   130   64   65 am   BACKBONE|DICT|INTERRES
   131   64  189 1    
   132   65   66 2    
   133   67   68 2    
   134   67   69 am   BACKBONE|DICT|INTERRES
   135   69   70 1    
   136   69  190 1    
   137   70   71 1    
   138   70   72 1    
   139   70  191 1    
   140   71  192 1    
   141   71  193 1    
   142   71  194 1    
   143   72   73 2    
   144   72   74 am   BACKBONE|DICT|INTERRES
   145   74   75 1    
   146   74  195 1    
   147   75   76 1    
   148   75   77 1    
   149   75  196 1    
   150   76  197 1    
   151   76  198 1    
   152   76  199 1    
   153   77   78 2    
   154   77   79 am   BACKBONE|DICT|INTERRES
   155   79   80 1    
   156   79  200 1    
   157   80   81 1    
   158   80   82 1    
   159   80  201 1    
   160   81  202 1    
   161   81  203 1    
   162   81  204 1    
   163   82   83 2    
   164   82   84 am   BACKBONE|DICT|INTERRES
   165   84   85 1    
   166   84  205 1    
   167   85   86 1    
   168   85   87 1    
   169   85  206 1    
   170   86  207 1    
   171   86  208 1    
   172   86  209 1    
   173   87   88 2    
   174   87   89 am   BACKBONE|DICT|INTERRES
   175   89   90 1    
   176   89  210 1    
   177   90   91 1    
   178   90   92 1    
   179   90  211 1    
   180   91  212 1    
   181   91  213 1    
   182   91  214 1    
   183   92   93 2    
   184   92   94 am   BACKBONE|DICT|INTERRES
   185   94   95 1    
   186   94  215 1    
   187   95   96 1    
   188   95   97 1    
   189   95  216 1    
   190   96  217 1    
   191   96  218 1    
   192   96  219 1    
   193   97   98 2    
   194   97   99 am   BACKBONE|DICT|INTERRES
   195   99  100 1    
   196   99  220 1    
   197  100  101 1    
   198  100  102 1    
   199  100  221 1    
   200  101  222 1    
   201  101  223 1    
   202  101  224 1    
   203  102  103 2    
   204  102  104 am   BACKBONE|DICT|INTERRES
   205  104  105 1    
   206  104  225 1    
   207  105  106 1    
   208  105  107 1    
   209  105  226 1    
   210  106  227 1    
   211  106  228 1    
   212  106  229 1    
   213  107  108 2    
   214  107  109 am   BACKBONE|DICT|INTERRES
   215  109  110 1    
   216  109  230 1    
   217  110  111 1    
   218  110  112 1    
   219  110  231 1    
   220  111  232 1    
   221  111  233 1    
   222  111  234 1    
   223  112  113 2    
   224  112  114 am   BACKBONE|DICT|INTERRES
   225  114  115 1    
   226  114  235 1    
   227  115  116 1    
   228  115  117 1    
   229  115  236 1    
   230  116  237 1    
   231  116  238 1    
   232  116  239 1    
   233  117  118 2    
   234  117  119 am   BACKBONE|DICT|INTERRES
   235  119  120 1    
   236  119  240 1    
   237  120  121 1    
   238  120  124 1    
   239  120  241 1    
   240  121  122 am   BACKBONE|DICT|INTERRES
   241  121  123 2    
   242  122  242 1    
   243  122  243 1    
   244  124  125 1    
   245  124  244 1    
   246  124  245 1    
   247  125  126 1    
   248  126  246 1    
   249  126  247 1    
@<TRIPOS>SUBSTRUCTURE
     1 UNK         1 GROUP             0       ****    0 ROOT    
