@<TRIPOS>MOLECULE
3R540
247   249    1
SMALL
USER_CHARGES


@<TRIPOS>ATOM
      1 CA          4.2874  -11.6372  -44.8454 C.3       0 UNK        -0.1800 
      2 C           5.4289  -12.1588  -45.7068 C.2       0 UNK         0.5000 
      3 O           6.5912  -11.8746  -45.4184 O.2       0 UNK        -0.5000 
      4 N           5.0968  -12.9133  -46.7627 N.am      1 UNK        -0.5000 
      5 CA          6.0357  -13.5641  -47.6846 C.3       1 UNK         0.1400 
      6 C6          5.3018  -14.2692  -48.8533 C.3       23 UNK        -0.0398 
      7 S7          4.4403  -13.1343  -49.9986 S.3       23 UNK        -0.2404 
      8 C8          2.6920  -13.2636  -49.4856 C.3       23 UNK        -0.0205 
      9 C9          1.8953  -14.3965  -50.1363 C.ar      23 UNK        -0.0193 
     10 C10         0.6091  -14.1365  -50.6241 C.ar      23 UNK        -0.1150 
     11 C11        -0.1831  -15.1614  -51.1525 C.ar      23 UNK        -0.0193 
     12 C12         0.3202  -16.4661  -51.1840 C.ar      23 UNK        -0.1150 
     13 C13         1.6047  -16.7421  -50.7136 C.ar      23 UNK        -0.0193 
     14 C14         2.3849  -15.7062  -50.1972 C.ar      23 UNK        -0.1150 
     15 C15         2.1560  -18.1585  -50.7512 C.3       23 UNK        -0.0205 
     16 S16         1.8607  -19.0309  -49.1820 S.3       23 UNK        -0.2404 
     17 C17         0.1060  -19.4919  -49.3598 C.3       23 UNK        -0.0398 
     18 CA         -0.2856  -20.6297  -48.3895 C.3       11 UNK         0.1400 
     19 N          -0.2982  -20.1966  -46.9901 N.am      11 UNK        -0.5000 
     20 C          -0.4652  -21.0109  -45.9385 C.2       10 UNK         0.5000 
     21 O          -0.5649  -22.2348  -46.0255 O.2       10 UNK        -0.5000 
     22 CA         -0.6159  -20.3361  -44.5653 C.3       10 UNK         0.1400 
     23 CB          0.7496  -19.9520  -43.9743 C.3       10 UNK        -0.1800 
     24 N          -1.4806  -19.1577  -44.6396 N.am      10 UNK        -0.5000 
     25 C          -2.8046  -19.2106  -44.8444 C.2       9 UNK         0.5000 
     26 O          -3.4369  -20.2614  -44.9479 O.2       9 UNK        -0.5000 
     27 CA         -3.5404  -17.8658  -44.9903 C.3       9 UNK         0.1400 
     28 CB         -3.8844  -17.2870  -43.6096 C.3       9 UNK        -0.1800 
     29 N          -2.7719  -16.8774  -45.7458 N.am      9 UNK        -0.5000 
     30 C          -2.4724  -16.9686  -47.0494 C.2       8 UNK         0.5000 
     31 O          -2.8354  -17.8917  -47.7786 O.2       8 UNK        -0.5000 
     32 CA         -1.5625  -15.8651  -47.6166 C.3       8 UNK         0.1400 
     33 CB         -2.3895  -14.6292  -47.9984 C.3       8 UNK        -0.1800 
     34 N          -0.5072  -15.4580  -46.6887 N.am      8 UNK        -0.5000 
     35 C           0.4230  -16.2562  -46.1538 C.2       7 UNK         0.5000 
     36 O           0.4882  -17.4641  -46.3754 O.2       7 UNK        -0.5000 
     37 CA          1.4133  -15.6150  -45.1648 C.3       7 UNK         0.1400 
     38 CB          2.4697  -14.7797  -45.9003 C.3       7 UNK        -0.1800 
     39 N           0.7946  -14.8431  -44.0776 N.am      7 UNK        -0.5000 
     40 C           0.0472  -13.7285  -44.1256 C.2       6 UNK         0.5000 
     41 O          -0.2812  -13.1523  -45.1628 O.2       6 UNK        -0.5000 
     42 CA         -0.4128  -13.1680  -42.7678 C.3       6 UNK         0.1400 
     43 CB         -1.6975  -13.8748  -42.3067 C.3       6 UNK        -0.1800 
     44 N           0.6194  -13.3187  -41.7404 N.am      6 UNK        -0.5000 
     45 C           1.7173  -12.5524  -41.6570 C.2       5 UNK         0.5000 
     46 O           1.9175  -11.5626  -42.3609 O.2       5 UNK        -0.5000 
     47 CA          2.7816  -12.9828  -40.6286 C.3       5 UNK         0.1400 
     48 CB          2.4927  -12.3580  -39.2551 C.3       5 UNK        -0.1800 
     49 N           2.8768  -14.4396  -40.4900 N.am      5 UNK        -0.5000 
     50 C           3.3333  -15.2581  -41.4471 C.2       4 UNK         0.5000 
     51 O           3.7710  -14.8670  -42.5312 O.2       4 UNK        -0.5000 
     52 CA          3.2449  -16.7619  -41.1554 C.3       4 UNK         0.1400 
     53 CB          1.7854  -17.2548  -41.2076 C.3       4 UNK        -0.1800 
     54 N           4.0411  -17.4884  -42.1374 N.am      4 UNK        -0.5000 
     55 C           4.5663  -18.7042  -41.9742 C.2       3 UNK         0.5000 
     56 O           4.4253  -19.3678  -40.9459 O.2       3 UNK        -0.5000 
     57 CA          5.4042  -19.2899  -43.1291 C.3       3 UNK         0.1400 
     58 CB          4.5285  -20.1488  -44.0626 C.3       3 UNK        -0.1800 
     59 N           6.2113  -18.3255  -43.8941 N.am      3 UNK        -0.5000 
     60 C           5.8048  -17.3668  -44.7374 C.2       2 UNK         0.5000 
     61 O           4.6234  -17.0670  -44.9263 O.2       2 UNK        -0.5000 
     62 CA          6.9110  -16.6399  -45.5196 C.3       2 UNK         0.1400 
     63 CB          7.5704  -17.6097  -46.5257 C.3       2 UNK        -0.1800 
     64 N           6.3097  -15.5056  -46.2155 N.am      2 UNK        -0.5000 
     65 C           6.9382  -14.5865  -46.9593 C.2       1 UNK         0.5000 
     66 O           8.1610  -14.5265  -47.0965 O.2       1 UNK        -0.5000 
     67 C          -1.6261  -21.2695  -48.8008 C.2       11 UNK         0.5000 
     68 O          -1.6121  -22.3235  -49.4337 O.2       11 UNK        -0.5000 
     69 N          -2.7522  -20.6600  -48.4002 N.am      12 UNK        -0.5000 
     70 CA         -4.1008  -21.1897  -48.6076 C.3       12 UNK         0.1400 
     71 CB         -5.1525  -20.1766  -48.1304 C.3       12 UNK        -0.1800 
     72 C          -4.3160  -22.5437  -47.9149 C.2       12 UNK         0.5000 
     73 O          -4.8233  -23.4671  -48.5500 O.2       12 UNK        -0.5000 
     74 N          -3.9094  -22.6452  -46.6417 N.am      13 UNK        -0.5000 
     75 CA         -3.9831  -23.8703  -45.8449 C.3       13 UNK         0.1400 
     76 CB         -3.5680  -23.5720  -44.3965 C.3       13 UNK        -0.1800 
     77 C          -3.1413  -25.0166  -46.4336 C.2       13 UNK         0.5000 
     78 O          -3.6259  -26.1471  -46.5014 O.2       13 UNK        -0.5000 
     79 N          -1.9184  -24.6963  -46.8815 N.am      14 UNK        -0.5000 
     80 CA         -1.0175  -25.6196  -47.5723 C.3       14 UNK         0.1400 
     81 CB          0.3581  -24.9600  -47.7524 C.3       14 UNK        -0.1800 
     82 C          -1.5821  -26.0906  -48.9249 C.2       14 UNK         0.5000 
     83 O          -1.5460  -27.2862  -49.2184 O.2       14 UNK        -0.5000 
     84 N          -2.1428  -25.1563  -49.7026 N.am      15 UNK        -0.5000 
     85 CA         -2.7924  -25.3926  -50.9918 C.3       15 UNK         0.1400 
     86 CB         -2.7064  -24.1082  -51.8317 C.3       15 UNK        -0.1800 
     87 C          -4.2441  -25.8958  -50.8434 C.2       15 UNK         0.5000 
     88 O          -5.1427  -25.3712  -51.5016 O.2       15 UNK        -0.5000 
     89 N          -4.4433  -26.9083  -49.9873 N.am      16 UNK        -0.5000 
     90 CA         -5.6734  -27.6819  -49.7806 C.3       16 UNK         0.1400 
     91 CB         -5.8645  -28.6680  -50.9510 C.3       16 UNK        -0.1800 
     92 C          -6.9325  -26.8295  -49.5039 C.2       16 UNK         0.5000 
     93 O          -7.9998  -27.1130  -50.0508 O.2       16 UNK        -0.5000 
     94 N          -6.7744  -25.8040  -48.6550 N.am      17 UNK        -0.5000 
     95 CA         -7.7828  -24.8109  -48.2707 C.3       17 UNK         0.1400 
     96 CB         -8.9682  -25.4651  -47.5290 C.3       17 UNK        -0.1800 
     97 C          -8.2089  -23.9308  -49.4643 C.2       17 UNK         0.5000 
     98 O          -9.3914  -23.8662  -49.8063 O.2       17 UNK        -0.5000 
     99 N          -7.2117  -23.2603  -50.0571 N.am      18 UNK        -0.5000 
    100 CA        -7.3047  -22.2977  -51.1592 C.3       18 UNK         0.1400 
    101 CB        -8.1123  -21.0519  -50.7343 C.3       18 UNK        -0.1800 
    102 C         -7.8184  -22.9204  -52.4731 C.2       18 UNK         0.5000 
    103 O         -8.6426  -22.3179  -53.1653 O.2       18 UNK        -0.5000 
    104 N         -7.3102  -24.1109  -52.8160 N.am      19 UNK        -0.5000 
    105 CA        -7.5885  -24.8072  -54.0710 C.3       19 UNK         0.1400 
    106 CB        -7.2557  -26.3000  -53.9060 C.3       19 UNK        -0.1800 
    107 C         -6.8093  -24.1508  -55.2280 C.2       19 UNK         0.5000 
    108 O         -5.7416  -24.6338  -55.6090 O.2       19 UNK        -0.5000 
    109 N         -7.3535  -23.0327  -55.7297 N.am      20 UNK        -0.5000 
    110 CA        -6.7925  -22.1500  -56.7589 C.3       20 UNK         0.1400 
    111 CB        -6.6777  -22.8769  -58.1159 C.3       20 UNK        -0.1800 
    112 C         -5.4756  -21.4846  -56.3044 C.2       20 UNK         0.5000 
    113 O         -4.5016  -21.4446  -57.0589 O.2       20 UNK        -0.5000 
    114 N         -5.4778  -20.9717  -55.0689 N.am      21 UNK        -0.5000 
    115 CA        -4.3711  -20.2562  -54.4431 C.3       21 UNK         0.1400 
    116 CB        -3.5372  -21.2389  -53.6079 C.3       21 UNK        -0.1800 
    117 C         -4.9452  -19.1451  -53.5560 C.2       21 UNK         0.5000 
    118 O         -6.0471  -19.3021  -53.0248 O.2       21 UNK        -0.5000 
    119 N         -4.1885  -18.0531  -53.4065 N.am      22 UNK        -0.5000 
    120 CA        -4.5603  -16.8874  -52.5877 C.3       22 UNK         0.1400 
    121 C         -4.3631  -17.0716  -51.0548 C.2       22 UNK         0.5000 
    122 N         -3.5737  -18.0352  -50.5965 N.am      22 UNK        -0.7600 
    123 O         -4.9300  -16.3156  -50.2717 O.2       22 UNK        -0.5000 
    124 C124       -3.8799  -15.5880  -53.0995 C.3       23 UNK        -0.0398 
    125 S125       -2.0542  -15.6790  -53.1795 S.3       23 UNK        -0.2404 
    126 C126       -1.6052  -14.8616  -51.6118 C.3       23 UNK        -0.0205 
    127 H127        4.3709  -10.5580  -44.7189 H         1 UNK         0.0600 
    128 H128        4.3235  -12.1012  -43.8595 H         1 UNK         0.0600 
    129 H129        3.3123  -11.8511  -45.2833 H         1 UNK         0.0600 
    130 H130        4.1207  -13.0753  -46.9523 H         1 UNK         0.3000 
    131 H131        6.6834  -12.7894  -48.1003 H         1 UNK         0.0600 
    132 H132        6.0090  -14.8402  -49.4584 H         1 UNK         0.0800 
    133 H133        4.6008  -14.9946  -48.4453 H         1 UNK         0.0800 
    134 H134        2.6332  -13.3631  -48.4054 H         1 UNK         0.0800 
    135 H135        2.2222  -12.3068  -49.7186 H         1 UNK         0.0800 
    136 H136        0.2098  -13.1335  -50.5676 H         1 UNK         0.1150 
    137 H137       -0.2918  -17.2703  -51.5667 H         1 UNK         0.1150 
    138 H138        3.3696  -15.9467  -49.8363 H         1 UNK         0.1150 
    139 H139        1.7254  -18.7186  -51.5825 H         1 UNK         0.0800 
    140 H140        3.2309  -18.1269  -50.9356 H         1 UNK         0.0800 
    141 H141       -0.0575  -19.7999  -50.3942 H         1 UNK         0.0800 
    142 H142       -0.5135  -18.6090  -49.1965 H         1 UNK         0.0800 
    143 H143        0.4682  -21.4158  -48.4732 H         1 UNK         0.0600 
    144 H144       -0.1603  -19.2032  -46.8214 H         1 UNK         0.3000 
    145 H145       -1.0810  -21.0576  -43.8901 H         1 UNK         0.0600 
    146 H146        0.6412  -19.5323  -42.9746 H         1 UNK         0.0600 
    147 H147        1.3941  -20.8275  -43.8893 H         1 UNK         0.0600 
    148 H148        1.2727  -19.2211  -44.5904 H         1 UNK         0.0600 
    149 H149       -1.0233  -18.2586  -44.6390 H         1 UNK         0.3000 
    150 H150       -4.4735  -18.0502  -45.5263 H         1 UNK         0.0600 
    151 H151       -4.4789  -17.9932  -43.0283 H         1 UNK         0.0600 
    152 H152       -4.4679  -16.3705  -43.7000 H         1 UNK         0.0600 
    153 H153       -2.9882  -17.0587  -43.0314 H         1 UNK         0.0600 
    154 H154       -2.4239  -16.0815  -45.2334 H         1 UNK         0.3000 
    155 H155       -1.0849  -16.2582  -48.5156 H         1 UNK         0.0600 
    156 H156       -3.2197  -14.8971  -48.6524 H         1 UNK         0.0600 
    157 H157       -1.7794  -13.8965  -48.5268 H         1 UNK         0.0600 
    158 H158       -2.8122  -14.1408  -47.1197 H         1 UNK         0.0600 
    159 H159       -0.5016  -14.4839  -46.3943 H         1 UNK         0.3000 
    160 H160        1.9380  -16.4408  -44.6812 H         1 UNK         0.0600 
    161 H161        3.2779  -14.5086  -45.2219 H         1 UNK         0.0600 
    162 H162        2.0445  -13.8623  -46.3035 H         1 UNK         0.0600 
    163 H163        2.9070  -15.3438  -46.7248 H         1 UNK         0.0600 
    164 H164        0.9972  -15.1964  -43.1561 H         1 UNK         0.3000 
    165 H165       -0.6333  -12.1061  -42.8971 H         1 UNK         0.0600 
    166 H166       -2.0699  -13.4454  -41.3765 H         1 UNK         0.0600 
    167 H167       -2.4890  -13.7709  -43.0503 H         1 UNK         0.0600 
    168 H168       -1.5388  -14.9415  -42.1432 H         1 UNK         0.0600 
    169 H169        0.5177  -14.0863  -41.0937 H         1 UNK         0.3000 
    170 H170        3.7474  -12.6098  -40.9767 H         1 UNK         0.0600 
    171 H171        2.4373  -11.2708  -39.3254 H         1 UNK         0.0600 
    172 H172        1.5462  -12.7089  -38.8422 H         1 UNK         0.0600 
    173 H173        3.2805  -12.5960  -38.5402 H         1 UNK         0.0600 
    174 H174        2.5459  -14.8327  -39.6204 H         1 UNK         0.3000 
    175 H175        3.6556  -16.9335  -40.1582 H         1 UNK         0.0600 
    176 H176        1.3578  -17.1425  -42.2039 H         1 UNK         0.0600 
    177 H177        1.7176  -18.3086  -40.9370 H         1 UNK         0.0600 
    178 H178        1.1520  -16.7062  -40.5098 H         1 UNK         0.0600 
    179 H179        4.2069  -16.9952  -43.0118 H         1 UNK         0.3000 
    180 H180        6.1278  -19.9610  -42.6638 H         1 UNK         0.0600 
    181 H181        3.7672  -19.5551  -44.5690 H         1 UNK         0.0600 
    182 H182        4.0117  -20.9291  -43.5026 H         1 UNK         0.0600 
    183 H183        5.1309  -20.6415  -44.8257 H         1 UNK         0.0600 
    184 H184        7.2085  -18.4526  -43.7903 H         1 UNK         0.3000 
    185 H185        7.6544  -16.2678  -44.8123 H         1 UNK         0.0600 
    186 H186        7.9753  -18.4899  -46.0252 H         1 UNK         0.0600 
    187 H187        6.8540  -17.9586  -47.2706 H         1 UNK         0.0600 
    188 H188        8.4013  -17.1445  -47.0548 H         1 UNK         0.0600 
    189 H189        5.3035  -15.4696  -46.1053 H         1 UNK         0.3000 
    190 H190       -2.6859  -19.7690  -47.9165 H         1 UNK         0.3000 
    191 H191       -4.2392  -21.3427  -49.6799 H         1 UNK         0.0600 
    192 H192       -4.9701  -19.8572  -47.1056 H         1 UNK         0.0600 
    193 H193       -6.1529  -20.6078  -48.1569 H         1 UNK         0.0600 
    194 H194       -5.1672  -19.2877  -48.7591 H         1 UNK         0.0600 
    195 H195       -3.5417  -21.8215  -46.1751 H         1 UNK         0.3000 
    196 H196       -5.0253  -24.1962  -45.8375 H         1 UNK         0.0600 
    197 H197       -3.6291  -24.4692  -43.7794 H         1 UNK         0.0600 
    198 H198       -4.2199  -22.8228  -43.9469 H         1 UNK         0.0600 
    199 H199       -2.5443  -23.2014  -44.3385 H         1 UNK         0.0600 
    200 H200       -1.5801  -23.7477  -46.7450 H         1 UNK         0.3000 
    201 H201       -0.8914  -26.5001  -46.9390 H         1 UNK         0.0600 
    202 H202        0.7957  -24.6939  -46.7901 H         1 UNK         0.0600 
    203 H203        0.2946  -24.0514  -48.3518 H         1 UNK         0.0600 
    204 H204        1.0537  -25.6359  -48.2512 H         1 UNK         0.0600 
    205 H205       -2.1190  -24.1878  -49.3948 H         1 UNK         0.3000 
    206 H206       -2.2414  -26.1698  -51.5250 H         1 UNK         0.0600 
    207 H207       -1.6736  -23.7821  -51.9549 H         1 UNK         0.0600 
    208 H208       -3.1213  -24.2590  -52.8292 H         1 UNK         0.0600 
    209 H209       -3.2602  -23.2961  -51.3602 H         1 UNK         0.0600 
    210 H210       -3.6289  -27.2389  -49.4822 H         1 UNK         0.3000 
    211 H211       -5.5109  -28.2730  -48.8782 H         1 UNK         0.0600 
    212 H212       -6.0409  -28.1458  -51.8910 H         1 UNK         0.0600 
    213 H213       -6.7144  -29.3288  -50.7766 H         1 UNK         0.0600 
    214 H214       -4.9864  -29.3006  -51.0803 H         1 UNK         0.0600 
    215 H215       -5.8361  -25.6125  -48.3273 H         1 UNK         0.3000 
    216 H216       -7.2950  -24.1437  -47.5586 H         1 UNK         0.0600 
    217 H217       -9.6466  -24.7051  -47.1398 H         1 UNK         0.0600 
    218 H218       -8.6238  -26.0572  -46.6812 H         1 UNK         0.0600 
    219 H219       -9.5524  -26.1169  -48.1787 H         1 UNK         0.0600 
    220 H220       -6.2742  -23.4275  -49.6973 H         1 UNK         0.3000 
    221 H221       -6.2840  -21.9703  -51.3611 H         1 UNK         0.0600 
    222 H222       -9.1625  -21.2873  -50.5612 H         1 UNK         0.0600 
    223 H223       -7.7151  -20.6084  -49.8236 H         1 UNK         0.0600 
    224 H224       -8.0771  -20.2820  -51.5056 H         1 UNK         0.0600 
    225 H225       -6.5982  -24.5355  -52.2227 H         1 UNK         0.3000 
    226 H226       -8.6558  -24.7319  -54.2898 H         1 UNK         0.0600 
    227 H227       -7.8227  -26.7407  -53.0856 H         1 UNK         0.0600 
    228 H228       -7.5032  -26.8558  -54.8109 H         1 UNK         0.0600 
    229 H229       -6.1964  -26.4599  -53.7035 H         1 UNK         0.0600 
    230 H230       -8.1922  -22.6919  -55.2735 H         1 UNK         0.3000 
    231 H231       -7.5105  -21.3387  -56.8868 H         1 UNK         0.0600 
    232 H232       -7.6298  -23.3204  -58.4073 H         1 UNK         0.0600 
    233 H233       -5.9307  -23.6707  -58.0928 H         1 UNK         0.0600 
    234 H234       -6.3891  -22.1824  -58.9057 H         1 UNK         0.0600 
    235 H235       -6.3301  -20.9856  -54.5234 H         1 UNK         0.3000 
    236 H236       -3.7404  -19.7986  -55.2084 H         1 UNK         0.0600 
    237 H237       -2.6987  -20.7369  -53.1240 H         1 UNK         0.0600 
    238 H238       -4.1420  -21.7009  -52.8275 H         1 UNK         0.0600 
    239 H239       -3.1266  -22.0351  -54.2292 H         1 UNK         0.0600 
    240 H240       -3.2888  -17.9973  -53.8620 H         1 UNK         0.3000 
    241 H241       -5.6342  -16.7372  -52.7164 H         1 UNK         0.0600 
    242 H242       -3.4293  -18.1054  -49.5948 H         1 UNK         0.3800 
    243 H243       -3.1078  -18.6625  -51.2284 H         1 UNK         0.3800 
    244 H244       -4.2379  -15.3742  -54.1073 H         1 UNK         0.0800 
    245 H245       -4.1825  -14.7273  -52.5001 H         1 UNK         0.0800 
    246 H246       -2.2804  -15.1886  -50.8239 H         1 UNK         0.0800 
    247 H247       -1.7573  -13.7872  -51.7251 H         1 UNK         0.0800 
@<TRIPOS>BOND
     1    1    2 1    
     2    1  127 1    
     3    1  128 1    
     4    1  129 1    
     5    2    3 2    
     6    2    4 am   BACKBONE|DICT|INTERRES
     7    4    5 1    
     8    4  130 1    
     9    5    6 1    
    10    5   65 1    
    11    5  131 1    
    12    6    7 1    
    13    6  132 1    
    14    6  133 1    
    15    7    8 1    
    16    8    9 1    
    17    8  134 1    
    18    8  135 1    
    19    9   10 ar   
    20    9   14 ar   
    21   10   11 ar   
    22   10  136 1    
    23   11   12 ar   
    24   11  126 1    
    25   12   13 ar   
    26   12  137 1    
    27   13   14 ar   
    28   13   15 1    
    29   14  138 1    
    30   15   16 1    
    31   15  139 1    
    32   15  140 1    
    33   16   17 1    
    34   17   18 1    
    35   17  141 1    
    36   17  142 1    
    37   18   19 1    
    38   18   67 1    
    39   18  143 1    
    40   19   20 am   BACKBONE|DICT|INTERRES
    41   19  144 1    
    42   20   21 2    
    43   20   22 1    
    44   22   23 1    
    45   22   24 1    
    46   22  145 1    
    47   23  146 1    
    48   23  147 1    
    49   23  148 1    
    50   24   25 am   BACKBONE|DICT|INTERRES
    51   24  149 1    
    52   25   26 2    
    53   25   27 1    
    54   27   28 1    
    55   27   29 1    
    56   27  150 1    
    57   28  151 1    
    58   28  152 1    
    59   28  153 1    
    60   29   30 am   BACKBONE|DICT|INTERRES
    61   29  154 1    
    62   30   31 2    
    63   30   32 1    
    64   32   33 1    
    65   32   34 1    
    66   32  155 1    
    67   33  156 1    
    68   33  157 1    
    69   33  158 1    
    70   34   35 am   BACKBONE|DICT|INTERRES
    71   34  159 1    
    72   35   36 2    
    73   35   37 1    
    74   37   38 1    
    75   37   39 1    
    76   37  160 1    
    77   38  161 1    
    78   38  162 1    
    79   38  163 1    
    80   39   40 am   BACKBONE|DICT|INTERRES
    81   39  164 1    
    82   40   41 2    
    83   40   42 1    
    84   42   43 1    
    85   42   44 1    
    86   42  165 1    
    87   43  166 1    
    88   43  167 1    
    89   43  168 1    
    90   44   45 am   BACKBONE|DICT|INTERRES
    91   44  169 1    
    92   45   46 2    
    93   45   47 1    
    94   47   48 1    
    95   47   49 1    
    96   47  170 1    
    97   48  171 1    
    98   48  172 1    
    99   48  173 1    
   100   49   50 am   BACKBONE|DICT|INTERRES
   101   49  174 1    
   102   50   51 2    
   103   50   52 1    
   104   52   53 1    
   105   52   54 1    
   106   52  175 1    
   107   53  176 1    
   108   53  177 1    
   109   53  178 1    
   110   54   55 am   BACKBONE|DICT|INTERRES
   111   54  179 1    
   112   55   56 2    
   113   55   57 1    
   114   57   58 1    
   115   57   59 1    
   116   57  180 1    
   117   58  181 1    
   118   58  182 1    
   119   58  183 1    
   120   59   60 am   BACKBONE|DICT|INTERRES
   121   59  184 1    
   122   60   61 2    
   123   60   62 1    
   124   62   63 1    
   125   62   64 1    
   126   62  185 1    
   127   63  186 1    
   128   63  187 1    
   129   63  188 1    
   130   64   65 am   BACKBONE|DICT|INTERRES
   131   64  189 1    
   132   65   66 2    
   133   67   68 2    
   134   67   69 am   BACKBONE|DICT|INTERRES
   135   69   70 1    
   136   69  190 1    
   137   70   71 1    
   138   70   72 1    
   139   70  191 1    
   140   71  192 1    
   141   71  193 1    
   142   71  194 1    
   143   72   73 2    
   144   72   74 am   BACKBONE|DICT|INTERRES
   145   74   75 1    
   146   74  195 1    
   147   75   76 1    
   148   75   77 1    
   149   75  196 1    
   150   76  197 1    
   151   76  198 1    
   152   76  199 1    
   153   77   78 2    
   154   77   79 am   BACKBONE|DICT|INTERRES
   155   79   80 1    
   156   79  200 1    
   157   80   81 1    
   158   80   82 1    
   159   80  201 1    
   160   81  202 1    
   161   81  203 1    
   162   81  204 1    
   163   82   83 2    
   164   82   84 am   BACKBONE|DICT|INTERRES
   165   84   85 1    
   166   84  205 1    
   167   85   86 1    
   168   85   87 1    
   169   85  206 1    
   170   86  207 1    
   171   86  208 1    
   172   86  209 1    
   173   87   88 2    
   174   87   89 am   BACKBONE|DICT|INTERRES
   175   89   90 1    
   176   89  210 1    
   177   90   91 1    
   178   90   92 1    
   179   90  211 1    
   180   91  212 1    
   181   91  213 1    
   182   91  214 1    
   183   92   93 2    
   184   92   94 am   BACKBONE|DICT|INTERRES
   185   94   95 1    
   186   94  215 1    
   187   95   96 1    
   188   95   97 1    
   189   95  216 1    
   190   96  217 1    
   191   96  218 1    
   192   96  219 1    
   193   97   98 2    
   194   97   99 am   BACKBONE|DICT|INTERRES
   195   99  100 1    
   196   99  220 1    
   197  100  101 1    
   198  100  102 1    
   199  100  221 1    
   200  101  222 1    
   201  101  223 1    
   202  101  224 1    
   203  102  103 2    
   204  102  104 am   BACKBONE|DICT|INTERRES
   205  104  105 1    
   206  104  225 1    
   207  105  106 1    
   208  105  107 1    
   209  105  226 1    
   210  106  227 1    
   211  106  228 1    
   212  106  229 1    
   213  107  108 2    
   214  107  109 am   BACKBONE|DICT|INTERRES
   215  109  110 1    
   216  109  230 1    
   217  110  111 1    
   218  110  112 1    
   219  110  231 1    
   220  111  232 1    
   221  111  233 1    
   222  111  234 1    
   223  112  113 2    
   224  112  114 am   BACKBONE|DICT|INTERRES
   225  114  115 1    
   226  114  235 1    
   227  115  116 1    
   228  115  117 1    
   229  115  236 1    
   230  116  237 1    
   231  116  238 1    
   232  116  239 1    
   233  117  118 2    
   234  117  119 am   BACKBONE|DICT|INTERRES
   235  119  120 1    
   236  119  240 1    
   237  120  121 1    
   238  120  124 1    
   239  120  241 1    
   240  121  122 am   BACKBONE|DICT|INTERRES
   241  121  123 2    
   242  122  242 1    
   243  122  243 1    
   244  124  125 1    
   245  124  244 1    
   246  124  245 1    
   247  125  126 1    
   248  126  246 1    
   249  126  247 1    
@<TRIPOS>SUBSTRUCTURE
     1 UNK         1 GROUP             0       ****    0 ROOT    
