@<TRIPOS>MOLECULE
3R540
247   249    1
SMALL
USER_CHARGES


@<TRIPOS>ATOM
      1 CA         -0.7939  -13.3870  -53.5056 C.3       0 UNK        -0.1800 
      2 C          -0.6181  -14.3715  -52.3584 C.2       0 UNK         0.5000 
      3 O          -0.7903  -15.5743  -52.5519 O.2       0 UNK        -0.5000 
      4 N          -0.2755  -13.8695  -51.1648 N.am      1 UNK        -0.5000 
      5 CA         -0.0388  -14.6612  -49.9558 C.3       1 UNK         0.1400 
      6 C6         -0.1856  -13.8032  -48.6708 C.3       23 UNK        -0.0398 
      7 S7         -0.3894  -14.8279  -47.1677 S.3       23 UNK        -0.2404 
      8 C8         -2.0041  -14.2884  -46.5187 C.3       23 UNK        -0.0205 
      9 C9         -3.1582  -14.8006  -47.3652 C.ar      23 UNK        -0.0193 
     10 C10        -3.6951  -13.9965  -48.3719 C.ar      23 UNK        -0.1150 
     11 C11        -4.7301  -14.4633  -49.1846 C.ar      23 UNK        -0.0193 
     12 C12        -5.2509  -15.7418  -48.9605 C.ar      23 UNK        -0.1150 
     13 C13        -4.7508  -16.5452  -47.9284 C.ar      23 UNK        -0.0193 
     14 C14        -3.7000  -16.0691  -47.1365 C.ar      23 UNK        -0.1150 
     15 C15        -5.3772  -17.9052  -47.6462 C.3       23 UNK        -0.0205 
     16 S16        -4.3623  -19.2870  -48.2603 S.3       23 UNK        -0.2404 
     17 C17        -3.2584  -19.5930  -46.8407 C.3       23 UNK        -0.0398 
     18 CA         -2.5957  -20.9912  -46.8046 C.3       11 UNK         0.1400 
     19 N          -1.6812  -21.0974  -45.6602 N.am      11 UNK        -0.5000 
     20 C          -0.8775  -22.1388  -45.4063 C.2       10 UNK         0.5000 
     21 O          -0.7562  -23.0988  -46.1643 O.2       10 UNK        -0.5000 
     22 CA         -0.1188  -22.1502  -44.0712 C.3       10 UNK         0.1400 
     23 CB          1.2761  -21.5326  -44.2125 C.3       10 UNK        -0.1800 
     24 N          -0.8632  -21.4841  -43.0017 N.am      10 UNK        -0.5000 
     25 C          -1.8412  -22.0772  -42.3033 C.2       9 UNK         0.5000 
     26 O          -2.1837  -23.2481  -42.4628 O.2       9 UNK        -0.5000 
     27 CA         -2.5822  -21.2111  -41.2706 C.3       9 UNK         0.1400 
     28 CB         -1.7749  -21.1011  -39.9685 C.3       9 UNK        -0.1800 
     29 N          -2.8939  -19.8725  -41.7706 N.am      9 UNK        -0.5000 
     30 C          -3.7534  -19.6201  -42.7679 C.2       8 UNK         0.5000 
     31 O          -4.3499  -20.4940  -43.3968 O.2       8 UNK        -0.5000 
     32 CA         -3.9597  -18.1432  -43.1541 C.3       8 UNK         0.1400 
     33 CB         -5.0623  -17.5133  -42.2909 C.3       8 UNK        -0.1800 
     34 N          -2.7535  -17.3176  -43.0684 N.am      8 UNK        -0.5000 
     35 C          -1.5843  -17.5624  -43.6764 C.2       7 UNK         0.5000 
     36 O          -1.3693  -18.5726  -44.3472 O.2       7 UNK        -0.5000 
     37 CA         -0.4744  -16.5001  -43.5228 C.3       7 UNK         0.1400 
     38 CB         -0.8540  -15.3193  -42.6026 C.3       7 UNK        -0.1800 
     39 N           0.8204  -17.0359  -43.1020 N.am      7 UNK        -0.5000 
     40 C           1.0839  -17.8618  -42.0776 C.2       6 UNK         0.5000 
     41 O           0.2216  -18.4425  -41.4165 O.2       6 UNK        -0.5000 
     42 CA          2.5686  -18.0380  -41.6934 C.3       6 UNK         0.1400 
     43 CB          3.1126  -19.4009  -42.1390 C.3       6 UNK        -0.1800 
     44 N           3.4262  -16.9775  -42.2301 N.am      6 UNK        -0.5000 
     45 C           3.5119  -15.7461  -41.7053 C.2       5 UNK         0.5000 
     46 O           2.9351  -15.4070  -40.6713 O.2       5 UNK        -0.5000 
     47 CA          4.3726  -14.7096  -42.4555 C.3       5 UNK         0.1400 
     48 CB          5.7585  -14.5911  -41.8028 C.3       5 UNK        -0.1800 
     49 N           4.5455  -14.9802  -43.8853 N.am      5 UNK        -0.5000 
     50 C           3.5667  -14.9882  -44.8006 C.2       4 UNK         0.5000 
     51 O           2.3799  -14.8092  -44.5242 O.2       4 UNK        -0.5000 
     52 CA          3.9689  -15.2474  -46.2693 C.3       4 UNK         0.1400 
     53 CB          5.4743  -15.5270  -46.4785 C.3       4 UNK        -0.1800 
     54 N           3.1746  -16.3117  -46.8849 N.am      4 UNK        -0.5000 
     55 C           3.0259  -17.5711  -46.4445 C.2       3 UNK         0.5000 
     56 O           3.5343  -17.9967  -45.4062 O.2       3 UNK        -0.5000 
     57 CA          2.1666  -18.5258  -47.3003 C.3       3 UNK         0.1400 
     58 CB          0.7681  -18.6722  -46.6905 C.3       3 UNK        -0.1800 
     59 N           2.0012  -18.0970  -48.6855 N.am      3 UNK        -0.5000 
     60 C           2.9571  -18.0408  -49.6219 C.2       2 UNK         0.5000 
     61 O           4.0960  -18.4814  -49.4684 O.2       2 UNK        -0.5000 
     62 CA          2.5749  -17.3369  -50.9432 C.3       2 UNK         0.1400 
     63 CB          2.3247  -18.3704  -52.0512 C.3       2 UNK        -0.1800 
     64 N           1.4000  -16.4605  -50.8219 N.am      2 UNK        -0.5000 
     65 C           1.3301  -15.3739  -50.0393 C.2       1 UNK         0.5000 
     66 O           2.2894  -14.9530  -49.3903 O.2       1 UNK        -0.5000 
     67 C          -3.6202  -22.1499  -46.8210 C.2       11 UNK         0.5000 
     68 O          -3.8566  -22.7489  -47.8703 O.2       11 UNK        -0.5000 
     69 N          -4.1485  -22.4913  -45.6386 N.am      12 UNK        -0.5000 
     70 CA         -5.0497  -23.6211  -45.4163 C.3       12 UNK         0.1400 
     71 CB         -5.8145  -23.3734  -44.1054 C.3       12 UNK        -0.1800 
     72 C          -4.3483  -24.9980  -45.3816 C.2       12 UNK         0.5000 
     73 O          -5.0425  -26.0059  -45.2364 O.2       12 UNK        -0.5000 
     74 N          -3.0127  -25.0395  -45.4831 N.am      13 UNK        -0.5000 
     75 CA         -2.2069  -26.2475  -45.3385 C.3       13 UNK         0.1400 
     76 CB         -1.7479  -26.3837  -43.8713 C.3       13 UNK        -0.1800 
     77 C          -1.0608  -26.2514  -46.3646 C.2       13 UNK         0.5000 
     78 O          -1.3226  -26.4367  -47.5522 O.2       13 UNK        -0.5000 
     79 N           0.1807  -26.0893  -45.8866 N.am      14 UNK        -0.5000 
     80 CA          1.4355  -26.3108  -46.6087 C.3       14 UNK         0.1400 
     81 CB          2.6037  -26.0774  -45.6378 C.3       14 UNK        -0.1800 
     82 C           1.6483  -25.4900  -47.8955 C.2       14 UNK         0.5000 
     83 O           2.2842  -25.9985  -48.8203 O.2       14 UNK        -0.5000 
     84 N           1.1492  -24.2472  -47.9406 N.am      15 UNK        -0.5000 
     85 CA          1.2856  -23.3697  -49.1082 C.3       15 UNK         0.1400 
     86 CB          1.1404  -21.9047  -48.6767 C.3       15 UNK        -0.1800 
     87 C           0.2785  -23.7220  -50.2172 C.2       15 UNK         0.5000 
     88 O           0.5967  -23.5618  -51.3963 O.2       15 UNK        -0.5000 
     89 N          -0.8959  -24.2263  -49.8110 N.am      16 UNK        -0.5000 
     90 CA         -1.9688  -24.7772  -50.6397 C.3       16 UNK         0.1400 
     91 CB         -1.5774  -26.2014  -51.0969 C.3       16 UNK        -0.1800 
     92 C          -2.3944  -23.8443  -51.7964 C.2       16 UNK         0.5000 
     93 O          -2.5905  -22.6469  -51.5767 O.2       16 UNK        -0.5000 
     94 N          -2.5191  -24.4060  -53.0071 N.am      17 UNK        -0.5000 
     95 CA         -2.9959  -23.7653  -54.2351 C.3       17 UNK         0.1400 
     96 CB         -3.0068  -24.8117  -55.3602 C.3       17 UNK        -0.1800 
     97 C          -2.2156  -22.5125  -54.6799 C.2       17 UNK         0.5000 
     98 O          -2.7691  -21.7010  -55.4220 O.2       17 UNK        -0.5000 
     99 N          -0.9617  -22.3652  -54.2285 N.am      18 UNK        -0.5000 
    100 CA        -0.1376  -21.1849  -54.4891 C.3       18 UNK         0.1400 
    101 CB         1.3287  -21.4968  -54.1523 C.3       18 UNK        -0.1800 
    102 C         -0.6149  -19.9450  -53.7105 C.2       18 UNK         0.5000 
    103 O         -0.4735  -18.8318  -54.2157 O.2       18 UNK        -0.5000 
    104 N         -1.1562  -20.1582  -52.5033 N.am      19 UNK        -0.5000 
    105 CA        -1.6479  -19.1015  -51.6199 C.3       19 UNK         0.1400 
    106 CB        -1.1889  -19.4035  -50.1857 C.3       19 UNK        -0.1800 
    107 C         -3.1783  -18.9664  -51.6653 C.2       19 UNK         0.5000 
    108 O         -3.6789  -17.8671  -51.4293 O.2       19 UNK        -0.5000 
    109 N         -3.8816  -20.0796  -51.9350 N.am      20 UNK        -0.5000 
    110 CA        -5.3378  -20.2490  -51.8900 C.3       20 UNK         0.1400 
    111 CB        -5.7142  -21.5915  -52.5347 C.3       20 UNK        -0.1800 
    112 C         -6.1281  -19.1009  -52.5423 C.2       20 UNK         0.5000 
    113 O         -6.0763  -18.9322  -53.7635 O.2       20 UNK        -0.5000 
    114 N         -6.8096  -18.3153  -51.6956 N.am      21 UNK        -0.5000 
    115 CA        -7.6211  -17.1392  -52.0319 C.3       21 UNK         0.1400 
    116 CB        -8.9058  -17.5762  -52.7661 C.3       21 UNK        -0.1800 
    117 C         -6.8523  -16.0364  -52.7962 C.2       21 UNK         0.5000 
    118 O         -7.4768  -15.2466  -53.5064 O.2       21 UNK        -0.5000 
    119 N         -5.5187  -16.0050  -52.6480 N.am      22 UNK        -0.5000 
    120 CA        -4.5810  -15.1608  -53.4060 C.3       22 UNK         0.1400 
    121 C         -4.5203  -15.4947  -54.9312 C.2       22 UNK         0.5000 
    122 N         -4.9634  -16.6670  -55.3744 N.am      22 UNK        -0.7600 
    123 O         -4.0354  -14.6978  -55.7301 O.2       22 UNK        -0.5000 
    124 C124       -4.7543  -13.6421  -53.0993 C.3       23 UNK        -0.0398 
    125 S125       -3.9977  -13.1638  -51.5112 S.3       23 UNK        -0.2404 
    126 C126       -5.2842  -13.5690  -50.2863 C.3       23 UNK        -0.0205 
    127 H127       -1.7406  -13.5684  -54.0141 H         1 UNK         0.0600 
    128 H128        0.0109  -13.5086  -54.2303 H         1 UNK         0.0600 
    129 H129       -0.7901  -12.3542  -53.1564 H         1 UNK         0.0600 
    130 H130       -0.1254  -12.8748  -51.0750 H         1 UNK         0.3000 
    131 H131       -0.8115  -15.4334  -49.9157 H         1 UNK         0.0600 
    132 H132        0.6684  -13.1380  -48.5326 H         1 UNK         0.0800 
    133 H133       -1.0453  -13.1423  -48.7665 H         1 UNK         0.0800 
    134 H134       -2.1149  -14.6538  -45.4977 H         1 UNK         0.0800 
    135 H135       -2.0272  -13.1995  -46.4522 H         1 UNK         0.0800 
    136 H136       -3.3005  -13.0046  -48.5388 H         1 UNK         0.1150 
    137 H137       -6.0579  -16.1056  -49.5782 H         1 UNK         0.1150 
    138 H138       -3.3051  -16.6818  -46.3394 H         1 UNK         0.1150 
    139 H139       -5.5622  -18.0143  -46.5769 H         1 UNK         0.0800 
    140 H140       -6.3570  -17.9670  -48.1215 H         1 UNK         0.0800 
    141 H141       -2.4829  -18.8265  -46.8549 H         1 UNK         0.0800 
    142 H142       -3.8257  -19.4427  -45.9248 H         1 UNK         0.0800 
    143 H143       -1.9923  -21.0947  -47.7055 H         1 UNK         0.0600 
    144 H144       -1.6687  -20.3072  -45.0200 H         1 UNK         0.3000 
    145 H145        0.0235  -23.2000  -43.8051 H         1 UNK         0.0600 
    146 H146        1.7580  -21.8303  -45.1451 H         1 UNK         0.0600 
    147 H147        1.2346  -20.4468  -44.1868 H         1 UNK         0.0600 
    148 H148        1.9230  -21.8596  -43.3992 H         1 UNK         0.0600 
    149 H149       -0.6712  -20.5042  -42.8384 H         1 UNK         0.3000 
    150 H150       -3.5268  -21.7088  -41.0403 H         1 UNK         0.0600 
    151 H151       -1.5617  -22.0890  -39.5581 H         1 UNK         0.0600 
    152 H152       -2.3250  -20.5459  -39.2087 H         1 UNK         0.0600 
    153 H153       -0.8199  -20.5989  -40.1255 H         1 UNK         0.0600 
    154 H154       -2.3970  -19.0997  -41.3496 H         1 UNK         0.3000 
    155 H155       -4.2972  -18.1133  -44.1900 H         1 UNK         0.0600 
    156 H156       -5.2953  -16.5016  -42.6237 H         1 UNK         0.0600 
    157 H157       -4.7727  -17.4640  -41.2405 H         1 UNK         0.0600 
    158 H158       -5.9845  -18.0931  -42.3505 H         1 UNK         0.0600 
    159 H159       -2.8327  -16.4733  -42.5208 H         1 UNK         0.3000 
    160 H160       -0.3114  -16.0997  -44.5224 H         1 UNK         0.0600 
    161 H161       -1.0244  -15.6431  -41.5750 H         1 UNK         0.0600 
    162 H162       -1.7511  -14.8068  -42.9521 H         1 UNK         0.0600 
    163 H163       -0.0564  -14.5759  -42.5830 H         1 UNK         0.0600 
    164 H164        1.6124  -16.6172  -43.5740 H         1 UNK         0.3000 
    165 H165        2.6184  -18.0077  -40.6028 H         1 UNK         0.0600 
    166 H166        3.1462  -19.4869  -43.2244 H         1 UNK         0.0600 
    167 H167        4.1228  -19.5615  -41.7624 H         1 UNK         0.0600 
    168 H168        2.4923  -20.2110  -41.7545 H         1 UNK         0.0600 
    169 H169        3.9069  -17.1758  -43.0980 H         1 UNK         0.3000 
    170 H170        3.8685  -13.7455  -42.3618 H         1 UNK         0.0600 
    171 H171        5.6724  -14.3578  -40.7406 H         1 UNK         0.0600 
    172 H172        6.3243  -15.5195  -41.8900 H         1 UNK         0.0600 
    173 H173        6.3449  -13.7946  -42.2614 H         1 UNK         0.0600 
    174 H174        5.4897  -15.1571  -44.1958 H         1 UNK         0.3000 
    175 H175        3.7236  -14.3342  -46.8133 H         1 UNK         0.0600 
    176 H176        5.8027  -16.4235  -45.9510 H         1 UNK         0.0600 
    177 H177        5.6963  -15.6709  -47.5362 H         1 UNK         0.0600 
    178 H178        6.0861  -14.6907  -46.1383 H         1 UNK         0.0600 
    179 H179        2.7021  -16.0404  -47.7402 H         1 UNK         0.3000 
    180 H180        2.6597  -19.4992  -47.2927 H         1 UNK         0.0600 
    181 H181        0.1829  -17.7580  -46.7883 H         1 UNK         0.0600 
    182 H182        0.8329  -18.8914  -45.6286 H         1 UNK         0.0600 
    183 H183        0.2093  -19.4794  -47.1619 H         1 UNK         0.0600 
    184 H184        1.1021  -17.7070  -48.9215 H         1 UNK         0.3000 
    185 H185        3.4225  -16.7157  -51.2392 H         1 UNK         0.0600 
    186 H186        2.0664  -17.8880  -52.9942 H         1 UNK         0.0600 
    187 H187        3.2147  -18.9752  -52.2289 H         1 UNK         0.0600 
    188 H188        1.5166  -19.0522  -51.7902 H         1 UNK         0.0600 
    189 H189        0.6007  -16.6707  -51.4100 H         1 UNK         0.3000 
    190 H190       -3.9296  -21.9302  -44.8219 H         1 UNK         0.3000 
    191 H191       -5.7757  -23.6505  -46.2313 H         1 UNK         0.0600 
    192 H192       -6.5421  -24.1632  -43.9149 H         1 UNK         0.0600 
    193 H193       -6.3626  -22.4316  -44.1405 H         1 UNK         0.0600 
    194 H194       -5.1379  -23.3346  -43.2504 H         1 UNK         0.0600 
    195 H195       -2.4991  -24.1867  -45.6698 H         1 UNK         0.3000 
    196 H196       -2.8103  -27.1253  -45.5783 H         1 UNK         0.0600 
    197 H197       -1.1454  -27.2813  -43.7258 H         1 UNK         0.0600 
    198 H198       -2.6051  -26.4634  -43.2025 H         1 UNK         0.0600 
    199 H199       -1.1604  -25.5251  -43.5452 H         1 UNK         0.0600 
    200 H200        0.2745  -25.9171  -44.8971 H         1 UNK         0.3000 
    201 H201        1.4473  -27.3626  -46.9011 H         1 UNK         0.0600 
    202 H202        2.5465  -26.7481  -44.7803 H         1 UNK         0.0600 
    203 H203        2.6148  -25.0526  -45.2642 H         1 UNK         0.0600 
    204 H204        3.5625  -26.2594  -46.1256 H         1 UNK         0.0600 
    205 H205        0.5798  -23.9076  -47.1690 H         1 UNK         0.3000 
    206 H206        2.2895  -23.4910  -49.5209 H         1 UNK         0.0600 
    207 H207        1.8189  -21.6677  -47.8580 H         1 UNK         0.0600 
    208 H208        1.3770  -21.2332  -49.5024 H         1 UNK         0.0600 
    209 H209        0.1270  -21.6812  -48.3494 H         1 UNK         0.0600 
    210 H210       -1.0380  -24.3215  -48.8147 H         1 UNK         0.3000 
    211 H211       -2.8388  -24.8636  -49.9873 H         1 UNK         0.0600 
    212 H212       -0.7252  -26.1905  -51.7779 H         1 UNK         0.0600 
    213 H213       -2.4061  -26.7055  -51.5954 H         1 UNK         0.0600 
    214 H214       -1.3025  -26.8217  -50.2439 H         1 UNK         0.0600 
    215 H215       -2.3040  -25.3893  -53.0849 H         1 UNK         0.3000 
    216 H216       -4.0259  -23.4565  -54.0563 H         1 UNK         0.0600 
    217 H217       -3.3897  -24.3859  -56.2887 H         1 UNK         0.0600 
    218 H218       -3.6454  -25.6584  -55.1074 H         1 UNK         0.0600 
    219 H219       -2.0053  -25.1933  -55.5627 H         1 UNK         0.0600 
    220 H220       -0.5807  -23.0617  -53.6017 H         1 UNK         0.3000 
    221 H221       -0.1968  -20.9538  -55.5549 H         1 UNK         0.0600 
    222 H222        1.4653  -21.6975  -53.0895 H         1 UNK         0.0600 
    223 H223        1.6880  -22.3630  -54.7080 H         1 UNK         0.0600 
    224 H224        1.9730  -20.6549  -54.4089 H         1 UNK         0.0600 
    225 H225       -1.2851  -21.1123  -52.1860 H         1 UNK         0.3000 
    226 H226       -1.2249  -18.1384  -51.9099 H         1 UNK         0.0600 
    227 H227       -0.1038  -19.4340  -50.1144 H         1 UNK         0.0600 
    228 H228       -1.5402  -18.6393  -49.4908 H         1 UNK         0.0600 
    229 H229       -1.5735  -20.3651  -49.8460 H         1 UNK         0.0600 
    230 H230       -3.3575  -20.9415  -52.0429 H         1 UNK         0.3000 
    231 H231       -5.6137  -20.3045  -50.8358 H         1 UNK         0.0600 
    232 H232       -6.7931  -21.7494  -52.5070 H         1 UNK         0.0600 
    233 H233       -5.2538  -22.4282  -52.0103 H         1 UNK         0.0600 
    234 H234       -5.4050  -21.6295  -53.5796 H         1 UNK         0.0600 
    235 H235       -6.7412  -18.5216  -50.7092 H         1 UNK         0.3000 
    236 H236       -7.9212  -16.6927  -51.0832 H         1 UNK         0.0600 
    237 H237       -9.4395  -18.3433  -52.2050 H         1 UNK         0.0600 
    238 H238       -9.5908  -16.7375  -52.8953 H         1 UNK         0.0600 
    239 H239       -8.6876  -17.9762  -53.7569 H         1 UNK         0.0600 
    240 H240       -5.0701  -16.7083  -52.0656 H         1 UNK         0.3000 
    241 H241       -3.5918  -15.4528  -53.0518 H         1 UNK         0.0600 
    242 H242       -5.3505  -17.3584  -54.7390 H         1 UNK         0.3800 
    243 H243       -4.9081  -16.8742  -56.3585 H         1 UNK         0.3800 
    244 H244       -4.2552  -13.0308  -53.8518 H         1 UNK         0.0800 
    245 H245       -5.7985  -13.3318  -53.1246 H         1 UNK         0.0800 
    246 H246       -5.6506  -12.6428  -49.8420 H         1 UNK         0.0800 
    247 H247       -6.1436  -14.0330  -50.7687 H         1 UNK         0.0800 
@<TRIPOS>BOND
     1    1    2 1    
     2    1  127 1    
     3    1  128 1    
     4    1  129 1    
     5    2    3 2    
     6    2    4 am   BACKBONE|DICT|INTERRES
     7    4    5 1    
     8    4  130 1    
     9    5    6 1    
    10    5   65 1    
    11    5  131 1    
    12    6    7 1    
    13    6  132 1    
    14    6  133 1    
    15    7    8 1    
    16    8    9 1    
    17    8  134 1    
    18    8  135 1    
    19    9   10 ar   
    20    9   14 ar   
    21   10   11 ar   
    22   10  136 1    
    23   11   12 ar   
    24   11  126 1    
    25   12   13 ar   
    26   12  137 1    
    27   13   14 ar   
    28   13   15 1    
    29   14  138 1    
    30   15   16 1    
    31   15  139 1    
    32   15  140 1    
    33   16   17 1    
    34   17   18 1    
    35   17  141 1    
    36   17  142 1    
    37   18   19 1    
    38   18   67 1    
    39   18  143 1    
    40   19   20 am   BACKBONE|DICT|INTERRES
    41   19  144 1    
    42   20   21 2    
    43   20   22 1    
    44   22   23 1    
    45   22   24 1    
    46   22  145 1    
    47   23  146 1    
    48   23  147 1    
    49   23  148 1    
    50   24   25 am   BACKBONE|DICT|INTERRES
    51   24  149 1    
    52   25   26 2    
    53   25   27 1    
    54   27   28 1    
    55   27   29 1    
    56   27  150 1    
    57   28  151 1    
    58   28  152 1    
    59   28  153 1    
    60   29   30 am   BACKBONE|DICT|INTERRES
    61   29  154 1    
    62   30   31 2    
    63   30   32 1    
    64   32   33 1    
    65   32   34 1    
    66   32  155 1    
    67   33  156 1    
    68   33  157 1    
    69   33  158 1    
    70   34   35 am   BACKBONE|DICT|INTERRES
    71   34  159 1    
    72   35   36 2    
    73   35   37 1    
    74   37   38 1    
    75   37   39 1    
    76   37  160 1    
    77   38  161 1    
    78   38  162 1    
    79   38  163 1    
    80   39   40 am   BACKBONE|DICT|INTERRES
    81   39  164 1    
    82   40   41 2    
    83   40   42 1    
    84   42   43 1    
    85   42   44 1    
    86   42  165 1    
    87   43  166 1    
    88   43  167 1    
    89   43  168 1    
    90   44   45 am   BACKBONE|DICT|INTERRES
    91   44  169 1    
    92   45   46 2    
    93   45   47 1    
    94   47   48 1    
    95   47   49 1    
    96   47  170 1    
    97   48  171 1    
    98   48  172 1    
    99   48  173 1    
   100   49   50 am   BACKBONE|DICT|INTERRES
   101   49  174 1    
   102   50   51 2    
   103   50   52 1    
   104   52   53 1    
   105   52   54 1    
   106   52  175 1    
   107   53  176 1    
   108   53  177 1    
   109   53  178 1    
   110   54   55 am   BACKBONE|DICT|INTERRES
   111   54  179 1    
   112   55   56 2    
   113   55   57 1    
   114   57   58 1    
   115   57   59 1    
   116   57  180 1    
   117   58  181 1    
   118   58  182 1    
   119   58  183 1    
   120   59   60 am   BACKBONE|DICT|INTERRES
   121   59  184 1    
   122   60   61 2    
   123   60   62 1    
   124   62   63 1    
   125   62   64 1    
   126   62  185 1    
   127   63  186 1    
   128   63  187 1    
   129   63  188 1    
   130   64   65 am   BACKBONE|DICT|INTERRES
   131   64  189 1    
   132   65   66 2    
   133   67   68 2    
   134   67   69 am   BACKBONE|DICT|INTERRES
   135   69   70 1    
   136   69  190 1    
   137   70   71 1    
   138   70   72 1    
   139   70  191 1    
   140   71  192 1    
   141   71  193 1    
   142   71  194 1    
   143   72   73 2    
   144   72   74 am   BACKBONE|DICT|INTERRES
   145   74   75 1    
   146   74  195 1    
   147   75   76 1    
   148   75   77 1    
   149   75  196 1    
   150   76  197 1    
   151   76  198 1    
   152   76  199 1    
   153   77   78 2    
   154   77   79 am   BACKBONE|DICT|INTERRES
   155   79   80 1    
   156   79  200 1    
   157   80   81 1    
   158   80   82 1    
   159   80  201 1    
   160   81  202 1    
   161   81  203 1    
   162   81  204 1    
   163   82   83 2    
   164   82   84 am   BACKBONE|DICT|INTERRES
   165   84   85 1    
   166   84  205 1    
   167   85   86 1    
   168   85   87 1    
   169   85  206 1    
   170   86  207 1    
   171   86  208 1    
   172   86  209 1    
   173   87   88 2    
   174   87   89 am   BACKBONE|DICT|INTERRES
   175   89   90 1    
   176   89  210 1    
   177   90   91 1    
   178   90   92 1    
   179   90  211 1    
   180   91  212 1    
   181   91  213 1    
   182   91  214 1    
   183   92   93 2    
   184   92   94 am   BACKBONE|DICT|INTERRES
   185   94   95 1    
   186   94  215 1    
   187   95   96 1    
   188   95   97 1    
   189   95  216 1    
   190   96  217 1    
   191   96  218 1    
   192   96  219 1    
   193   97   98 2    
   194   97   99 am   BACKBONE|DICT|INTERRES
   195   99  100 1    
   196   99  220 1    
   197  100  101 1    
   198  100  102 1    
   199  100  221 1    
   200  101  222 1    
   201  101  223 1    
   202  101  224 1    
   203  102  103 2    
   204  102  104 am   BACKBONE|DICT|INTERRES
   205  104  105 1    
   206  104  225 1    
   207  105  106 1    
   208  105  107 1    
   209  105  226 1    
   210  106  227 1    
   211  106  228 1    
   212  106  229 1    
   213  107  108 2    
   214  107  109 am   BACKBONE|DICT|INTERRES
   215  109  110 1    
   216  109  230 1    
   217  110  111 1    
   218  110  112 1    
   219  110  231 1    
   220  111  232 1    
   221  111  233 1    
   222  111  234 1    
   223  112  113 2    
   224  112  114 am   BACKBONE|DICT|INTERRES
   225  114  115 1    
   226  114  235 1    
   227  115  116 1    
   228  115  117 1    
   229  115  236 1    
   230  116  237 1    
   231  116  238 1    
   232  116  239 1    
   233  117  118 2    
   234  117  119 am   BACKBONE|DICT|INTERRES
   235  119  120 1    
   236  119  240 1    
   237  120  121 1    
   238  120  124 1    
   239  120  241 1    
   240  121  122 am   BACKBONE|DICT|INTERRES
   241  121  123 2    
   242  122  242 1    
   243  122  243 1    
   244  124  125 1    
   245  124  244 1    
   246  124  245 1    
   247  125  126 1    
   248  126  246 1    
   249  126  247 1    
@<TRIPOS>SUBSTRUCTURE
     1 UNK         1 GROUP             0       ****    0 ROOT    
