@<TRIPOS>MOLECULE
3R540
247   249    1
SMALL
USER_CHARGES


@<TRIPOS>ATOM
      1 CA          0.6740  -10.9192  -46.8567 C.3       0 UNK        -0.1800 
      2 C           0.1285  -11.9738  -47.8093 C.2       0 UNK         0.5000 
      3 O          -1.0819  -12.1867  -47.8469 O.2       0 UNK        -0.5000 
      4 N           1.0228  -12.6258  -48.5638 N.am      1 UNK        -0.5000 
      5 CA          0.7448  -13.6725  -49.5538 C.3       1 UNK         0.1400 
      6 C6          2.0587  -14.2585  -50.1219 C.3       23 UNK        -0.0398 
      7 S7          2.9901  -15.2023  -48.8676 S.3       23 UNK        -0.2404 
      8 C8          3.5567  -16.6403  -49.8354 C.3       23 UNK        -0.0205 
      9 C9          2.6300  -17.8483  -49.7375 C.ar      23 UNK        -0.0193 
     10 C10         1.2990  -17.7700  -50.1624 C.ar      23 UNK        -0.1150 
     11 C11         0.4788  -18.9042  -50.1676 C.ar      23 UNK        -0.0193 
     12 C12         1.0019  -20.1151  -49.7083 C.ar      23 UNK        -0.1150 
     13 C13         2.3203  -20.2117  -49.2621 C.ar      23 UNK        -0.0193 
     14 C14         3.1302  -19.0736  -49.2818 C.ar      23 UNK        -0.1150 
     15 C15         2.8823  -21.5612  -48.8293 C.3       23 UNK        -0.0205 
     16 S16         3.1612  -21.6840  -47.0338 S.3       23 UNK        -0.2404 
     17 C17         1.4650  -21.7258  -46.3597 C.3       23 UNK        -0.0398 
     18 CA          0.9506  -23.1478  -46.0209 C.3       11 UNK         0.1400 
     19 N           1.8892  -23.9191  -45.1992 N.am      11 UNK        -0.5000 
     20 C           1.7994  -25.2388  -44.9814 C.2       10 UNK         0.5000 
     21 O           0.9062  -25.9495  -45.4416 O.2       10 UNK        -0.5000 
     22 CA          2.8638  -25.8621  -44.0603 C.3       10 UNK         0.1400 
     23 CB          4.1616  -26.1301  -44.8369 C.3       10 UNK        -0.1800 
     24 N           3.1605  -25.0348  -42.8902 N.am      10 UNK        -0.5000 
     25 C           2.2742  -24.7253  -41.9336 C.2       9 UNK         0.5000 
     26 O           1.1102  -25.1199  -41.9271 O.2       9 UNK        -0.5000 
     27 CA          2.7509  -23.7857  -40.8133 C.3       9 UNK         0.1400 
     28 CB          3.3186  -24.5960  -39.6387 C.3       9 UNK        -0.1800 
     29 N           3.7425  -22.7983  -41.2448 N.am      9 UNK        -0.5000 
     30 C           3.5375  -21.8616  -42.1798 C.2       8 UNK         0.5000 
     31 O           2.5149  -21.7829  -42.8667 O.2       8 UNK        -0.5000 
     32 CA          4.6868  -20.8599  -42.3941 C.3       8 UNK         0.1400 
     33 CB          5.4186  -21.1527  -43.7124 C.3       8 UNK        -0.1800 
     34 N           4.2072  -19.4803  -42.4119 N.am      8 UNK        -0.5000 
     35 C           3.6003  -18.8512  -41.3949 C.2       7 UNK         0.5000 
     36 O           3.4657  -19.3430  -40.2733 O.2       7 UNK        -0.5000 
     37 CA          3.0655  -17.4266  -41.6606 C.3       7 UNK         0.1400 
     38 CB          3.8955  -16.3860  -40.8916 C.3       7 UNK        -0.1800 
     39 N           3.0416  -17.0510  -43.0780 N.am      7 UNK        -0.5000 
     40 C           2.2101  -17.5642  -43.9934 C.2       6 UNK         0.5000 
     41 O           1.3563  -18.4174  -43.7404 O.2       6 UNK        -0.5000 
     42 CA          2.4242  -17.0747  -45.4398 C.3       6 UNK         0.1400 
     43 CB          3.6536  -17.7729  -46.0434 C.3       6 UNK        -0.1800 
     44 N           1.2641  -17.3273  -46.2956 N.am      6 UNK        -0.5000 
     45 C           0.0576  -16.7731  -46.1206 C.2       5 UNK         0.5000 
     46 O          -0.1707  -15.8767  -45.3028 O.2       5 UNK        -0.5000 
     47 CA         -1.0814  -17.3492  -46.9824 C.3       5 UNK         0.1400 
     48 CB         -1.3020  -18.8409  -46.6815 C.3       5 UNK        -0.1800 
     49 N          -2.3352  -16.6399  -46.7332 N.am      5 UNK        -0.5000 
     50 C          -2.7482  -15.5839  -47.4373 C.2       4 UNK         0.5000 
     51 O          -2.1555  -15.1517  -48.4279 O.2       4 UNK        -0.5000 
     52 CA         -4.0304  -14.8906  -46.9472 C.3       4 UNK         0.1400 
     53 CB         -3.7123  -13.8892  -45.8263 C.3       4 UNK        -0.1800 
     54 N          -4.6118  -14.1716  -48.0736 N.am      4 UNK        -0.5000 
     55 C          -5.7573  -14.4770  -48.6929 C.2       3 UNK         0.5000 
     56 O          -6.6008  -15.2457  -48.2316 O.2       3 UNK        -0.5000 
     57 CA         -6.0048  -13.8129  -50.0657 C.3       3 UNK         0.1400 
     58 CB         -7.0916  -12.7319  -49.9592 C.3       3 UNK        -0.1800 
     59 N          -4.7985  -13.2137  -50.6483 N.am      3 UNK        -0.5000 
     60 C          -3.7583  -13.9035  -51.1385 C.2       2 UNK         0.5000 
     61 O          -3.7414  -15.1303  -51.2209 O.2       2 UNK        -0.5000 
     62 CA         -2.5101  -13.1066  -51.5514 C.3       2 UNK         0.1400 
     63 CB         -2.7234  -11.5734  -51.5635 C.3       2 UNK        -0.1800 
     64 N          -1.4477  -13.4847  -50.6253 N.am      2 UNK        -0.5000 
     65 C          -0.1572  -13.1471  -50.6912 C.2       1 UNK         0.5000 
     66 O           0.3338  -12.4545  -51.5861 O.2       1 UNK        -0.5000 
     67 C          -0.4347  -23.0684  -45.3468 C.2       11 UNK         0.5000 
     68 O          -1.4583  -23.2008  -46.0219 O.2       11 UNK        -0.5000 
     69 N          -0.4292  -22.8832  -44.0185 N.am      12 UNK        -0.5000 
     70 CA         -1.6206  -22.8497  -43.1744 C.3       12 UNK         0.1400 
     71 CB         -1.2425  -22.3399  -41.7756 C.3       12 UNK        -0.1800 
     72 C          -2.3226  -24.2172  -43.0981 C.2       12 UNK         0.5000 
     73 O          -3.5387  -24.2794  -43.2760 O.2       12 UNK        -0.5000 
     74 N          -1.5473  -25.2897  -42.8791 N.am      13 UNK        -0.5000 
     75 CA         -2.0248  -26.6744  -42.8128 C.3       13 UNK         0.1400 
     76 CB         -0.8814  -27.5921  -42.3546 C.3       13 UNK        -0.1800 
     77 C          -2.6161  -27.1773  -44.1417 C.2       13 UNK         0.5000 
     78 O          -3.5929  -27.9272  -44.1272 O.2       13 UNK        -0.5000 
     79 N          -2.0381  -26.7289  -45.2640 N.am      14 UNK        -0.5000 
     80 CA         -2.5390  -26.9819  -46.6154 C.3       14 UNK         0.1400 
     81 CB         -1.4227  -26.6624  -47.6226 C.3       14 UNK        -0.1800 
     82 C          -3.8106  -26.1798  -46.9616 C.2       14 UNK         0.5000 
     83 O          -4.4591  -26.4999  -47.9586 O.2       14 UNK        -0.5000 
     84 N          -4.1248  -25.1455  -46.1627 N.am      15 UNK        -0.5000 
     85 CA         -5.1794  -24.1454  -46.3691 C.3       15 UNK         0.1400 
     86 CB         -6.5784  -24.7809  -46.2371 C.3       15 UNK        -0.1800 
     87 C          -4.9828  -23.3733  -47.6902 C.2       15 UNK         0.5000 
     88 O          -5.9447  -23.1008  -48.4117 O.2       15 UNK        -0.5000 
     89 N          -3.7155  -23.0569  -47.9924 N.am      16 UNK        -0.5000 
     90 CA         -3.2617  -22.5466  -49.2856 C.3       16 UNK         0.1400 
     91 CB         -1.7329  -22.6345  -49.3335 C.3       16 UNK        -0.1800 
     92 C          -3.7422  -21.1231  -49.6199 C.2       16 UNK         0.5000 
     93 O          -3.6980  -20.7372  -50.7862 O.2       16 UNK        -0.5000 
     94 N          -4.2275  -20.3811  -48.6140 N.am      17 UNK        -0.5000 
     95 CA         -4.8129  -19.0396  -48.7271 C.3       17 UNK         0.1400 
     96 CB         -5.3001  -18.6103  -47.3354 C.3       17 UNK        -0.1800 
     97 C          -5.9692  -18.9409  -49.7447 C.2       17 UNK         0.5000 
     98 O          -6.1653  -17.8881  -50.3513 O.2       17 UNK        -0.5000 
     99 N          -6.6819  -20.0588  -49.9446 N.am      18 UNK        -0.5000 
    100 CA        -7.7504  -20.2267  -50.9283 C.3       18 UNK         0.1400 
    101 CB        -8.4340  -21.5796  -50.6758 C.3       18 UNK        -0.1800 
    102 C         -7.2901  -20.1203  -52.3987 C.2       18 UNK         0.5000 
    103 O         -8.1413  -19.9452  -53.2717 O.2       18 UNK        -0.5000 
    104 N         -5.9771  -20.2274  -52.6625 N.am      19 UNK        -0.5000 
    105 CA        -5.3899  -20.0952  -53.9978 C.3       19 UNK         0.1400 
    106 CB        -3.9147  -20.5239  -53.9593 C.3       19 UNK        -0.1800 
    107 C         -5.5088  -18.6742  -54.5784 C.2       19 UNK         0.5000 
    108 O         -5.6277  -18.5373  -55.7964 O.2       19 UNK        -0.5000 
    109 N         -5.4590  -17.6533  -53.7068 N.am      20 UNK        -0.5000 
    110 CA        -5.5648  -16.2059  -53.9563 C.3       20 UNK         0.1400 
    111 CB        -6.9402  -15.8473  -54.5480 C.3       20 UNK        -0.1800 
    112 C         -4.4258  -15.5898  -54.8000 C.2       20 UNK         0.5000 
    113 O         -3.9606  -14.4928  -54.4906 O.2       20 UNK        -0.5000 
    114 N         -3.9908  -16.2983  -55.8464 N.am      21 UNK        -0.5000 
    115 CA        -2.9410  -15.9062  -56.7871 C.3       21 UNK         0.1400 
    116 CB        -3.1518  -16.6880  -58.0939 C.3       21 UNK        -0.1800 
    117 C         -1.5113  -16.1211  -56.2492 C.2       21 UNK         0.5000 
    118 O         -0.5545  -15.7416  -56.9256 O.2       21 UNK        -0.5000 
    119 N         -1.3795  -16.7296  -55.0633 N.am      22 UNK        -0.5000 
    120 CA        -0.1024  -17.0085  -54.3856 C.3       22 UNK         0.1400 
    121 C          0.6620  -15.7596  -53.8477 C.2       22 UNK         0.5000 
    122 N          0.0732  -14.5703  -53.8491 N.am      22 UNK        -0.7600 
    123 O          1.8108  -15.8745  -53.4310 O.2       22 UNK        -0.5000 
    124 C124       -0.2720  -18.1018  -53.2988 C.3       23 UNK        -0.0398 
    125 S125       -1.3524  -17.5964  -51.9128 S.3       23 UNK        -0.2404 
    126 C126       -0.9672  -18.8725  -50.6663 C.3       23 UNK        -0.0205 
    127 H127        0.4110  -11.1715  -45.8293 H         1 UNK         0.0600 
    128 H128        0.2445   -9.9451  -47.0904 H         1 UNK         0.0600 
    129 H129        1.7595  -10.8364  -46.9190 H         1 UNK         0.0600 
    130 H130        1.9988  -12.3856  -48.4694 H         1 UNK         0.3000 
    131 H131        0.2187  -14.4796  -49.0425 H         1 UNK         0.0600 
    132 H132        1.8505  -14.9026  -50.9752 H         1 UNK         0.0800 
    133 H133        2.7019  -13.4649  -50.5061 H         1 UNK         0.0800 
    134 H134        4.5539  -16.9041  -49.4803 H         1 UNK         0.0800 
    135 H135        3.6804  -16.3658  -50.8840 H         1 UNK         0.0800 
    136 H136        0.9074  -16.8310  -50.5187 H         1 UNK         0.1150 
    137 H137        0.3892  -21.0002  -49.7231 H         1 UNK         0.1150 
    138 H138        4.1600  -19.1529  -48.9626 H         1 UNK         0.1150 
    139 H139        3.8328  -21.7249  -49.3388 H         1 UNK         0.0800 
    140 H140        2.2283  -22.3756  -49.1452 H         1 UNK         0.0800 
    141 H141        0.7929  -21.2596  -47.0774 H         1 UNK         0.0800 
    142 H142        1.4560  -21.0893  -45.4719 H         1 UNK         0.0800 
    143 H143        0.8221  -23.6859  -46.9627 H         1 UNK         0.0600 
    144 H144        2.6262  -23.3939  -44.7503 H         1 UNK         0.3000 
    145 H145        2.4746  -26.8184  -43.7043 H         1 UNK         0.0600 
    146 H146        3.9719  -26.7592  -45.7077 H         1 UNK         0.0600 
    147 H147        4.8929  -26.6482  -44.2163 H         1 UNK         0.0600 
    148 H148        4.6175  -25.2053  -45.1932 H         1 UNK         0.0600 
    149 H149        4.0951  -24.6615  -42.8171 H         1 UNK         0.3000 
    150 H150        1.8771  -23.2367  -40.4565 H         1 UNK         0.0600 
    151 H151        3.5681  -23.9498  -38.7969 H         1 UNK         0.0600 
    152 H152        2.5917  -25.3265  -39.2807 H         1 UNK         0.0600 
    153 H153        4.2193  -25.1415  -39.9234 H         1 UNK         0.0600 
    154 H154        4.6148  -22.7940  -40.7360 H         1 UNK         0.3000 
    155 H155        5.4012  -20.9540  -41.5736 H         1 UNK         0.0600 
    156 H156        4.7623  -21.0195  -44.5727 H         1 UNK         0.0600 
    157 H157        5.7890  -22.1783  -43.7371 H         1 UNK         0.0600 
    158 H158        6.2775  -20.4941  -43.8422 H         1 UNK         0.0600 
    159 H159        4.2456  -19.0049  -43.2996 H         1 UNK         0.3000 
    160 H160        2.0413  -17.3925  -41.2831 H         1 UNK         0.0600 
    161 H161        4.9316  -16.3671  -41.2317 H         1 UNK         0.0600 
    162 H162        3.9053  -16.6039  -39.8227 H         1 UNK         0.0600 
    163 H163        3.4829  -15.3841  -41.0118 H         1 UNK         0.0600 
    164 H164        3.7235  -16.3639  -43.3665 H         1 UNK         0.3000 
    165 H165        2.6029  -15.9976  -45.4195 H         1 UNK         0.0600 
    166 H166        4.5438  -17.6122  -45.4344 H         1 UNK         0.0600 
    167 H167        3.5037  -18.8494  -46.1264 H         1 UNK         0.0600 
    168 H168        3.8794  -17.3873  -47.0351 H         1 UNK         0.0600 
    169 H169        1.3754  -18.0526  -46.9882 H         1 UNK         0.3000 
    170 H170       -0.7930  -17.2452  -48.0300 H         1 UNK         0.0600 
    171 H171       -1.5294  -19.0148  -45.6290 H         1 UNK         0.0600 
    172 H172       -0.4146  -19.4189  -46.9270 H         1 UNK         0.0600 
    173 H173       -2.1174  -19.2479  -47.2758 H         1 UNK         0.0600 
    174 H174       -2.8248  -16.8891  -45.8866 H         1 UNK         0.3000 
    175 H175       -4.7199  -15.6450  -46.5653 H         1 UNK         0.0600 
    176 H176       -4.6155  -13.3856  -45.4813 H         1 UNK         0.0600 
    177 H177       -3.2695  -14.3917  -44.9655 H         1 UNK         0.0600 
    178 H178       -3.0084  -13.1246  -46.1565 H         1 UNK         0.0600 
    179 H179       -3.9637  -13.5701  -48.5618 H         1 UNK         0.3000 
    180 H180       -6.3614  -14.5928  -50.7421 H         1 UNK         0.0600 
    181 H181       -6.7869  -11.9190  -49.2990 H         1 UNK         0.0600 
    182 H182       -8.0185  -13.1476  -49.5619 H         1 UNK         0.0600 
    183 H183       -7.3213  -12.3055  -50.9358 H         1 UNK         0.0600 
    184 H184       -4.7325  -12.2069  -50.6088 H         1 UNK         0.3000 
    185 H185       -2.2338  -13.4340  -52.5544 H         1 UNK         0.0600 
    186 H186       -3.5732  -11.2973  -52.1893 H         1 UNK         0.0600 
    187 H187       -2.8946  -11.1785  -50.5613 H         1 UNK         0.0600 
    188 H188       -1.8580  -11.0548  -51.9748 H         1 UNK         0.0600 
    189 H189       -1.7459  -14.0883  -49.8574 H         1 UNK         0.3000 
    190 H190        0.4627  -22.7784  -43.5515 H         1 UNK         0.3000 
    191 H191       -2.3225  -22.1385  -43.6150 H         1 UNK         0.0600 
    192 H192       -0.7892  -21.3495  -41.8268 H         1 UNK         0.0600 
    193 H193       -2.1239  -22.2627  -41.1379 H         1 UNK         0.0600 
    194 H194       -0.5358  -23.0047  -41.2788 H         1 UNK         0.0600 
    195 H195       -0.5553  -25.1513  -42.6967 H         1 UNK         0.3000 
    196 H196       -2.8170  -26.7169  -42.0627 H         1 UNK         0.0600 
    197 H197       -0.0363  -27.5538  -43.0431 H         1 UNK         0.0600 
    198 H198       -1.2110  -28.6300  -42.2941 H         1 UNK         0.0600 
    199 H199       -0.5210  -27.3083  -41.3657 H         1 UNK         0.0600 
    200 H200       -1.1955  -26.1692  -45.1913 H         1 UNK         0.3000 
    201 H201       -2.7856  -28.0420  -46.7023 H         1 UNK         0.0600 
    202 H202       -1.7506  -26.8438  -48.6469 H         1 UNK         0.0600 
    203 H203       -0.5454  -27.2855  -47.4485 H         1 UNK         0.0600 
    204 H204       -1.1106  -25.6195  -47.5567 H         1 UNK         0.0600 
    205 H205       -3.5357  -24.9808  -45.3560 H         1 UNK         0.3000 
    206 H206       -5.0705  -23.4140  -45.5672 H         1 UNK         0.0600 
    207 H207       -6.7841  -25.4843  -47.0442 H         1 UNK         0.0600 
    208 H208       -6.6795  -25.3149  -45.2922 H         1 UNK         0.0600 
    209 H209       -7.3570  -24.0177  -46.2635 H         1 UNK         0.0600 
    210 H210       -2.9876  -23.2741  -47.3172 H         1 UNK         0.3000 
    211 H211       -3.6615  -23.2057  -50.0590 H         1 UNK         0.0600 
    212 H212       -1.3588  -22.3253  -50.3099 H         1 UNK         0.0600 
    213 H213       -1.3895  -23.6553  -49.1655 H         1 UNK         0.0600 
    214 H214       -1.2786  -21.9991  -48.5730 H         1 UNK         0.0600 
    215 H215       -4.2336  -20.7979  -47.6952 H         1 UNK         0.3000 
    216 H216       -4.0272  -18.3544  -49.0525 H         1 UNK         0.0600 
    217 H217       -6.0517  -19.2978  -46.9452 H         1 UNK         0.0600 
    218 H218       -4.4803  -18.5710  -46.6192 H         1 UNK         0.0600 
    219 H219       -5.7546  -17.6210  -47.3685 H         1 UNK         0.0600 
    220 H220       -6.4326  -20.8827  -49.4130 H         1 UNK         0.3000 
    221 H221       -8.4833  -19.4347  -50.7617 H         1 UNK         0.0600 
    222 H222       -7.7380  -22.4098  -50.8034 H         1 UNK         0.0600 
    223 H223       -8.8388  -21.6352  -49.6650 H         1 UNK         0.0600 
    224 H224       -9.2640  -21.7362  -51.3661 H         1 UNK         0.0600 
    225 H225       -5.3258  -20.3781  -51.8980 H         1 UNK         0.3000 
    226 H226       -5.9234  -20.7731  -54.6673 H         1 UNK         0.0600 
    227 H227       -3.8080  -21.5424  -53.5857 H         1 UNK         0.0600 
    228 H228       -3.4728  -20.4945  -54.9560 H         1 UNK         0.0600 
    229 H229       -3.3216  -19.8686  -53.3198 H         1 UNK         0.0600 
    230 H230       -5.3489  -17.8964  -52.7303 H         1 UNK         0.3000 
    231 H231       -5.5145  -15.7398  -52.9732 H         1 UNK         0.0600 
    232 H232       -7.0776  -16.2654  -55.5455 H         1 UNK         0.0600 
    233 H233       -7.0578  -14.7660  -54.6292 H         1 UNK         0.0600 
    234 H234       -7.7481  -16.2156  -53.9155 H         1 UNK         0.0600 
    235 H235       -4.4632  -17.1811  -56.0299 H         1 UNK         0.3000 
    236 H236       -3.0485  -14.8416  -57.0043 H         1 UNK         0.0600 
    237 H237       -3.0575  -17.7634  -57.9371 H         1 UNK         0.0600 
    238 H238       -4.1398  -16.4961  -58.5129 H         1 UNK         0.0600 
    239 H239       -2.4195  -16.3996  -58.8492 H         1 UNK         0.0600 
    240 H240       -2.2147  -16.9840  -54.5574 H         1 UNK         0.3000 
    241 H241        0.5576  -17.4317  -55.1452 H         1 UNK         0.0600 
    242 H242        0.5535  -13.7684  -53.4677 H         1 UNK         0.3800 
    243 H243       -0.8654  -14.4740  -54.1998 H         1 UNK         0.3800 
    244 H244        0.7054  -18.3925  -52.9112 H         1 UNK         0.0800 
    245 H245       -0.6908  -19.0048  -53.7447 H         1 UNK         0.0800 
    246 H246       -1.2237  -19.8400  -51.0992 H         1 UNK         0.0800 
    247 H247       -1.6289  -18.7299  -49.8124 H         1 UNK         0.0800 
@<TRIPOS>BOND
     1    1    2 1    
     2    1  127 1    
     3    1  128 1    
     4    1  129 1    
     5    2    3 2    
     6    2    4 am   BACKBONE|DICT|INTERRES
     7    4    5 1    
     8    4  130 1    
     9    5    6 1    
    10    5   65 1    
    11    5  131 1    
    12    6    7 1    
    13    6  132 1    
    14    6  133 1    
    15    7    8 1    
    16    8    9 1    
    17    8  134 1    
    18    8  135 1    
    19    9   10 ar   
    20    9   14 ar   
    21   10   11 ar   
    22   10  136 1    
    23   11   12 ar   
    24   11  126 1    
    25   12   13 ar   
    26   12  137 1    
    27   13   14 ar   
    28   13   15 1    
    29   14  138 1    
    30   15   16 1    
    31   15  139 1    
    32   15  140 1    
    33   16   17 1    
    34   17   18 1    
    35   17  141 1    
    36   17  142 1    
    37   18   19 1    
    38   18   67 1    
    39   18  143 1    
    40   19   20 am   BACKBONE|DICT|INTERRES
    41   19  144 1    
    42   20   21 2    
    43   20   22 1    
    44   22   23 1    
    45   22   24 1    
    46   22  145 1    
    47   23  146 1    
    48   23  147 1    
    49   23  148 1    
    50   24   25 am   BACKBONE|DICT|INTERRES
    51   24  149 1    
    52   25   26 2    
    53   25   27 1    
    54   27   28 1    
    55   27   29 1    
    56   27  150 1    
    57   28  151 1    
    58   28  152 1    
    59   28  153 1    
    60   29   30 am   BACKBONE|DICT|INTERRES
    61   29  154 1    
    62   30   31 2    
    63   30   32 1    
    64   32   33 1    
    65   32   34 1    
    66   32  155 1    
    67   33  156 1    
    68   33  157 1    
    69   33  158 1    
    70   34   35 am   BACKBONE|DICT|INTERRES
    71   34  159 1    
    72   35   36 2    
    73   35   37 1    
    74   37   38 1    
    75   37   39 1    
    76   37  160 1    
    77   38  161 1    
    78   38  162 1    
    79   38  163 1    
    80   39   40 am   BACKBONE|DICT|INTERRES
    81   39  164 1    
    82   40   41 2    
    83   40   42 1    
    84   42   43 1    
    85   42   44 1    
    86   42  165 1    
    87   43  166 1    
    88   43  167 1    
    89   43  168 1    
    90   44   45 am   BACKBONE|DICT|INTERRES
    91   44  169 1    
    92   45   46 2    
    93   45   47 1    
    94   47   48 1    
    95   47   49 1    
    96   47  170 1    
    97   48  171 1    
    98   48  172 1    
    99   48  173 1    
   100   49   50 am   BACKBONE|DICT|INTERRES
   101   49  174 1    
   102   50   51 2    
   103   50   52 1    
   104   52   53 1    
   105   52   54 1    
   106   52  175 1    
   107   53  176 1    
   108   53  177 1    
   109   53  178 1    
   110   54   55 am   BACKBONE|DICT|INTERRES
   111   54  179 1    
   112   55   56 2    
   113   55   57 1    
   114   57   58 1    
   115   57   59 1    
   116   57  180 1    
   117   58  181 1    
   118   58  182 1    
   119   58  183 1    
   120   59   60 am   BACKBONE|DICT|INTERRES
   121   59  184 1    
   122   60   61 2    
   123   60   62 1    
   124   62   63 1    
   125   62   64 1    
   126   62  185 1    
   127   63  186 1    
   128   63  187 1    
   129   63  188 1    
   130   64   65 am   BACKBONE|DICT|INTERRES
   131   64  189 1    
   132   65   66 2    
   133   67   68 2    
   134   67   69 am   BACKBONE|DICT|INTERRES
   135   69   70 1    
   136   69  190 1    
   137   70   71 1    
   138   70   72 1    
   139   70  191 1    
   140   71  192 1    
   141   71  193 1    
   142   71  194 1    
   143   72   73 2    
   144   72   74 am   BACKBONE|DICT|INTERRES
   145   74   75 1    
   146   74  195 1    
   147   75   76 1    
   148   75   77 1    
   149   75  196 1    
   150   76  197 1    
   151   76  198 1    
   152   76  199 1    
   153   77   78 2    
   154   77   79 am   BACKBONE|DICT|INTERRES
   155   79   80 1    
   156   79  200 1    
   157   80   81 1    
   158   80   82 1    
   159   80  201 1    
   160   81  202 1    
   161   81  203 1    
   162   81  204 1    
   163   82   83 2    
   164   82   84 am   BACKBONE|DICT|INTERRES
   165   84   85 1    
   166   84  205 1    
   167   85   86 1    
   168   85   87 1    
   169   85  206 1    
   170   86  207 1    
   171   86  208 1    
   172   86  209 1    
   173   87   88 2    
   174   87   89 am   BACKBONE|DICT|INTERRES
   175   89   90 1    
   176   89  210 1    
   177   90   91 1    
   178   90   92 1    
   179   90  211 1    
   180   91  212 1    
   181   91  213 1    
   182   91  214 1    
   183   92   93 2    
   184   92   94 am   BACKBONE|DICT|INTERRES
   185   94   95 1    
   186   94  215 1    
   187   95   96 1    
   188   95   97 1    
   189   95  216 1    
   190   96  217 1    
   191   96  218 1    
   192   96  219 1    
   193   97   98 2    
   194   97   99 am   BACKBONE|DICT|INTERRES
   195   99  100 1    
   196   99  220 1    
   197  100  101 1    
   198  100  102 1    
   199  100  221 1    
   200  101  222 1    
   201  101  223 1    
   202  101  224 1    
   203  102  103 2    
   204  102  104 am   BACKBONE|DICT|INTERRES
   205  104  105 1    
   206  104  225 1    
   207  105  106 1    
   208  105  107 1    
   209  105  226 1    
   210  106  227 1    
   211  106  228 1    
   212  106  229 1    
   213  107  108 2    
   214  107  109 am   BACKBONE|DICT|INTERRES
   215  109  110 1    
   216  109  230 1    
   217  110  111 1    
   218  110  112 1    
   219  110  231 1    
   220  111  232 1    
   221  111  233 1    
   222  111  234 1    
   223  112  113 2    
   224  112  114 am   BACKBONE|DICT|INTERRES
   225  114  115 1    
   226  114  235 1    
   227  115  116 1    
   228  115  117 1    
   229  115  236 1    
   230  116  237 1    
   231  116  238 1    
   232  116  239 1    
   233  117  118 2    
   234  117  119 am   BACKBONE|DICT|INTERRES
   235  119  120 1    
   236  119  240 1    
   237  120  121 1    
   238  120  124 1    
   239  120  241 1    
   240  121  122 am   BACKBONE|DICT|INTERRES
   241  121  123 2    
   242  122  242 1    
   243  122  243 1    
   244  124  125 1    
   245  124  244 1    
   246  124  245 1    
   247  125  126 1    
   248  126  246 1    
   249  126  247 1    
@<TRIPOS>SUBSTRUCTURE
     1 UNK         1 GROUP             0       ****    0 ROOT    
