@<TRIPOS>MOLECULE
3R540
247   249    1
SMALL
USER_CHARGES


@<TRIPOS>ATOM
      1 CA          2.9524  -11.0533  -47.3911 C.3       0 UNK        -0.1800 
      2 C           1.7525  -11.9404  -47.7160 C.2       0 UNK         0.5000 
      3 O           0.6294  -11.5652  -47.3907 O.2       0 UNK        -0.5000 
      4 N           1.9176  -13.1029  -48.3644 N.am      1 UNK        -0.5000 
      5 CA          3.1733  -13.7167  -48.8112 C.3       1 UNK         0.1400 
      6 C6          2.9021  -14.8967  -49.7760 C.3       23 UNK        -0.0398 
      7 S7          4.3839  -15.4478  -50.6927 S.3       23 UNK        -0.2404 
      8 C8          4.7421  -17.0563  -49.8939 C.3       23 UNK        -0.0205 
      9 C9          3.7155  -18.1727  -50.1127 C.ar      23 UNK        -0.0193 
     10 C10         2.6044  -18.0347  -50.9545 C.ar      23 UNK        -0.1150 
     11 C11         1.6767  -19.0682  -51.0984 C.ar      23 UNK        -0.0193 
     12 C12         1.8723  -20.2689  -50.4117 C.ar      23 UNK        -0.1150 
     13 C13         2.9939  -20.4403  -49.5940 C.ar      23 UNK        -0.0193 
     14 C14         3.9038  -19.3880  -49.4463 C.ar      23 UNK        -0.1150 
     15 C15         3.2413  -21.7762  -48.9038 C.3       23 UNK        -0.0205 
     16 S16         3.3160  -21.6572  -47.0845 S.3       23 UNK        -0.2404 
     17 C17         1.6734  -20.9910  -46.6569 C.3       23 UNK        -0.0398 
     18 CA          0.6282  -22.0844  -46.3209 C.3       11 UNK         0.1400 
     19 N          -0.4493  -21.5633  -45.4768 N.am      11 UNK        -0.5000 
     20 C          -1.4433  -22.2873  -44.9438 C.2       10 UNK         0.5000 
     21 O          -1.5359  -23.5100  -45.0523 O.2       10 UNK        -0.5000 
     22 CA         -2.5493  -21.5067  -44.2079 C.3       10 UNK         0.1400 
     23 CB         -2.1209  -21.1608  -42.7743 C.3       10 UNK        -0.1800 
     24 N          -2.9459  -20.2861  -44.9133 N.am      10 UNK        -0.5000 
     25 C          -3.4995  -20.2679  -46.1349 C.2       9 UNK         0.5000 
     26 O          -3.7670  -21.2808  -46.7799 O.2       9 UNK        -0.5000 
     27 CA         -3.7429  -18.8872  -46.7661 C.3       9 UNK         0.1400 
     28 CB         -4.9614  -18.1995  -46.1287 C.3       9 UNK        -0.1800 
     29 N          -2.5773  -18.0074  -46.6692 N.am      9 UNK        -0.5000 
     30 C          -1.3648  -18.2711  -47.1778 C.2       8 UNK         0.5000 
     31 O          -1.1084  -19.2650  -47.8533 O.2       8 UNK        -0.5000 
     32 CA         -0.2288  -17.2998  -46.8069 C.3       8 UNK         0.1400 
     33 CB         -0.2579  -16.0478  -47.6943 C.3       8 UNK        -0.1800 
     34 N          -0.2714  -16.9058  -45.3971 N.am      8 UNK        -0.5000 
     35 C          -0.1329  -17.7543  -44.3671 C.2       7 UNK         0.5000 
     36 O           0.1043  -18.9528  -44.4995 O.2       7 UNK        -0.5000 
     37 CA         -0.3467  -17.1843  -42.9557 C.3       7 UNK         0.1400 
     38 CB          0.9133  -16.4801  -42.4384 C.3       7 UNK        -0.1800 
     39 N          -1.4779  -16.2620  -42.9175 N.am      7 UNK        -0.5000 
     40 C          -2.7574  -16.6428  -43.0301 C.2       6 UNK         0.5000 
     41 O          -3.1157  -17.8185  -43.1036 O.2       6 UNK        -0.5000 
     42 CA         -3.8018  -15.5148  -43.1183 C.3       6 UNK         0.1400 
     43 CB         -4.2274  -15.0606  -41.7143 C.3       6 UNK        -0.1800 
     44 N          -3.3108  -14.3598  -43.8739 N.am      6 UNK        -0.5000 
     45 C          -3.0645  -14.3676  -45.1920 C.2       5 UNK         0.5000 
     46 O          -3.2705  -15.3381  -45.9183 O.2       5 UNK        -0.5000 
     47 CA         -2.4389  -13.0944  -45.7882 C.3       5 UNK         0.1400 
     48 CB         -3.5319  -12.0982  -46.2013 C.3       5 UNK        -0.1800 
     49 N          -1.4993  -12.4415  -44.8730 N.am      5 UNK        -0.5000 
     50 C          -0.3208  -12.9612  -44.5076 C.2       4 UNK         0.5000 
     51 O           0.0915  -14.0631  -44.8820 O.2       4 UNK        -0.5000 
     52 CA          0.5138  -12.1333  -43.5239 C.3       4 UNK         0.1400 
     53 CB          0.0901  -12.4329  -42.0739 C.3       4 UNK        -0.1800 
     54 N           1.9227  -12.4574  -43.7144 N.am      4 UNK        -0.5000 
     55 C           2.9609  -11.7117  -43.3201 C.2       3 UNK         0.5000 
     56 O           2.8298  -10.6451  -42.7178 O.2       3 UNK        -0.5000 
     57 CA          4.3861  -12.1906  -43.6800 C.3       3 UNK         0.1400 
     58 CB          5.2421  -12.4254  -42.4189 C.3       3 UNK        -0.1800 
     59 N           4.4458  -13.3418  -44.5928 N.am      3 UNK        -0.5000 
     60 C           4.1178  -14.6201  -44.3610 C.2       2 UNK         0.5000 
     61 O           3.7316  -15.0398  -43.2716 O.2       2 UNK        -0.5000 
     62 CA          4.1900  -15.5648  -45.5790 C.3       2 UNK         0.1400 
     63 CB          3.6007  -16.9578  -45.2963 C.3       2 UNK        -0.1800 
     64 N           3.5021  -14.9956  -46.7412 N.am      2 UNK        -0.5000 
     65 C           4.0516  -14.1470  -47.6197 C.2       1 UNK         0.5000 
     66 O           5.1811  -13.6750  -47.4893 O.2       1 UNK        -0.5000 
     67 C           0.0736  -22.7448  -47.5983 C.2       11 UNK         0.5000 
     68 O           0.4160  -23.8902  -47.8904 O.2       11 UNK        -0.5000 
     69 N          -0.7990  -22.0259  -48.3168 N.am      12 UNK        -0.5000 
     70 CA         -1.4570  -22.4968  -49.5319 C.3       12 UNK         0.1400 
     71 CB         -2.2197  -21.3402  -50.1857 C.3       12 UNK        -0.1800 
     72 C          -2.3797  -23.7014  -49.2847 C.2       12 UNK         0.5000 
     73 O          -2.3786  -24.6281  -50.0923 O.2       12 UNK        -0.5000 
     74 N          -3.1099  -23.6994  -48.1610 N.am      13 UNK        -0.5000 
     75 CA         -3.9340  -24.8214  -47.7116 C.3       13 UNK         0.1400 
     76 CB         -4.7626  -24.4051  -46.4873 C.3       13 UNK        -0.1800 
     77 C          -3.1005  -26.0800  -47.4091 C.2       13 UNK         0.5000 
     78 O          -3.4640  -27.1658  -47.8614 O.2       13 UNK        -0.5000 
     79 N          -1.9770  -25.9091  -46.6965 N.am      14 UNK        -0.5000 
     80 CA         -1.0169  -26.9728  -46.3872 C.3       14 UNK         0.1400 
     81 CB          0.0165  -26.4537  -45.3761 C.3       14 UNK        -0.1800 
     82 C          -0.3199  -27.5393  -47.6397 C.2       14 UNK         0.5000 
     83 O          -0.0891  -28.7465  -47.7148 O.2       14 UNK        -0.5000 
     84 N          -0.0317  -26.6651  -48.6127 N.am      15 UNK        -0.5000 
     85 CA          0.5278  -27.0092  -49.9216 C.3       15 UNK         0.1400 
     86 CB          1.1182  -25.7371  -50.5525 C.3       15 UNK        -0.1800 
     87 C          -0.4888  -27.6616  -50.8838 C.2       15 UNK         0.5000 
     88 O          -0.0780  -28.1527  -51.9360 O.2       15 UNK        -0.5000 
     89 N          -1.7823  -27.6390  -50.5255 N.am      16 UNK        -0.5000 
     90 CA         -2.9389  -28.0771  -51.3158 C.3       16 UNK         0.1400 
     91 CB         -2.8996  -29.5990  -51.5672 C.3       16 UNK        -0.1800 
     92 C          -3.1274  -27.2459  -52.6043 C.2       16 UNK         0.5000 
     93 O          -3.5197  -27.7816  -53.6432 O.2       16 UNK        -0.5000 
     94 N          -2.8392  -25.9445  -52.5005 N.am      17 UNK        -0.5000 
     95 CA         -3.0113  -24.9317  -53.5346 C.3       17 UNK         0.1400 
     96 CB         -1.7508  -24.0429  -53.5476 C.3       17 UNK        -0.1800 
     97 C          -4.3062  -24.1346  -53.2695 C.2       17 UNK         0.5000 
     98 O          -5.2373  -24.6517  -52.6459 O.2       17 UNK        -0.5000 
     99 N          -4.3576  -22.8898  -53.7603 N.am      18 UNK        -0.5000 
    100 CA        -5.4572  -21.9463  -53.5661 C.3       18 UNK         0.1400 
    101 CB        -5.3164  -20.8069  -54.5893 C.3       18 UNK        -0.1800 
    102 C         -5.4848  -21.4201  -52.1184 C.2       18 UNK         0.5000 
    103 O         -4.8642  -20.3994  -51.8206 O.2       18 UNK        -0.5000 
    104 N         -6.1900  -22.1419  -51.2386 N.am      19 UNK        -0.5000 
    105 CA        -6.2989  -21.8787  -49.7996 C.3       19 UNK         0.1400 
    106 CB        -7.1474  -22.9875  -49.1601 C.3       19 UNK        -0.1800 
    107 C         -6.8687  -20.4933  -49.4330 C.2       19 UNK         0.5000 
    108 O         -6.5973  -20.0009  -48.3398 O.2       19 UNK        -0.5000 
    109 N         -7.6214  -19.8686  -50.3479 N.am      20 UNK        -0.5000 
    110 CA        -8.1934  -18.5260  -50.2228 C.3       20 UNK         0.1400 
    111 CB        -9.3742  -18.4084  -51.2038 C.3       20 UNK        -0.1800 
    112 C         -7.1433  -17.4048  -50.4138 C.2       20 UNK         0.5000 
    113 O         -7.3384  -16.5133  -51.2412 O.2       20 UNK        -0.5000 
    114 N         -6.0555  -17.4718  -49.6331 N.am      21 UNK        -0.5000 
    115 CA        -4.9220  -16.5400  -49.5906 C.3       21 UNK         0.1400 
    116 CB        -5.3573  -15.1717  -49.0245 C.3       21 UNK        -0.1800 
    117 C         -4.1572  -16.4367  -50.9272 C.2       21 UNK         0.5000 
    118 O         -3.8069  -15.3337  -51.3523 O.2       21 UNK        -0.5000 
    119 N         -3.8870  -17.5980  -51.5392 N.am      22 UNK        -0.5000 
    120 CA        -3.1241  -17.7816  -52.7861 C.3       22 UNK         0.1400 
    121 C         -3.8990  -17.3451  -54.0671 C.2       22 UNK         0.5000 
    122 N         -3.3205  -17.5337  -55.2469 N.am      22 UNK        -0.7600 
    123 O         -5.0292  -16.8650  -54.0248 O.2       22 UNK        -0.5000 
    124 C124       -1.6852  -17.1876  -52.7313 C.3       23 UNK        -0.0398 
    125 S125       -0.7225  -17.7257  -51.2742 S.3       23 UNK        -0.2404 
    126 C126        0.4802  -18.8720  -52.0155 C.3       23 UNK        -0.0205 
    127 H127        3.6588  -11.0017  -48.2186 H         1 UNK         0.0600 
    128 H128        3.4708  -11.4204  -46.5075 H         1 UNK         0.0600 
    129 H129        2.6224  -10.0355  -47.1823 H         1 UNK         0.0600 
    130 H130        1.0843  -13.6302  -48.5773 H         1 UNK         0.3000 
    131 H131        3.7238  -12.9611  -49.3746 H         1 UNK         0.0600 
    132 H132        2.1715  -14.5913  -50.5266 H         1 UNK         0.0800 
    133 H133        2.4462  -15.7381  -49.2522 H         1 UNK         0.0800 
    134 H134        5.7069  -17.4050  -50.2645 H         1 UNK         0.0800 
    135 H135        4.8675  -16.8937  -48.8224 H         1 UNK         0.0800 
    136 H136        2.4353  -17.1205  -51.5028 H         1 UNK         0.1150 
    137 H137        1.1608  -21.0738  -50.5280 H         1 UNK         0.1150 
    138 H138        4.7671  -19.5200  -48.8087 H         1 UNK         0.1150 
    139 H139        2.4841  -22.5075  -49.1880 H         1 UNK         0.0800 
    140 H140        4.1903  -22.1782  -49.2609 H         1 UNK         0.0800 
    141 H141        1.3188  -20.3113  -47.4323 H         1 UNK         0.0800 
    142 H142        1.8391  -20.3653  -45.7802 H         1 UNK         0.0800 
    143 H143        1.1227  -22.8636  -45.7369 H         1 UNK         0.0600 
    144 H144       -0.4257  -20.5649  -45.2846 H         1 UNK         0.3000 
    145 H145       -3.4269  -22.1537  -44.1504 H         1 UNK         0.0600 
    146 H146       -2.9263  -20.6659  -42.2313 H         1 UNK         0.0600 
    147 H147       -1.8579  -22.0616  -42.2183 H         1 UNK         0.0600 
    148 H148       -1.2538  -20.5007  -42.7584 H         1 UNK         0.0600 
    149 H149       -2.7827  -19.4069  -44.4349 H         1 UNK         0.3000 
    150 H150       -3.9510  -19.0503  -47.8250 H         1 UNK         0.0600 
    151 H151       -5.8387  -18.8455  -46.1534 H         1 UNK         0.0600 
    152 H152       -5.2190  -17.2792  -46.6509 H         1 UNK         0.0600 
    153 H153       -4.7838  -17.9469  -45.0853 H         1 UNK         0.0600 
    154 H154       -2.7157  -17.1279  -46.1784 H         1 UNK         0.3000 
    155 H155        0.7203  -17.8128  -46.9766 H         1 UNK         0.0600 
    156 H156       -1.2258  -15.5485  -47.6604 H         1 UNK         0.0600 
    157 H157       -0.0607  -16.3067  -48.7344 H         1 UNK         0.0600 
    158 H158        0.4985  -15.3295  -47.3840 H         1 UNK         0.0600 
    159 H159       -0.4070  -15.9187  -45.2010 H         1 UNK         0.3000 
    160 H160       -0.5611  -18.0214  -42.2878 H         1 UNK         0.0600 
    161 H161        1.1594  -15.6045  -43.0372 H         1 UNK         0.0600 
    162 H162        1.7752  -17.1481  -42.4662 H         1 UNK         0.0600 
    163 H163        0.7881  -16.1536  -41.4061 H         1 UNK         0.0600 
    164 H164       -1.2639  -15.2770  -42.8997 H         1 UNK         0.3000 
    165 H165       -4.6805  -15.9111  -43.6312 H         1 UNK         0.0600 
    166 H166       -5.0173  -14.3111  -41.7653 H         1 UNK         0.0600 
    167 H167       -4.6138  -15.8996  -41.1340 H         1 UNK         0.0600 
    168 H168       -3.3930  -14.6325  -41.1573 H         1 UNK         0.0600 
    169 H169       -3.1218  -13.5170  -43.3524 H         1 UNK         0.3000 
    170 H170       -1.8880  -13.3836  -46.6857 H         1 UNK         0.0600 
    171 H171       -4.2342  -12.5573  -46.8987 H         1 UNK         0.0600 
    172 H172       -4.1043  -11.7461  -45.3422 H         1 UNK         0.0600 
    173 H173       -3.1029  -11.2287  -46.6997 H         1 UNK         0.0600 
    174 H174       -1.7656  -11.5308  -44.5276 H         1 UNK         0.3000 
    175 H175        0.3589  -11.0749  -43.7436 H         1 UNK         0.0600 
    176 H176       -0.9706  -12.2296  -41.9223 H         1 UNK         0.0600 
    177 H177        0.2674  -13.4764  -41.8115 H         1 UNK         0.0600 
    178 H178        0.6395  -11.8146  -41.3640 H         1 UNK         0.0600 
    179 H179        2.0890  -13.3246  -44.2079 H         1 UNK         0.3000 
    180 H180        4.8430  -11.3659  -44.2289 H         1 UNK         0.0600 
    181 H181        4.8098  -13.1846  -41.7670 H         1 UNK         0.0600 
    182 H182        5.3292  -11.5100  -41.8325 H         1 UNK         0.0600 
    183 H183        6.2526  -12.7399  -42.6795 H         1 UNK         0.0600 
    184 H184        4.7632  -13.1306  -45.5327 H         1 UNK         0.3000 
    185 H185        5.2475  -15.6994  -45.8162 H         1 UNK         0.0600 
    186 H186        4.1215  -17.4460  -44.4718 H         1 UNK         0.0600 
    187 H187        2.5478  -16.8958  -45.0282 H         1 UNK         0.0600 
    188 H188        3.6872  -17.6100  -46.1659 H         1 UNK         0.0600 
    189 H189        2.5398  -15.2714  -46.8640 H         1 UNK         0.3000 
    190 H190       -1.0113  -21.0715  -48.0295 H         1 UNK         0.3000 
    191 H191       -0.6757  -22.8157  -50.2241 H         1 UNK         0.0600 
    192 H192       -3.0340  -20.9816  -49.5554 H         1 UNK         0.0600 
    193 H193       -2.6439  -21.6517  -51.1395 H         1 UNK         0.0600 
    194 H194       -1.5612  -20.4959  -50.3843 H         1 UNK         0.0600 
    195 H195       -3.1051  -22.8709  -47.5709 H         1 UNK         0.3000 
    196 H196       -4.6243  -25.0678  -48.5208 H         1 UNK         0.0600 
    197 H197       -5.4230  -25.2129  -46.1701 H         1 UNK         0.0600 
    198 H198       -5.3877  -23.5406  -46.7080 H         1 UNK         0.0600 
    199 H199       -4.1286  -24.1466  -45.6394 H         1 UNK         0.0600 
    200 H200       -1.7624  -24.9854  -46.3309 H         1 UNK         0.3000 
    201 H201       -1.5674  -27.7910  -45.9185 H         1 UNK         0.0600 
    202 H202       -0.4646  -26.1290  -44.4534 H         1 UNK         0.0600 
    203 H203        0.5802  -25.6090  -45.7731 H         1 UNK         0.0600 
    204 H204        0.7327  -27.2332  -45.1132 H         1 UNK         0.0600 
    205 H205       -0.1803  -25.6762  -48.4317 H         1 UNK         0.3000 
    206 H206        1.3397  -27.7235  -49.7715 H         1 UNK         0.0600 
    207 H207        1.8704  -25.2862  -49.9048 H         1 UNK         0.0600 
    208 H208        1.6009  -25.9581  -51.5052 H         1 UNK         0.0600 
    209 H209        0.3473  -24.9901  -50.7421 H         1 UNK         0.0600 
    210 H210       -2.0110  -27.1952  -49.6452 H         1 UNK         0.3000 
    211 H211       -3.8148  -27.8719  -50.6987 H         1 UNK         0.0600 
    212 H212       -2.0892  -29.8804  -52.2399 H         1 UNK         0.0600 
    213 H213       -3.8309  -29.9433  -52.0180 H         1 UNK         0.0600 
    214 H214       -2.7689  -30.1484  -50.6348 H         1 UNK         0.0600 
    215 H215       -2.5947  -25.5807  -51.5802 H         1 UNK         0.3000 
    216 H216       -3.1101  -25.4054  -54.5130 H         1 UNK         0.0600 
    217 H217       -1.6618  -23.4542  -52.6341 H         1 UNK         0.0600 
    218 H218       -1.7527  -23.3537  -54.3925 H         1 UNK         0.0600 
    219 H219       -0.8482  -24.6482  -53.6368 H         1 UNK         0.0600 
    220 H220       -3.5492  -22.5324  -54.2474 H         1 UNK         0.3000 
    221 H221       -6.4023  -22.4566  -53.7638 H         1 UNK         0.0600 
    222 H222       -5.4280  -21.1776  -55.6083 H         1 UNK         0.0600 
    223 H223       -4.3444  -20.3189  -54.5178 H         1 UNK         0.0600 
    224 H224       -6.0798  -20.0429  -54.4355 H         1 UNK         0.0600 
    225 H225       -6.6069  -23.0034  -51.5654 H         1 UNK         0.3000 
    226 H226       -5.2936  -21.9333  -49.3777 H         1 UNK         0.0600 
    227 H227       -6.6948  -23.9676  -49.3100 H         1 UNK         0.0600 
    228 H228       -7.2461  -22.8355  -48.0846 H         1 UNK         0.0600 
    229 H229       -8.1537  -23.0145  -49.5797 H         1 UNK         0.0600 
    230 H230       -7.7647  -20.3334  -51.2317 H         1 UNK         0.3000 
    231 H231       -8.5936  -18.4149  -49.2128 H         1 UNK         0.0600 
    232 H232       -9.0475  -18.5074  -52.2398 H         1 UNK         0.0600 
    233 H233       -9.8717  -17.4427  -51.1056 H         1 UNK         0.0600 
    234 H234      -10.1237  -19.1767  -51.0131 H         1 UNK         0.0600 
    235 H235       -6.0088  -18.2645  -48.9998 H         1 UNK         0.3000 
    236 H236       -4.2054  -16.9578  -48.8849 H         1 UNK         0.0600 
    237 H237       -4.4941  -14.5244  -48.8645 H         1 UNK         0.0600 
    238 H238       -6.0380  -14.6514  -49.6988 H         1 UNK         0.0600 
    239 H239       -5.8561  -15.2827  -48.0619 H         1 UNK         0.0600 
    240 H240       -4.2823  -18.4543  -51.1695 H         1 UNK         0.3000 
    241 H241       -3.0147  -18.8618  -52.8808 H         1 UNK         0.0600 
    242 H242       -2.4073  -17.9490  -55.3391 H         1 UNK         0.3800 
    243 H243       -3.8217  -17.2619  -56.0784 H         1 UNK         0.3800 
    244 H244       -1.7230  -16.0978  -52.7218 H         1 UNK         0.0800 
    245 H245       -1.1297  -17.4481  -53.6321 H         1 UNK         0.0800 
    246 H246       -0.0095  -19.8223  -52.2328 H         1 UNK         0.0800 
    247 H247        0.8350  -18.4781  -52.9688 H         1 UNK         0.0800 
@<TRIPOS>BOND
     1    1    2 1    
     2    1  127 1    
     3    1  128 1    
     4    1  129 1    
     5    2    3 2    
     6    2    4 am   BACKBONE|DICT|INTERRES
     7    4    5 1    
     8    4  130 1    
     9    5    6 1    
    10    5   65 1    
    11    5  131 1    
    12    6    7 1    
    13    6  132 1    
    14    6  133 1    
    15    7    8 1    
    16    8    9 1    
    17    8  134 1    
    18    8  135 1    
    19    9   10 ar   
    20    9   14 ar   
    21   10   11 ar   
    22   10  136 1    
    23   11   12 ar   
    24   11  126 1    
    25   12   13 ar   
    26   12  137 1    
    27   13   14 ar   
    28   13   15 1    
    29   14  138 1    
    30   15   16 1    
    31   15  139 1    
    32   15  140 1    
    33   16   17 1    
    34   17   18 1    
    35   17  141 1    
    36   17  142 1    
    37   18   19 1    
    38   18   67 1    
    39   18  143 1    
    40   19   20 am   BACKBONE|DICT|INTERRES
    41   19  144 1    
    42   20   21 2    
    43   20   22 1    
    44   22   23 1    
    45   22   24 1    
    46   22  145 1    
    47   23  146 1    
    48   23  147 1    
    49   23  148 1    
    50   24   25 am   BACKBONE|DICT|INTERRES
    51   24  149 1    
    52   25   26 2    
    53   25   27 1    
    54   27   28 1    
    55   27   29 1    
    56   27  150 1    
    57   28  151 1    
    58   28  152 1    
    59   28  153 1    
    60   29   30 am   BACKBONE|DICT|INTERRES
    61   29  154 1    
    62   30   31 2    
    63   30   32 1    
    64   32   33 1    
    65   32   34 1    
    66   32  155 1    
    67   33  156 1    
    68   33  157 1    
    69   33  158 1    
    70   34   35 am   BACKBONE|DICT|INTERRES
    71   34  159 1    
    72   35   36 2    
    73   35   37 1    
    74   37   38 1    
    75   37   39 1    
    76   37  160 1    
    77   38  161 1    
    78   38  162 1    
    79   38  163 1    
    80   39   40 am   BACKBONE|DICT|INTERRES
    81   39  164 1    
    82   40   41 2    
    83   40   42 1    
    84   42   43 1    
    85   42   44 1    
    86   42  165 1    
    87   43  166 1    
    88   43  167 1    
    89   43  168 1    
    90   44   45 am   BACKBONE|DICT|INTERRES
    91   44  169 1    
    92   45   46 2    
    93   45   47 1    
    94   47   48 1    
    95   47   49 1    
    96   47  170 1    
    97   48  171 1    
    98   48  172 1    
    99   48  173 1    
   100   49   50 am   BACKBONE|DICT|INTERRES
   101   49  174 1    
   102   50   51 2    
   103   50   52 1    
   104   52   53 1    
   105   52   54 1    
   106   52  175 1    
   107   53  176 1    
   108   53  177 1    
   109   53  178 1    
   110   54   55 am   BACKBONE|DICT|INTERRES
   111   54  179 1    
   112   55   56 2    
   113   55   57 1    
   114   57   58 1    
   115   57   59 1    
   116   57  180 1    
   117   58  181 1    
   118   58  182 1    
   119   58  183 1    
   120   59   60 am   BACKBONE|DICT|INTERRES
   121   59  184 1    
   122   60   61 2    
   123   60   62 1    
   124   62   63 1    
   125   62   64 1    
   126   62  185 1    
   127   63  186 1    
   128   63  187 1    
   129   63  188 1    
   130   64   65 am   BACKBONE|DICT|INTERRES
   131   64  189 1    
   132   65   66 2    
   133   67   68 2    
   134   67   69 am   BACKBONE|DICT|INTERRES
   135   69   70 1    
   136   69  190 1    
   137   70   71 1    
   138   70   72 1    
   139   70  191 1    
   140   71  192 1    
   141   71  193 1    
   142   71  194 1    
   143   72   73 2    
   144   72   74 am   BACKBONE|DICT|INTERRES
   145   74   75 1    
   146   74  195 1    
   147   75   76 1    
   148   75   77 1    
   149   75  196 1    
   150   76  197 1    
   151   76  198 1    
   152   76  199 1    
   153   77   78 2    
   154   77   79 am   BACKBONE|DICT|INTERRES
   155   79   80 1    
   156   79  200 1    
   157   80   81 1    
   158   80   82 1    
   159   80  201 1    
   160   81  202 1    
   161   81  203 1    
   162   81  204 1    
   163   82   83 2    
   164   82   84 am   BACKBONE|DICT|INTERRES
   165   84   85 1    
   166   84  205 1    
   167   85   86 1    
   168   85   87 1    
   169   85  206 1    
   170   86  207 1    
   171   86  208 1    
   172   86  209 1    
   173   87   88 2    
   174   87   89 am   BACKBONE|DICT|INTERRES
   175   89   90 1    
   176   89  210 1    
   177   90   91 1    
   178   90   92 1    
   179   90  211 1    
   180   91  212 1    
   181   91  213 1    
   182   91  214 1    
   183   92   93 2    
   184   92   94 am   BACKBONE|DICT|INTERRES
   185   94   95 1    
   186   94  215 1    
   187   95   96 1    
   188   95   97 1    
   189   95  216 1    
   190   96  217 1    
   191   96  218 1    
   192   96  219 1    
   193   97   98 2    
   194   97   99 am   BACKBONE|DICT|INTERRES
   195   99  100 1    
   196   99  220 1    
   197  100  101 1    
   198  100  102 1    
   199  100  221 1    
   200  101  222 1    
   201  101  223 1    
   202  101  224 1    
   203  102  103 2    
   204  102  104 am   BACKBONE|DICT|INTERRES
   205  104  105 1    
   206  104  225 1    
   207  105  106 1    
   208  105  107 1    
   209  105  226 1    
   210  106  227 1    
   211  106  228 1    
   212  106  229 1    
   213  107  108 2    
   214  107  109 am   BACKBONE|DICT|INTERRES
   215  109  110 1    
   216  109  230 1    
   217  110  111 1    
   218  110  112 1    
   219  110  231 1    
   220  111  232 1    
   221  111  233 1    
   222  111  234 1    
   223  112  113 2    
   224  112  114 am   BACKBONE|DICT|INTERRES
   225  114  115 1    
   226  114  235 1    
   227  115  116 1    
   228  115  117 1    
   229  115  236 1    
   230  116  237 1    
   231  116  238 1    
   232  116  239 1    
   233  117  118 2    
   234  117  119 am   BACKBONE|DICT|INTERRES
   235  119  120 1    
   236  119  240 1    
   237  120  121 1    
   238  120  124 1    
   239  120  241 1    
   240  121  122 am   BACKBONE|DICT|INTERRES
   241  121  123 2    
   242  122  242 1    
   243  122  243 1    
   244  124  125 1    
   245  124  244 1    
   246  124  245 1    
   247  125  126 1    
   248  126  246 1    
   249  126  247 1    
@<TRIPOS>SUBSTRUCTURE
     1 UNK         1 GROUP             0       ****    0 ROOT    
