@<TRIPOS>MOLECULE
3R540
247   249    1
SMALL
USER_CHARGES


@<TRIPOS>ATOM
      1 CA          2.3595  -11.3718  -46.1894 C.3       0 UNK        -0.1800 
      2 C           2.2079  -12.8587  -46.4732 C.2       0 UNK         0.5000 
      3 O           2.0438  -13.6478  -45.5410 O.2       0 UNK        -0.5000 
      4 N           2.2824  -13.2475  -47.7527 N.am      1 UNK        -0.5000 
      5 CA          2.1666  -14.6136  -48.2899 C.3       1 UNK         0.1400 
      6 C6          0.8257  -15.3208  -47.9577 C.3       23 UNK        -0.0398 
      7 S7         -0.6451  -14.3531  -48.4512 S.3       23 UNK        -0.2404 
      8 C8         -1.2145  -15.2122  -49.9534 C.3       23 UNK        -0.0205 
      9 C9         -1.5853  -16.6614  -49.6799 C.ar      23 UNK        -0.0193 
     10 C10        -2.6966  -16.9728  -48.8925 C.ar      23 UNK        -0.1150 
     11 C11        -3.0115  -18.3031  -48.5993 C.ar      23 UNK        -0.0193 
     12 C12        -2.2054  -19.3269  -49.1079 C.ar      23 UNK        -0.1150 
     13 C13        -1.0931  -19.0253  -49.9024 C.ar      23 UNK        -0.0193 
     14 C14        -0.7974  -17.6926  -50.1943 C.ar      23 UNK        -0.1150 
     15 C15        -0.2049  -20.1316  -50.4519 C.3       23 UNK        -0.0205 
     16 S16         1.4984  -20.0819  -49.7991 S.3       23 UNK        -0.2404 
     17 C17         1.2699  -20.0876  -47.9883 C.3       23 UNK        -0.0398 
     18 CA          1.1510  -21.5148  -47.3972 C.3       11 UNK         0.1400 
     19 N           1.8455  -21.6465  -46.1136 N.am      11 UNK        -0.5000 
     20 C           2.1153  -22.8202  -45.5223 C.2       10 UNK         0.5000 
     21 O           1.8130  -23.9074  -46.0141 O.2       10 UNK        -0.5000 
     22 CA          2.8198  -22.7920  -44.1524 C.3       10 UNK         0.1400 
     23 CB          4.3107  -23.1263  -44.3117 C.3       10 UNK        -0.1800 
     24 N           2.6961  -21.5175  -43.4451 N.am      10 UNK        -0.5000 
     25 C           1.5592  -21.0149  -42.9463 C.2       9 UNK         0.5000 
     26 O           0.4694  -21.5824  -43.0351 O.2       9 UNK        -0.5000 
     27 CA          1.6463  -19.6410  -42.2452 C.3       9 UNK         0.1400 
     28 CB          3.0764  -19.0657  -42.1558 C.3       9 UNK        -0.1800 
     29 N           0.7488  -18.6354  -42.8225 N.am      9 UNK        -0.5000 
     30 C           0.5625  -18.3308  -44.1164 C.2       8 UNK         0.5000 
     31 O           1.1301  -18.9103  -45.0429 O.2       8 UNK        -0.5000 
     32 CA         -0.3844  -17.1526  -44.4366 C.3       8 UNK         0.1400 
     33 CB         -1.3236  -17.4583  -45.6178 C.3       8 UNK        -0.1800 
     34 N          -1.1327  -16.6221  -43.2900 N.am      8 UNK        -0.5000 
     35 C          -2.0640  -17.2324  -42.5412 C.2       7 UNK         0.5000 
     36 O          -2.4546  -18.3836  -42.7250 O.2       7 UNK        -0.5000 
     37 CA         -2.6322  -16.4211  -41.3668 C.3       7 UNK         0.1400 
     38 CB         -1.6132  -16.3583  -40.2166 C.3       7 UNK        -0.1800 
     39 N          -2.9649  -15.0608  -41.7848 N.am      7 UNK        -0.5000 
     40 C          -4.2095  -14.5879  -41.9367 C.2       6 UNK         0.5000 
     41 O          -5.2262  -15.2387  -41.6921 O.2       6 UNK        -0.5000 
     42 CA         -4.3519  -13.1387  -42.4466 C.3       6 UNK         0.1400 
     43 CB         -4.5403  -12.1715  -41.2678 C.3       6 UNK        -0.1800 
     44 N          -3.2099  -12.6932  -43.2457 N.am      6 UNK        -0.5000 
     45 C          -2.8930  -13.1683  -44.4578 C.2       5 UNK         0.5000 
     46 O          -3.5880  -13.9730  -45.0779 O.2       5 UNK        -0.5000 
     47 CA         -1.5665  -12.6819  -45.0725 C.3       5 UNK         0.1400 
     48 CB         -1.8274  -11.6202  -46.1518 C.3       5 UNK        -0.1800 
     49 N          -0.5925  -12.1527  -44.1095 N.am      5 UNK        -0.5000 
     50 C          -0.0033  -12.8699  -43.1449 C.2       4 UNK         0.5000 
     51 O          -0.3517  -14.0095  -42.8230 O.2       4 UNK        -0.5000 
     52 CA          1.1777  -12.2203  -42.4174 C.3       4 UNK         0.1400 
     53 CB          0.7664  -11.7473  -41.0149 C.3       4 UNK        -0.1800 
     54 N           2.2066  -13.2457  -42.3092 N.am      4 UNK        -0.5000 
     55 C           3.4994  -13.0991  -42.6135 C.2       3 UNK         0.5000 
     56 O           4.0285  -12.0216  -42.8883 O.2       3 UNK        -0.5000 
     57 CA          4.3292  -14.3888  -42.6707 C.3       3 UNK         0.1400 
     58 CB          3.9415  -15.4036  -41.5739 C.3       3 UNK        -0.1800 
     59 N           4.1691  -14.9731  -44.0011 N.am      3 UNK        -0.5000 
     60 C           4.9993  -15.8737  -44.5510 C.2       2 UNK         0.5000 
     61 O           5.9934  -16.3096  -43.9686 O.2       2 UNK        -0.5000 
     62 CA          4.7028  -16.3801  -45.9795 C.3       2 UNK         0.1400 
     63 CB          4.4562  -17.8998  -46.0024 C.3       2 UNK        -0.1800 
     64 N           3.5761  -15.6850  -46.5974 N.am      2 UNK        -0.5000 
     65 C           3.3767  -15.4943  -47.9049 C.2       1 UNK         0.5000 
     66 O           4.1087  -15.9475  -48.7854 O.2       1 UNK        -0.5000 
     67 C          -0.3217  -21.9567  -47.2921 C.2       11 UNK         0.5000 
     68 O          -0.8454  -22.5483  -48.2350 O.2       11 UNK        -0.5000 
     69 N          -0.9534  -21.7207  -46.1327 N.am      12 UNK        -0.5000 
     70 CA         -2.3410  -22.0975  -45.8503 C.3       12 UNK         0.1400 
     71 CB         -2.7720  -21.4737  -44.5162 C.3       12 UNK        -0.1800 
     72 C          -2.5927  -23.6188  -45.8446 C.2       12 UNK         0.5000 
     73 O          -3.7328  -24.0379  -46.0439 O.2       12 UNK        -0.5000 
     74 N          -1.5357  -24.4184  -45.6404 N.am      13 UNK        -0.5000 
     75 CA         -1.5791  -25.8770  -45.7458 C.3       13 UNK         0.1400 
     76 CB         -0.3707  -26.4751  -45.0097 C.3       13 UNK        -0.1800 
     77 C          -1.6208  -26.3638  -47.2084 C.2       13 UNK         0.5000 
     78 O          -2.1386  -27.4520  -47.4620 O.2       13 UNK        -0.5000 
     79 N          -1.0826  -25.5613  -48.1381 N.am      14 UNK        -0.5000 
     80 CA         -1.1133  -25.8225  -49.5750 C.3       14 UNK         0.1400 
     81 CB          0.1642  -25.2733  -50.2306 C.3       14 UNK        -0.1800 
     82 C          -2.3710  -25.2048  -50.2028 C.2       14 UNK         0.5000 
     83 O          -3.1408  -25.9212  -50.8435 O.2       14 UNK        -0.5000 
     84 N          -2.5608  -23.8937  -49.9870 N.am      15 UNK        -0.5000 
     85 CA         -3.6899  -23.0690  -50.4234 C.3       15 UNK         0.1400 
     86 CB         -4.9209  -23.3764  -49.5459 C.3       15 UNK        -0.1800 
     87 C          -3.9544  -23.1858  -51.9391 C.2       15 UNK         0.5000 
     88 O          -3.2042  -22.6145  -52.7328 O.2       15 UNK        -0.5000 
     89 N          -4.9804  -23.9582  -52.3189 N.am      16 UNK        -0.5000 
     90 CA         -5.3341  -24.2690  -53.7037 C.3       16 UNK         0.1400 
     91 CB         -6.6544  -25.0528  -53.7208 C.3       16 UNK        -0.1800 
     92 C          -4.2373  -25.0423  -54.4626 C.2       16 UNK         0.5000 
     93 O          -4.1126  -24.8654  -55.6739 O.2       16 UNK        -0.5000 
     94 N          -3.4266  -25.8400  -53.7492 N.am      17 UNK        -0.5000 
     95 CA         -2.2770  -26.5588  -54.3104 C.3       17 UNK         0.1400 
     96 CB         -1.8136  -27.6440  -53.3268 C.3       17 UNK        -0.1800 
     97 C          -1.1062  -25.6247  -54.6772 C.2       17 UNK         0.5000 
     98 O          -0.3022  -25.9750  -55.5411 O.2       17 UNK        -0.5000 
     99 N          -1.0494  -24.4455  -54.0423 N.am      18 UNK        -0.5000 
    100 CA        -0.1270  -23.3573  -54.3715 C.3       18 UNK         0.1400 
    101 CB         0.2604  -22.6319  -53.0720 C.3       18 UNK        -0.1800 
    102 C         -0.7318  -22.3734  -55.3967 C.2       18 UNK         0.5000 
    103 O         -0.0662  -21.4032  -55.7600 O.2       18 UNK        -0.5000 
    104 N         -1.9768  -22.6291  -55.8327 N.am      19 UNK        -0.5000 
    105 CA        -2.7989  -21.8232  -56.7414 C.3       19 UNK         0.1400 
    106 CB        -2.1721  -21.7680  -58.1504 C.3       19 UNK        -0.1800 
    107 C         -3.1493  -20.4286  -56.1794 C.2       19 UNK         0.5000 
    108 O         -3.3650  -19.4917  -56.9513 O.2       19 UNK        -0.5000 
    109 N         -3.2059  -20.3111  -54.8463 N.am      20 UNK        -0.5000 
    110 CA        -3.5755  -19.0862  -54.1433 C.3       20 UNK         0.1400 
    111 CB        -2.9820  -19.1364  -52.7293 C.3       20 UNK        -0.1800 
    112 C         -5.1007  -18.9125  -54.0746 C.2       20 UNK         0.5000 
    113 O         -5.8482  -19.8801  -54.2453 O.2       20 UNK        -0.5000 
    114 N         -5.5321  -17.6868  -53.7451 N.am      21 UNK        -0.5000 
    115 CA        -6.9334  -17.3061  -53.5233 C.3       21 UNK         0.1400 
    116 CB        -7.0021  -15.7940  -53.2594 C.3       21 UNK        -0.1800 
    117 C         -7.6231  -18.0847  -52.3825 C.2       21 UNK         0.5000 
    118 O         -8.8499  -18.1937  -52.3763 O.2       21 UNK        -0.5000 
    119 N         -6.8195  -18.6354  -51.4640 N.am      22 UNK        -0.5000 
    120 CA        -7.2340  -19.6001  -50.4366 C.3       22 UNK         0.1400 
    121 C         -7.6872  -20.9824  -50.9963 C.2       22 UNK         0.5000 
    122 N         -7.3874  -21.3421  -52.2397 N.am      22 UNK        -0.7600 
    123 O         -8.3309  -21.7459  -50.2827 O.2       22 UNK        -0.5000 
    124 C124       -6.1315  -19.7847  -49.3620 C.3       23 UNK        -0.0398 
    125 S125       -5.7913  -18.2421  -48.4527 S.3       23 UNK        -0.2404 
    126 C126       -4.1855  -18.6162  -47.6819 C.3       23 UNK        -0.0205 
    127 H127        1.4345  -10.9690  -45.7806 H         1 UNK         0.0600 
    128 H128        2.6053  -10.8105  -47.0911 H         1 UNK         0.0600 
    129 H129        3.1543  -11.2093  -45.4617 H         1 UNK         0.0600 
    130 H130        2.4412  -12.5398  -48.4559 H         1 UNK         0.3000 
    131 H131        2.2043  -14.5004  -49.3747 H         1 UNK         0.0600 
    132 H132        0.7975  -16.3052  -48.4242 H         1 UNK         0.0800 
    133 H133        0.7423  -15.5051  -46.8876 H         1 UNK         0.0800 
    134 H134       -2.0857  -14.6898  -50.3508 H         1 UNK         0.0800 
    135 H135       -0.4399  -15.1442  -50.7187 H         1 UNK         0.0800 
    136 H136       -3.3026  -16.1762  -48.4838 H         1 UNK         0.1150 
    137 H137       -2.4329  -20.3556  -48.8709 H         1 UNK         0.1150 
    138 H138        0.0652  -17.4609  -50.8031 H         1 UNK         0.1150 
    139 H139       -0.6437  -21.1125  -50.2775 H         1 UNK         0.0800 
    140 H140       -0.1439  -20.0257  -51.5345 H         1 UNK         0.0800 
    141 H141        0.4371  -19.4455  -47.6989 H         1 UNK         0.0800 
    142 H142        2.1537  -19.5930  -47.5832 H         1 UNK         0.0800 
    143 H143        1.6415  -22.2120  -48.0804 H         1 UNK         0.0600 
    144 H144        2.0501  -20.7840  -45.6223 H         1 UNK         0.3000 
    145 H145        2.3592  -23.5662  -43.5352 H         1 UNK         0.0600 
    146 H146        4.4452  -24.0879  -44.8090 H         1 UNK         0.0600 
    147 H147        4.8068  -23.1918  -43.3432 H         1 UNK         0.0600 
    148 H148        4.8303  -22.3738  -44.9064 H         1 UNK         0.0600 
    149 H149        3.5433  -20.9784  -43.3411 H         1 UNK         0.3000 
    150 H150        1.2989  -19.8113  -41.2252 H         1 UNK         0.0600 
    151 H151        3.7674  -19.7719  -41.6939 H         1 UNK         0.0600 
    152 H152        3.0876  -18.1732  -41.5330 H         1 UNK         0.0600 
    153 H153        3.4726  -18.7917  -43.1336 H         1 UNK         0.0600 
    154 H154        0.1924  -18.1218  -42.1564 H         1 UNK         0.3000 
    155 H155        0.2703  -16.3371  -44.7452 H         1 UNK         0.0600 
    156 H156       -0.7591  -17.6984  -46.5188 H         1 UNK         0.0600 
    157 H157       -1.9508  -16.5982  -45.8538 H         1 UNK         0.0600 
    158 H158       -1.9765  -18.3042  -45.4080 H         1 UNK         0.0600 
    159 H159       -0.8732  -15.6695  -43.0377 H         1 UNK         0.3000 
    160 H160       -3.5197  -16.9420  -41.0015 H         1 UNK         0.0600 
    161 H161       -0.7012  -15.8353  -40.5079 H         1 UNK         0.0600 
    162 H162       -1.3303  -17.3593  -39.8886 H         1 UNK         0.0600 
    163 H163       -2.0310  -15.8404  -39.3531 H         1 UNK         0.0600 
    164 H164       -2.1866  -14.4688  -42.0509 H         1 UNK         0.3000 
    165 H165       -5.2451  -13.0946  -43.0734 H         1 UNK         0.0600 
    166 H166       -4.7130  -11.1530  -41.6161 H         1 UNK         0.0600 
    167 H167       -5.4017  -12.4568  -40.6624 H         1 UNK         0.0600 
    168 H168       -3.6681  -12.1604  -40.6129 H         1 UNK         0.0600 
    169 H169       -2.5848  -12.0269  -42.8171 H         1 UNK         0.3000 
    170 H170       -1.1071  -13.5487  -45.5524 H         1 UNK         0.0600 
    171 H171       -2.2405  -10.7054  -45.7256 H         1 UNK         0.0600 
    172 H172       -0.9107  -11.3638  -46.6829 H         1 UNK         0.0600 
    173 H173       -2.5355  -11.9862  -46.8966 H         1 UNK         0.0600 
    174 H174       -0.2724  -11.2107  -44.2787 H         1 UNK         0.3000 
    175 H175        1.5388  -11.3710  -43.0013 H         1 UNK         0.0600 
    176 H176        0.3799  -12.5681  -40.4090 H         1 UNK         0.0600 
    177 H177        1.6133  -11.3113  -40.4848 H         1 UNK         0.0600 
    178 H178       -0.0108  -10.9844  -41.0720 H         1 UNK         0.0600 
    179 H179        1.8429  -14.1772  -42.1608 H         1 UNK         0.3000 
    180 H180        5.3744  -14.1057  -42.5283 H         1 UNK         0.0600 
    181 H181        4.6475  -16.2332  -41.5397 H         1 UNK         0.0600 
    182 H182        2.9476  -15.8206  -41.7376 H         1 UNK         0.0600 
    183 H183        3.9490  -14.9372  -40.5880 H         1 UNK         0.0600 
    184 H184        3.4048  -14.5775  -44.5390 H         1 UNK         0.3000 
    185 H185        5.5996  -16.1690  -46.5656 H         1 UNK         0.0600 
    186 H186        4.3466  -18.2695  -47.0218 H         1 UNK         0.0600 
    187 H187        5.2864  -18.4429  -45.5494 H         1 UNK         0.0600 
    188 H188        3.5539  -18.1613  -45.4536 H         1 UNK         0.0600 
    189 H189        2.9356  -15.2041  -45.9747 H         1 UNK         0.3000 
    190 H190       -0.4435  -21.2722  -45.3827 H         1 UNK         0.3000 
    191 H191       -2.9643  -21.6749  -46.6403 H         1 UNK         0.0600 
    192 H192       -2.1724  -21.8457  -43.6850 H         1 UNK         0.0600 
    193 H193       -3.8158  -21.7005  -44.2958 H         1 UNK         0.0600 
    194 H194       -2.6760  -20.3893  -44.5392 H         1 UNK         0.0600 
    195 H195       -0.6286  -23.9992  -45.4902 H         1 UNK         0.3000 
    196 H196       -2.4847  -26.2342  -45.2507 H         1 UNK         0.0600 
    197 H197       -0.3358  -26.1453  -43.9712 H         1 UNK         0.0600 
    198 H198        0.5703  -26.1958  -45.4839 H         1 UNK         0.0600 
    199 H199       -0.4208  -27.5646  -45.0033 H         1 UNK         0.0600 
    200 H200       -0.7298  -24.6567  -47.8534 H         1 UNK         0.3000 
    201 H201       -1.1403  -26.8994  -49.7550 H         1 UNK         0.0600 
    202 H202        1.0517  -25.7562  -49.8214 H         1 UNK         0.0600 
    203 H203        0.2741  -24.1987  -50.0821 H         1 UNK         0.0600 
    204 H204        0.1606  -25.4593  -51.3052 H         1 UNK         0.0600 
    205 H205       -1.8635  -23.4030  -49.4295 H         1 UNK         0.3000 
    206 H206       -3.4070  -22.0310  -50.2477 H         1 UNK         0.0600 
    207 H207       -4.7302  -23.1070  -48.5071 H         1 UNK         0.0600 
    208 H208       -5.7912  -22.8083  -49.8680 H         1 UNK         0.0600 
    209 H209       -5.1899  -24.4330  -49.5645 H         1 UNK         0.0600 
    210 H210       -5.5153  -24.4246  -51.6011 H         1 UNK         0.3000 
    211 H211       -5.4892  -23.3221  -54.2257 H         1 UNK         0.0600 
    212 H212       -6.9647  -25.2727  -54.7433 H         1 UNK         0.0600 
    213 H213       -7.4589  -24.4850  -53.2536 H         1 UNK         0.0600 
    214 H214       -6.5639  -26.0033  -53.1934 H         1 UNK         0.0600 
    215 H215       -3.5597  -25.9115  -52.7435 H         1 UNK         0.3000 
    216 H216       -2.6032  -27.0539  -55.2275 H         1 UNK         0.0600 
    217 H217       -1.3965  -27.2147  -52.4164 H         1 UNK         0.0600 
    218 H218       -2.6364  -28.3005  -53.0436 H         1 UNK         0.0600 
    219 H219       -1.0391  -28.2676  -53.7749 H         1 UNK         0.0600 
    220 H220       -1.7753  -24.2169  -53.3753 H         1 UNK         0.3000 
    221 H221        0.7847  -23.7635  -54.8142 H         1 UNK         0.0600 
    222 H222       -0.6135  -22.2317  -52.5594 H         1 UNK         0.0600 
    223 H223        0.7749  -23.3026  -52.3853 H         1 UNK         0.0600 
    224 H224        0.9357  -21.7984  -53.2691 H         1 UNK         0.0600 
    225 H225       -2.4317  -23.4625  -55.4841 H         1 UNK         0.3000 
    226 H226       -3.7494  -22.3506  -56.8303 H         1 UNK         0.0600 
    227 H227       -1.9431  -22.7680  -58.5189 H         1 UNK         0.0600 
    228 H228       -2.8564  -21.3099  -58.8653 H         1 UNK         0.0600 
    229 H229       -1.2505  -21.1857  -58.1627 H         1 UNK         0.0600 
    230 H230       -3.0723  -21.1362  -54.2726 H         1 UNK         0.3000 
    231 H231       -3.1501  -18.2280  -54.6679 H         1 UNK         0.0600 
    232 H232       -3.3828  -19.9658  -52.1459 H         1 UNK         0.0600 
    233 H233       -1.9005  -19.2490  -52.7769 H         1 UNK         0.0600 
    234 H234       -3.1849  -18.2184  -52.1765 H         1 UNK         0.0600 
    235 H235       -4.8506  -16.9535  -53.6116 H         1 UNK         0.3000 
    236 H236       -7.4837  -17.5213  -54.4414 H         1 UNK         0.0600 
    237 H237       -6.4454  -15.5170  -52.3632 H         1 UNK         0.0600 
    238 H238       -6.5961  -15.2273  -54.0975 H         1 UNK         0.0600 
    239 H239       -8.0336  -15.4681  -53.1187 H         1 UNK         0.0600 
    240 H240       -5.8292  -18.4613  -51.5346 H         1 UNK         0.3000 
    241 H241       -8.1122  -19.1817  -49.9411 H         1 UNK         0.0600 
    242 H242       -7.7126  -22.2320  -52.5774 H         1 UNK         0.3800 
    243 H243       -6.8688  -20.7323  -52.8654 H         1 UNK         0.3800 
    244 H244       -6.4258  -20.5377  -48.6285 H         1 UNK         0.0800 
    245 H245       -5.2088  -20.1422  -49.8219 H         1 UNK         0.0800 
    246 H246       -4.1658  -19.6564  -47.3549 H         1 UNK         0.0800 
    247 H247       -4.0914  -18.0139  -46.7773 H         1 UNK         0.0800 
@<TRIPOS>BOND
     1    1    2 1    
     2    1  127 1    
     3    1  128 1    
     4    1  129 1    
     5    2    3 2    
     6    2    4 am   BACKBONE|DICT|INTERRES
     7    4    5 1    
     8    4  130 1    
     9    5    6 1    
    10    5   65 1    
    11    5  131 1    
    12    6    7 1    
    13    6  132 1    
    14    6  133 1    
    15    7    8 1    
    16    8    9 1    
    17    8  134 1    
    18    8  135 1    
    19    9   10 ar   
    20    9   14 ar   
    21   10   11 ar   
    22   10  136 1    
    23   11   12 ar   
    24   11  126 1    
    25   12   13 ar   
    26   12  137 1    
    27   13   14 ar   
    28   13   15 1    
    29   14  138 1    
    30   15   16 1    
    31   15  139 1    
    32   15  140 1    
    33   16   17 1    
    34   17   18 1    
    35   17  141 1    
    36   17  142 1    
    37   18   19 1    
    38   18   67 1    
    39   18  143 1    
    40   19   20 am   BACKBONE|DICT|INTERRES
    41   19  144 1    
    42   20   21 2    
    43   20   22 1    
    44   22   23 1    
    45   22   24 1    
    46   22  145 1    
    47   23  146 1    
    48   23  147 1    
    49   23  148 1    
    50   24   25 am   BACKBONE|DICT|INTERRES
    51   24  149 1    
    52   25   26 2    
    53   25   27 1    
    54   27   28 1    
    55   27   29 1    
    56   27  150 1    
    57   28  151 1    
    58   28  152 1    
    59   28  153 1    
    60   29   30 am   BACKBONE|DICT|INTERRES
    61   29  154 1    
    62   30   31 2    
    63   30   32 1    
    64   32   33 1    
    65   32   34 1    
    66   32  155 1    
    67   33  156 1    
    68   33  157 1    
    69   33  158 1    
    70   34   35 am   BACKBONE|DICT|INTERRES
    71   34  159 1    
    72   35   36 2    
    73   35   37 1    
    74   37   38 1    
    75   37   39 1    
    76   37  160 1    
    77   38  161 1    
    78   38  162 1    
    79   38  163 1    
    80   39   40 am   BACKBONE|DICT|INTERRES
    81   39  164 1    
    82   40   41 2    
    83   40   42 1    
    84   42   43 1    
    85   42   44 1    
    86   42  165 1    
    87   43  166 1    
    88   43  167 1    
    89   43  168 1    
    90   44   45 am   BACKBONE|DICT|INTERRES
    91   44  169 1    
    92   45   46 2    
    93   45   47 1    
    94   47   48 1    
    95   47   49 1    
    96   47  170 1    
    97   48  171 1    
    98   48  172 1    
    99   48  173 1    
   100   49   50 am   BACKBONE|DICT|INTERRES
   101   49  174 1    
   102   50   51 2    
   103   50   52 1    
   104   52   53 1    
   105   52   54 1    
   106   52  175 1    
   107   53  176 1    
   108   53  177 1    
   109   53  178 1    
   110   54   55 am   BACKBONE|DICT|INTERRES
   111   54  179 1    
   112   55   56 2    
   113   55   57 1    
   114   57   58 1    
   115   57   59 1    
   116   57  180 1    
   117   58  181 1    
   118   58  182 1    
   119   58  183 1    
   120   59   60 am   BACKBONE|DICT|INTERRES
   121   59  184 1    
   122   60   61 2    
   123   60   62 1    
   124   62   63 1    
   125   62   64 1    
   126   62  185 1    
   127   63  186 1    
   128   63  187 1    
   129   63  188 1    
   130   64   65 am   BACKBONE|DICT|INTERRES
   131   64  189 1    
   132   65   66 2    
   133   67   68 2    
   134   67   69 am   BACKBONE|DICT|INTERRES
   135   69   70 1    
   136   69  190 1    
   137   70   71 1    
   138   70   72 1    
   139   70  191 1    
   140   71  192 1    
   141   71  193 1    
   142   71  194 1    
   143   72   73 2    
   144   72   74 am   BACKBONE|DICT|INTERRES
   145   74   75 1    
   146   74  195 1    
   147   75   76 1    
   148   75   77 1    
   149   75  196 1    
   150   76  197 1    
   151   76  198 1    
   152   76  199 1    
   153   77   78 2    
   154   77   79 am   BACKBONE|DICT|INTERRES
   155   79   80 1    
   156   79  200 1    
   157   80   81 1    
   158   80   82 1    
   159   80  201 1    
   160   81  202 1    
   161   81  203 1    
   162   81  204 1    
   163   82   83 2    
   164   82   84 am   BACKBONE|DICT|INTERRES
   165   84   85 1    
   166   84  205 1    
   167   85   86 1    
   168   85   87 1    
   169   85  206 1    
   170   86  207 1    
   171   86  208 1    
   172   86  209 1    
   173   87   88 2    
   174   87   89 am   BACKBONE|DICT|INTERRES
   175   89   90 1    
   176   89  210 1    
   177   90   91 1    
   178   90   92 1    
   179   90  211 1    
   180   91  212 1    
   181   91  213 1    
   182   91  214 1    
   183   92   93 2    
   184   92   94 am   BACKBONE|DICT|INTERRES
   185   94   95 1    
   186   94  215 1    
   187   95   96 1    
   188   95   97 1    
   189   95  216 1    
   190   96  217 1    
   191   96  218 1    
   192   96  219 1    
   193   97   98 2    
   194   97   99 am   BACKBONE|DICT|INTERRES
   195   99  100 1    
   196   99  220 1    
   197  100  101 1    
   198  100  102 1    
   199  100  221 1    
   200  101  222 1    
   201  101  223 1    
   202  101  224 1    
   203  102  103 2    
   204  102  104 am   BACKBONE|DICT|INTERRES
   205  104  105 1    
   206  104  225 1    
   207  105  106 1    
   208  105  107 1    
   209  105  226 1    
   210  106  227 1    
   211  106  228 1    
   212  106  229 1    
   213  107  108 2    
   214  107  109 am   BACKBONE|DICT|INTERRES
   215  109  110 1    
   216  109  230 1    
   217  110  111 1    
   218  110  112 1    
   219  110  231 1    
   220  111  232 1    
   221  111  233 1    
   222  111  234 1    
   223  112  113 2    
   224  112  114 am   BACKBONE|DICT|INTERRES
   225  114  115 1    
   226  114  235 1    
   227  115  116 1    
   228  115  117 1    
   229  115  236 1    
   230  116  237 1    
   231  116  238 1    
   232  116  239 1    
   233  117  118 2    
   234  117  119 am   BACKBONE|DICT|INTERRES
   235  119  120 1    
   236  119  240 1    
   237  120  121 1    
   238  120  124 1    
   239  120  241 1    
   240  121  122 am   BACKBONE|DICT|INTERRES
   241  121  123 2    
   242  122  242 1    
   243  122  243 1    
   244  124  125 1    
   245  124  244 1    
   246  124  245 1    
   247  125  126 1    
   248  126  246 1    
   249  126  247 1    
@<TRIPOS>SUBSTRUCTURE
     1 UNK         1 GROUP             0       ****    0 ROOT    
