@<TRIPOS>MOLECULE
3R540
247   249    1
SMALL
USER_CHARGES


@<TRIPOS>ATOM
      1 CA          3.2855  -15.7881  -52.9512 C.3       0 UNK        -0.1800 
      2 C           2.8399  -14.4948  -52.2836 C.2       0 UNK         0.5000 
      3 O           2.9612  -13.4246  -52.8808 O.2       0 UNK        -0.5000 
      4 N           2.3478  -14.5871  -51.0424 N.am      1 UNK        -0.5000 
      5 CA          1.8598  -13.4572  -50.2483 C.3       1 UNK         0.1400 
      6 C6          1.7827  -13.8161  -48.7423 C.3       23 UNK        -0.0398 
      7 S7          0.3936  -14.9097  -48.2664 S.3       23 UNK        -0.2404 
      8 C8          1.2507  -16.3747  -47.6037 C.3       23 UNK        -0.0205 
      9 C9          1.6710  -17.4244  -48.6314 C.ar      23 UNK        -0.0193 
     10 C10         1.1783  -17.4522  -49.9423 C.ar      23 UNK        -0.1150 
     11 C11         1.5483  -18.4695  -50.8241 C.ar      23 UNK        -0.0193 
     12 C12         2.4058  -19.4818  -50.3876 C.ar      23 UNK        -0.1150 
     13 C13         2.9043  -19.4736  -49.0821 C.ar      23 UNK        -0.0193 
     14 C14         2.5467  -18.4320  -48.2211 C.ar      23 UNK        -0.1150 
     15 C15         3.8233  -20.5934  -48.6056 C.3       23 UNK        -0.0205 
     16 S16         3.2846  -21.3340  -47.0266 S.3       23 UNK        -0.2404 
     17 C17         1.5871  -21.8729  -47.4270 C.3       23 UNK        -0.0398 
     18 CA          1.2795  -23.2869  -46.8859 C.3       11 UNK         0.1400 
     19 N           1.4115  -23.3597  -45.4253 N.am      11 UNK        -0.5000 
     20 C           1.3388  -24.4804  -44.6943 C.2       10 UNK         0.5000 
     21 O           1.1142  -25.5921  -45.1728 O.2       10 UNK        -0.5000 
     22 CA          1.5133  -24.3323  -43.1728 C.3       10 UNK         0.1400 
     23 CB          2.9798  -24.5595  -42.7777 C.3       10 UNK        -0.1800 
     24 N           1.0738  -23.0382  -42.6462 N.am      10 UNK        -0.5000 
     25 C          -0.1832  -22.5794  -42.6415 C.2       9 UNK         0.5000 
     26 O          -1.1211  -23.1665  -43.1806 O.2       9 UNK        -0.5000 
     27 CA         -0.4411  -21.2481  -41.9087 C.3       9 UNK         0.1400 
     28 CB         -0.2431  -21.3934  -40.3880 C.3       9 UNK        -0.1800 
     29 N           0.3067  -20.0983  -42.4277 N.am      9 UNK        -0.5000 
     30 C           1.6310  -19.8906  -42.4723 C.2       8 UNK         0.5000 
     31 O           2.4779  -20.7010  -42.0937 O.2       8 UNK        -0.5000 
     32 CA          2.0806  -18.5216  -43.0119 C.3       8 UNK         0.1400 
     33 CB          1.8467  -18.4240  -44.5262 C.3       8 UNK        -0.1800 
     34 N           1.4025  -17.4118  -42.3439 N.am      8 UNK        -0.5000 
     35 C           1.5590  -17.0821  -41.0534 C.2       7 UNK         0.5000 
     36 O           2.3385  -17.6492  -40.2871 O.2       7 UNK        -0.5000 
     37 CA          0.6877  -15.9295  -40.5272 C.3       7 UNK         0.1400 
     38 CB          1.3239  -14.5677  -40.8489 C.3       7 UNK        -0.1800 
     39 N          -0.6618  -15.9859  -41.0874 N.am      7 UNK        -0.5000 
     40 C          -1.6418  -16.7676  -40.6129 C.2       6 UNK         0.5000 
     41 O          -1.5291  -17.4711  -39.6085 O.2       6 UNK        -0.5000 
     42 CA         -2.9748  -16.7694  -41.3867 C.3       6 UNK         0.1400 
     43 CB         -3.9469  -15.7438  -40.7840 C.3       6 UNK        -0.1800 
     44 N          -2.8192  -16.4945  -42.8161 N.am      6 UNK        -0.5000 
     45 C          -2.2449  -17.3299  -43.6918 C.2       5 UNK         0.5000 
     46 O          -1.7828  -18.4299  -43.3908 O.2       5 UNK        -0.5000 
     47 CA         -2.1259  -16.8303  -45.1428 C.3       5 UNK         0.1400 
     48 CB         -3.4288  -17.1048  -45.9046 C.3       5 UNK        -0.1800 
     49 N          -1.7860  -15.4094  -45.2667 N.am      5 UNK        -0.5000 
     50 C          -0.7319  -14.7994  -44.7059 C.2       4 UNK         0.5000 
     51 O           0.0715  -15.3838  -43.9777 O.2       4 UNK        -0.5000 
     52 CA         -0.5407  -13.2960  -44.9992 C.3       4 UNK         0.1400 
     53 CB          0.9491  -12.9272  -45.1129 C.3       4 UNK        -0.1800 
     54 N          -1.2473  -12.8546  -46.2105 N.am      4 UNK        -0.5000 
     55 C          -2.4878  -12.3464  -46.2247 C.2       3 UNK         0.5000 
     56 O          -3.1765  -12.2460  -45.2088 O.2       3 UNK        -0.5000 
     57 CA         -3.0616  -11.8839  -47.5803 C.3       3 UNK         0.1400 
     58 CB         -4.0270  -10.6893  -47.4174 C.3       3 UNK        -0.1800 
     59 N          -2.0144  -11.5543  -48.5546 N.am      3 UNK        -0.5000 
     60 C          -2.2123  -11.4787  -49.8797 C.2       2 UNK         0.5000 
     61 O          -3.2715  -11.7758  -50.4329 O.2       2 UNK        -0.5000 
     62 CA         -1.0354  -10.9711  -50.7334 C.3       2 UNK         0.1400 
     63 CB         -0.8633   -9.4518  -50.5762 C.3       2 UNK        -0.1800 
     64 N           0.2228  -11.6408  -50.4063 N.am      2 UNK        -0.5000 
     65 C           0.5226  -12.8914  -50.7819 C.2       1 UNK         0.5000 
     66 O          -0.2181  -13.5921  -51.4769 O.2       1 UNK        -0.5000 
     67 C          -0.0970  -23.7678  -47.3915 C.2       11 UNK         0.5000 
     68 O          -0.1841  -24.2695  -48.5124 O.2       11 UNK        -0.5000 
     69 N          -1.1370  -23.6672  -46.5495 N.am      12 UNK        -0.5000 
     70 CA         -2.4913  -24.1516  -46.8248 C.3       12 UNK         0.1400 
     71 CB         -3.4285  -23.6876  -45.7013 C.3       12 UNK        -0.1800 
     72 C          -2.5874  -25.6802  -47.0142 C.2       12 UNK         0.5000 
     73 O          -3.5547  -26.1473  -47.6122 O.2       12 UNK        -0.5000 
     74 N          -1.5832  -26.4388  -46.5484 N.am      13 UNK        -0.5000 
     75 CA         -1.4705  -27.8783  -46.7950 C.3       13 UNK         0.1400 
     76 CB         -0.3842  -28.4672  -45.8829 C.3       13 UNK        -0.1800 
     77 C          -1.1749  -28.2157  -48.2715 C.2       13 UNK         0.5000 
     78 O          -1.5227  -29.3100  -48.7171 O.2       13 UNK        -0.5000 
     79 N          -0.5481  -27.2792  -48.9975 N.am      14 UNK        -0.5000 
     80 CA         -0.2139  -27.4041  -50.4151 C.3       14 UNK         0.1400 
     81 CB          1.2588  -27.0122  -50.6167 C.3       14 UNK        -0.1800 
     82 C          -1.1256  -26.5229  -51.2842 C.2       14 UNK         0.5000 
     83 O          -1.6029  -26.9817  -52.3220 O.2       14 UNK        -0.5000 
     84 N          -1.3514  -25.2768  -50.8493 N.am      15 UNK        -0.5000 
     85 CA         -2.0484  -24.2313  -51.5990 C.3       15 UNK         0.1400 
     86 CB         -1.2316  -22.9336  -51.4902 C.3       15 UNK        -0.1800 
     87 C          -3.5032  -24.0260  -51.1353 C.2       15 UNK         0.5000 
     88 O          -4.0369  -22.9276  -51.3007 O.2       15 UNK        -0.5000 
     89 N          -4.1127  -25.0628  -50.5413 N.am      16 UNK        -0.5000 
     90 CA         -5.5045  -25.1951  -50.0735 C.3       16 UNK         0.1400 
     91 CB         -6.4910  -25.0838  -51.2514 C.3       16 UNK        -0.1800 
     92 C          -5.9168  -24.2496  -48.9249 C.2       16 UNK         0.5000 
     93 O          -6.5320  -24.6959  -47.9560 O.2       16 UNK        -0.5000 
     94 N          -5.5720  -22.9689  -49.0561 N.am      17 UNK        -0.5000 
     95 CA         -5.7872  -21.9040  -48.0814 C.3       17 UNK         0.1400 
     96 CB         -7.1498  -21.2387  -48.3397 C.3       17 UNK        -0.1800 
     97 C          -4.6480  -20.8671  -48.0912 C.2       17 UNK         0.5000 
     98 O          -4.6049  -20.0440  -47.1791 O.2       17 UNK        -0.5000 
     99 N          -3.7533  -20.9210  -49.0939 N.am      18 UNK        -0.5000 
    100 CA        -2.6735  -19.9668  -49.3739 C.3       18 UNK         0.1400 
    101 CB        -1.6522  -19.9200  -48.2160 C.3       18 UNK        -0.1800 
    102 C         -3.1916  -18.5713  -49.7922 C.2       18 UNK         0.5000 
    103 O         -4.3875  -18.4019  -50.0462 O.2       18 UNK        -0.5000 
    104 N         -2.2690  -17.6050  -49.9157 N.am      19 UNK        -0.5000 
    105 CA        -2.4893  -16.2417  -50.4143 C.3       19 UNK         0.1400 
    106 CB        -3.2735  -15.4000  -49.3838 C.3       19 UNK        -0.1800 
    107 C         -3.1061  -16.2545  -51.8280 C.2       19 UNK         0.5000 
    108 O         -2.4451  -16.6978  -52.7671 O.2       19 UNK        -0.5000 
    109 N         -4.3665  -15.8195  -51.9564 N.am      20 UNK        -0.5000 
    110 CA        -5.1311  -15.8230  -53.2049 C.3       20 UNK         0.1400 
    111 CB        -6.4606  -15.0882  -52.9783 C.3       20 UNK        -0.1800 
    112 C         -5.3843  -17.2326  -53.7779 C.2       20 UNK         0.5000 
    113 O         -5.4992  -17.3747  -54.9965 O.2       20 UNK        -0.5000 
    114 N         -5.4345  -18.2549  -52.9096 N.am      21 UNK        -0.5000 
    115 CA        -5.6324  -19.6544  -53.2981 C.3       21 UNK         0.1400 
    116 CB        -6.0862  -20.4678  -52.0788 C.3       21 UNK        -0.1800 
    117 C         -4.4010  -20.2908  -53.9764 C.2       21 UNK         0.5000 
    118 O         -4.5347  -21.3640  -54.5659 O.2       21 UNK        -0.5000 
    119 N         -3.2432  -19.6145  -53.9298 N.am      22 UNK        -0.5000 
    120 CA        -2.0467  -19.9687  -54.7111 C.3       22 UNK         0.1400 
    121 C         -2.2009  -19.7426  -56.2464 C.2       22 UNK         0.5000 
    122 N         -3.1953  -18.9986  -56.7207 N.am      22 UNK        -0.7600 
    123 O         -1.4013  -20.2565  -57.0239 O.2       22 UNK        -0.5000 
    124 C124       -0.7762  -19.2429  -54.2018 C.3       23 UNK        -0.0398 
    125 S125       -0.4151  -19.5410  -52.4415 S.3       23 UNK        -0.2404 
    126 C126        1.0313  -18.4643  -52.2522 C.3       23 UNK        -0.0205 
    127 H127        3.3693  -16.6038  -52.2332 H         1 UNK         0.0600 
    128 H128        2.5737  -16.0771  -53.7242 H         1 UNK         0.0600 
    129 H129        4.2610  -15.6537  -53.4186 H         1 UNK         0.0600 
    130 H130        2.2532  -15.4946  -50.6097 H         1 UNK         0.3000 
    131 H131        2.6019  -12.6620  -50.3487 H         1 UNK         0.0600 
    132 H132        1.6888  -12.8989  -48.1598 H         1 UNK         0.0800 
    133 H133        2.7275  -14.2576  -48.4225 H         1 UNK         0.0800 
    134 H134        0.5754  -16.8588  -46.8993 H         1 UNK         0.0800 
    135 H135        2.1144  -16.0532  -47.0200 H         1 UNK         0.0800 
    136 H136        0.5047  -16.6874  -50.2934 H         1 UNK         0.1150 
    137 H137        2.6812  -20.2762  -51.0671 H         1 UNK         0.1150 
    138 H138        2.9357  -18.4225  -47.2135 H         1 UNK         0.1150 
    139 H139        3.8937  -21.3828  -49.3555 H         1 UNK         0.0800 
    140 H140        4.8302  -20.1929  -48.4824 H         1 UNK         0.0800 
    141 H141        1.4530  -21.8476  -48.5105 H         1 UNK         0.0800 
    142 H142        0.8934  -21.1388  -47.0142 H         1 UNK         0.0800 
    143 H143        2.0172  -23.9735  -47.3071 H         1 UNK         0.0600 
    144 H144        1.6137  -22.4933  -44.9488 H         1 UNK         0.3000 
    145 H145        0.9069  -25.1069  -42.6990 H         1 UNK         0.0600 
    146 H146        3.1023  -24.5494  -41.6945 H         1 UNK         0.0600 
    147 H147        3.3369  -25.5261  -43.1356 H         1 UNK         0.0600 
    148 H148        3.6317  -23.7915  -43.1963 H         1 UNK         0.0600 
    149 H149        1.7870  -22.4328  -42.2469 H         1 UNK         0.3000 
    150 H150       -1.4922  -21.0052  -42.0729 H         1 UNK         0.0600 
    151 H151       -0.8558  -22.2036  -39.9908 H         1 UNK         0.0600 
    152 H152       -0.5341  -20.4804  -39.8677 H         1 UNK         0.0600 
    153 H153        0.7932  -21.6093  -40.1270 H         1 UNK         0.0600 
    154 H154       -0.2946  -19.3626  -42.7935 H         1 UNK         0.3000 
    155 H155        3.1524  -18.4240  -42.8272 H         1 UNK         0.0600 
    156 H156        0.7873  -18.4680  -44.7796 H         1 UNK         0.0600 
    157 H157        2.3437  -19.2422  -45.0470 H         1 UNK         0.0600 
    158 H158        2.2472  -17.4911  -44.9221 H         1 UNK         0.0600 
    159 H159        0.7853  -16.8423  -42.9148 H         1 UNK         0.3000 
    160 H160        0.6278  -16.0209  -39.4405 H         1 UNK         0.0600 
    161 H161        0.7200  -13.7485  -40.4585 H         1 UNK         0.0600 
    162 H162        1.4424  -14.4154  -41.9216 H         1 UNK         0.0600 
    163 H163        2.3133  -14.4862  -40.3972 H         1 UNK         0.0600 
    164 H164       -0.8104  -15.4887  -41.9550 H         1 UNK         0.3000 
    165 H165       -3.4159  -17.7626  -41.2785 H         1 UNK         0.0600 
    166 H166       -4.9211  -15.7896  -41.2712 H         1 UNK         0.0600 
    167 H167       -4.1070  -15.9347  -39.7220 H         1 UNK         0.0600 
    168 H168       -3.5691  -14.7252  -40.8813 H         1 UNK         0.0600 
    169 H169       -3.1636  -15.6067  -43.1511 H         1 UNK         0.3000 
    170 H170       -1.3295  -17.4069  -45.6152 H         1 UNK         0.0600 
    171 H171       -3.7903  -18.1128  -45.7029 H         1 UNK         0.0600 
    172 H172       -4.2219  -16.4134  -45.6182 H         1 UNK         0.0600 
    173 H173       -3.2823  -17.0288  -46.9807 H         1 UNK         0.0600 
    174 H174       -2.3970  -14.8498  -45.8411 H         1 UNK         0.3000 
    175 H175       -0.9361  -12.7592  -44.1346 H         1 UNK         0.0600 
    176 H176        1.4677  -13.5476  -45.8424 H         1 UNK         0.0600 
    177 H177        1.0810  -11.8836  -45.3984 H         1 UNK         0.0600 
    178 H178        1.4567  -13.0658  -44.1576 H         1 UNK         0.0600 
    179 H179       -0.7729  -13.0224  -47.0866 H         1 UNK         0.3000 
    180 H180       -3.6337  -12.7311  -47.9623 H         1 UNK         0.0600 
    181 H181       -3.5099   -9.8103  -47.0313 H         1 UNK         0.0600 
    182 H182       -4.8387  -10.9242  -46.7279 H         1 UNK         0.0600 
    183 H183       -4.4911  -10.4138  -48.3642 H         1 UNK         0.0600 
    184 H184       -1.1248  -11.2647  -48.1746 H         1 UNK         0.3000 
    185 H185       -1.2734  -11.1715  -51.7806 H         1 UNK         0.0600 
    186 H186       -1.7880   -8.9277  -50.8219 H         1 UNK         0.0600 
    187 H187       -0.5909   -9.1754  -49.5570 H         1 UNK         0.0600 
    188 H188       -0.0898   -9.0726  -51.2443 H         1 UNK         0.0600 
    189 H189        0.8822  -11.1167  -49.8497 H         1 UNK         0.3000 
    190 H190       -0.9765  -23.2926  -45.6235 H         1 UNK         0.3000 
    191 H191       -2.8233  -23.6907  -47.7575 H         1 UNK         0.0600 
    192 H192       -3.1378  -24.1084  -44.7383 H         1 UNK         0.0600 
    193 H193       -4.4553  -23.9997  -45.8952 H         1 UNK         0.0600 
    194 H194       -3.4286  -22.6013  -45.6082 H         1 UNK         0.0600 
    195 H195       -0.8082  -25.9996  -46.0646 H         1 UNK         0.3000 
    196 H196       -2.4228  -28.3439  -46.5325 H         1 UNK         0.0600 
    197 H197       -0.3361  -29.5520  -45.9849 H         1 UNK         0.0600 
    198 H198       -0.5847  -28.2472  -44.8341 H         1 UNK         0.0600 
    199 H199        0.6028  -28.0723  -46.1265 H         1 UNK         0.0600 
    200 H200       -0.3259  -26.3946  -48.5583 H         1 UNK         0.3000 
    201 H201       -0.3335  -28.4369  -50.7491 H         1 UNK         0.0600 
    202 H202        1.9201  -27.6708  -50.0535 H         1 UNK         0.0600 
    203 H203        1.4542  -25.9884  -50.2946 H         1 UNK         0.0600 
    204 H204        1.5431  -27.0870  -51.6671 H         1 UNK         0.0600 
    205 H205       -0.9180  -24.9709  -49.9800 H         1 UNK         0.3000 
    206 H206       -2.0961  -24.4998  -52.6561 H         1 UNK         0.0600 
    207 H207       -0.2122  -23.0754  -51.8492 H         1 UNK         0.0600 
    208 H208       -1.6776  -22.1438  -52.0948 H         1 UNK         0.0600 
    209 H209       -1.1764  -22.5762  -50.4616 H         1 UNK         0.0600 
    210 H210       -3.5462  -25.8861  -50.3936 H         1 UNK         0.3000 
    211 H211       -5.5824  -26.2094  -49.6785 H         1 UNK         0.0600 
    212 H212       -6.4685  -24.0953  -51.7111 H         1 UNK         0.0600 
    213 H213       -7.5144  -25.2653  -50.9206 H         1 UNK         0.0600 
    214 H214       -6.2647  -25.8177  -52.0248 H         1 UNK         0.0600 
    215 H215       -5.0940  -22.7259  -49.9202 H         1 UNK         0.3000 
    216 H216       -5.8011  -22.3359  -47.0792 H         1 UNK         0.0600 
    217 H217       -7.3455  -20.4505  -47.6117 H         1 UNK         0.0600 
    218 H218       -7.9632  -21.9603  -48.2629 H         1 UNK         0.0600 
    219 H219       -7.1932  -20.7878  -49.3307 H         1 UNK         0.0600 
    220 H220       -3.8842  -21.6120  -49.8214 H         1 UNK         0.3000 
    221 H221       -2.1618  -20.3678  -50.2474 H         1 UNK         0.0600 
    222 H222       -2.0359  -19.3726  -47.3551 H         1 UNK         0.0600 
    223 H223       -1.3976  -20.9253  -47.8829 H         1 UNK         0.0600 
    224 H224       -0.7228  -19.4402  -48.5236 H         1 UNK         0.0600 
    225 H225       -1.3053  -17.8485  -49.7398 H         1 UNK         0.3000 
    226 H226       -1.5110  -15.7777  -50.5282 H         1 UNK         0.0600 
    227 H227       -2.6993  -15.2841  -48.4654 H         1 UNK         0.0600 
    228 H228       -3.4633  -14.3967  -49.7642 H         1 UNK         0.0600 
    229 H229       -4.2336  -15.8458  -49.1230 H         1 UNK         0.0600 
    230 H230       -4.8514  -15.5045  -51.1292 H         1 UNK         0.3000 
    231 H231       -4.5555  -15.2675  -53.9481 H         1 UNK         0.0600 
    232 H232       -6.2938  -14.0606  -52.6543 H         1 UNK         0.0600 
    233 H233       -7.0709  -15.5849  -52.2229 H         1 UNK         0.0600 
    234 H234       -7.0458  -15.0466  -53.8980 H         1 UNK         0.0600 
    235 H235       -5.2734  -18.0776  -51.9232 H         1 UNK         0.3000 
    236 H236       -6.4430  -19.6860  -54.0291 H         1 UNK         0.0600 
    237 H237       -6.3101  -21.4987  -52.3558 H         1 UNK         0.0600 
    238 H238       -5.3159  -20.4985  -51.3119 H         1 UNK         0.0600 
    239 H239       -6.9883  -20.0453  -51.6372 H         1 UNK         0.0600 
    240 H240       -3.2014  -18.7344  -53.4318 H         1 UNK         0.3000 
    241 H241       -1.8827  -21.0399  -54.5786 H         1 UNK         0.0600 
    242 H242       -3.2808  -18.8663  -57.7162 H         1 UNK         0.3800 
    243 H243       -3.8642  -18.5632  -56.1002 H         1 UNK         0.3800 
    244 H244        0.0967  -19.5625  -54.7741 H         1 UNK         0.0800 
    245 H245       -0.8685  -18.1672  -54.3607 H         1 UNK         0.0800 
    246 H246        1.8201  -18.7894  -52.9323 H         1 UNK         0.0800 
    247 H247        0.7597  -17.4504  -52.5510 H         1 UNK         0.0800 
@<TRIPOS>BOND
     1    1    2 1    
     2    1  127 1    
     3    1  128 1    
     4    1  129 1    
     5    2    3 2    
     6    2    4 am   BACKBONE|DICT|INTERRES
     7    4    5 1    
     8    4  130 1    
     9    5    6 1    
    10    5   65 1    
    11    5  131 1    
    12    6    7 1    
    13    6  132 1    
    14    6  133 1    
    15    7    8 1    
    16    8    9 1    
    17    8  134 1    
    18    8  135 1    
    19    9   10 ar   
    20    9   14 ar   
    21   10   11 ar   
    22   10  136 1    
    23   11   12 ar   
    24   11  126 1    
    25   12   13 ar   
    26   12  137 1    
    27   13   14 ar   
    28   13   15 1    
    29   14  138 1    
    30   15   16 1    
    31   15  139 1    
    32   15  140 1    
    33   16   17 1    
    34   17   18 1    
    35   17  141 1    
    36   17  142 1    
    37   18   19 1    
    38   18   67 1    
    39   18  143 1    
    40   19   20 am   BACKBONE|DICT|INTERRES
    41   19  144 1    
    42   20   21 2    
    43   20   22 1    
    44   22   23 1    
    45   22   24 1    
    46   22  145 1    
    47   23  146 1    
    48   23  147 1    
    49   23  148 1    
    50   24   25 am   BACKBONE|DICT|INTERRES
    51   24  149 1    
    52   25   26 2    
    53   25   27 1    
    54   27   28 1    
    55   27   29 1    
    56   27  150 1    
    57   28  151 1    
    58   28  152 1    
    59   28  153 1    
    60   29   30 am   BACKBONE|DICT|INTERRES
    61   29  154 1    
    62   30   31 2    
    63   30   32 1    
    64   32   33 1    
    65   32   34 1    
    66   32  155 1    
    67   33  156 1    
    68   33  157 1    
    69   33  158 1    
    70   34   35 am   BACKBONE|DICT|INTERRES
    71   34  159 1    
    72   35   36 2    
    73   35   37 1    
    74   37   38 1    
    75   37   39 1    
    76   37  160 1    
    77   38  161 1    
    78   38  162 1    
    79   38  163 1    
    80   39   40 am   BACKBONE|DICT|INTERRES
    81   39  164 1    
    82   40   41 2    
    83   40   42 1    
    84   42   43 1    
    85   42   44 1    
    86   42  165 1    
    87   43  166 1    
    88   43  167 1    
    89   43  168 1    
    90   44   45 am   BACKBONE|DICT|INTERRES
    91   44  169 1    
    92   45   46 2    
    93   45   47 1    
    94   47   48 1    
    95   47   49 1    
    96   47  170 1    
    97   48  171 1    
    98   48  172 1    
    99   48  173 1    
   100   49   50 am   BACKBONE|DICT|INTERRES
   101   49  174 1    
   102   50   51 2    
   103   50   52 1    
   104   52   53 1    
   105   52   54 1    
   106   52  175 1    
   107   53  176 1    
   108   53  177 1    
   109   53  178 1    
   110   54   55 am   BACKBONE|DICT|INTERRES
   111   54  179 1    
   112   55   56 2    
   113   55   57 1    
   114   57   58 1    
   115   57   59 1    
   116   57  180 1    
   117   58  181 1    
   118   58  182 1    
   119   58  183 1    
   120   59   60 am   BACKBONE|DICT|INTERRES
   121   59  184 1    
   122   60   61 2    
   123   60   62 1    
   124   62   63 1    
   125   62   64 1    
   126   62  185 1    
   127   63  186 1    
   128   63  187 1    
   129   63  188 1    
   130   64   65 am   BACKBONE|DICT|INTERRES
   131   64  189 1    
   132   65   66 2    
   133   67   68 2    
   134   67   69 am   BACKBONE|DICT|INTERRES
   135   69   70 1    
   136   69  190 1    
   137   70   71 1    
   138   70   72 1    
   139   70  191 1    
   140   71  192 1    
   141   71  193 1    
   142   71  194 1    
   143   72   73 2    
   144   72   74 am   BACKBONE|DICT|INTERRES
   145   74   75 1    
   146   74  195 1    
   147   75   76 1    
   148   75   77 1    
   149   75  196 1    
   150   76  197 1    
   151   76  198 1    
   152   76  199 1    
   153   77   78 2    
   154   77   79 am   BACKBONE|DICT|INTERRES
   155   79   80 1    
   156   79  200 1    
   157   80   81 1    
   158   80   82 1    
   159   80  201 1    
   160   81  202 1    
   161   81  203 1    
   162   81  204 1    
   163   82   83 2    
   164   82   84 am   BACKBONE|DICT|INTERRES
   165   84   85 1    
   166   84  205 1    
   167   85   86 1    
   168   85   87 1    
   169   85  206 1    
   170   86  207 1    
   171   86  208 1    
   172   86  209 1    
   173   87   88 2    
   174   87   89 am   BACKBONE|DICT|INTERRES
   175   89   90 1    
   176   89  210 1    
   177   90   91 1    
   178   90   92 1    
   179   90  211 1    
   180   91  212 1    
   181   91  213 1    
   182   91  214 1    
   183   92   93 2    
   184   92   94 am   BACKBONE|DICT|INTERRES
   185   94   95 1    
   186   94  215 1    
   187   95   96 1    
   188   95   97 1    
   189   95  216 1    
   190   96  217 1    
   191   96  218 1    
   192   96  219 1    
   193   97   98 2    
   194   97   99 am   BACKBONE|DICT|INTERRES
   195   99  100 1    
   196   99  220 1    
   197  100  101 1    
   198  100  102 1    
   199  100  221 1    
   200  101  222 1    
   201  101  223 1    
   202  101  224 1    
   203  102  103 2    
   204  102  104 am   BACKBONE|DICT|INTERRES
   205  104  105 1    
   206  104  225 1    
   207  105  106 1    
   208  105  107 1    
   209  105  226 1    
   210  106  227 1    
   211  106  228 1    
   212  106  229 1    
   213  107  108 2    
   214  107  109 am   BACKBONE|DICT|INTERRES
   215  109  110 1    
   216  109  230 1    
   217  110  111 1    
   218  110  112 1    
   219  110  231 1    
   220  111  232 1    
   221  111  233 1    
   222  111  234 1    
   223  112  113 2    
   224  112  114 am   BACKBONE|DICT|INTERRES
   225  114  115 1    
   226  114  235 1    
   227  115  116 1    
   228  115  117 1    
   229  115  236 1    
   230  116  237 1    
   231  116  238 1    
   232  116  239 1    
   233  117  118 2    
   234  117  119 am   BACKBONE|DICT|INTERRES
   235  119  120 1    
   236  119  240 1    
   237  120  121 1    
   238  120  124 1    
   239  120  241 1    
   240  121  122 am   BACKBONE|DICT|INTERRES
   241  121  123 2    
   242  122  242 1    
   243  122  243 1    
   244  124  125 1    
   245  124  244 1    
   246  124  245 1    
   247  125  126 1    
   248  126  246 1    
   249  126  247 1    
@<TRIPOS>SUBSTRUCTURE
     1 UNK         1 GROUP             0       ****    0 ROOT    
