@<TRIPOS>MOLECULE
3R540
247   249    1
SMALL
USER_CHARGES


@<TRIPOS>ATOM
      1 CA         -0.8865  -12.7401  -50.5564 C.3       0 UNK        -0.1800 
      2 C          -0.8778  -13.3972  -49.1847 C.2       0 UNK         0.5000 
      3 O          -0.1907  -12.9215  -48.2821 O.2       0 UNK        -0.5000 
      4 N          -1.6534  -14.4754  -49.0162 N.am      1 UNK        -0.5000 
      5 CA         -1.7426  -15.2975  -47.7985 C.3       1 UNK         0.1400 
      6 C6         -2.6332  -16.5449  -48.0220 C.3       23 UNK        -0.0398 
      7 S7         -2.0176  -17.5863  -49.3892 S.3       23 UNK        -0.2404 
      8 C8         -1.6658  -19.1658  -48.5601 C.3       23 UNK        -0.0205 
      9 C9         -0.5839  -19.9284  -49.3062 C.ar      23 UNK        -0.0193 
     10 C10        -0.8754  -20.5960  -50.5015 C.ar      23 UNK        -0.1150 
     11 C11         0.1394  -21.2512  -51.2081 C.ar      23 UNK        -0.0193 
     12 C12         1.4379  -21.2664  -50.6937 C.ar      23 UNK        -0.1150 
     13 C13         1.7393  -20.6027  -49.5032 C.ar      23 UNK        -0.0193 
     14 C14         0.7252  -19.9307  -48.8158 C.ar      23 UNK        -0.1150 
     15 C15         3.1707  -20.5835  -48.9919 C.3       23 UNK        -0.0205 
     16 S16         3.5686  -22.0784  -48.0360 S.3       23 UNK        -0.2404 
     17 C17         2.7651  -21.7048  -46.4438 C.3       23 UNK        -0.0398 
     18 CA          1.8894  -22.8576  -45.8964 C.3       11 UNK         0.1400 
     19 N           1.7997  -22.7794  -44.4351 N.am      11 UNK        -0.5000 
     20 C           1.4146  -23.7755  -43.6264 C.2       10 UNK         0.5000 
     21 O           0.9359  -24.8327  -44.0363 O.2       10 UNK        -0.5000 
     22 CA          1.6061  -23.5604  -42.1143 C.3       10 UNK         0.1400 
     23 CB          3.0709  -23.8058  -41.7201 C.3       10 UNK        -0.1800 
     24 N           1.2263  -22.2040  -41.7213 N.am      10 UNK        -0.5000 
     25 C           0.1959  -21.9005  -40.9195 C.2       9 UNK         0.5000 
     26 O          -0.4609  -22.7383  -40.2996 O.2       9 UNK        -0.5000 
     27 CA         -0.1986  -20.4095  -40.8095 C.3       9 UNK         0.1400 
     28 CB          0.4741  -19.7705  -39.5849 C.3       9 UNK        -0.1800 
     29 N           0.1114  -19.6026  -41.9946 N.am      9 UNK        -0.5000 
     30 C          -0.2387  -19.8935  -43.2557 C.2       8 UNK         0.5000 
     31 O          -0.9282  -20.8614  -43.5649 O.2       8 UNK        -0.5000 
     32 CA          0.3511  -19.0233  -44.3782 C.3       8 UNK         0.1400 
     33 CB         -0.6380  -17.9276  -44.7915 C.3       8 UNK        -0.1800 
     34 N           1.6488  -18.4246  -44.0572 N.am      8 UNK        -0.5000 
     35 C           2.7561  -19.0927  -43.6985 C.2       7 UNK         0.5000 
     36 O           2.8001  -20.3139  -43.5389 O.2       7 UNK        -0.5000 
     37 CA          4.0098  -18.2471  -43.4396 C.3       7 UNK         0.1400 
     38 CB          4.6096  -17.7380  -44.7599 C.3       7 UNK        -0.1800 
     39 N           3.6891  -17.1182  -42.5696 N.am      7 UNK        -0.5000 
     40 C           3.6493  -17.1901  -41.2318 C.2       6 UNK         0.5000 
     41 O           3.9740  -18.1894  -40.5900 O.2       6 UNK        -0.5000 
     42 CA          3.1484  -15.9423  -40.4789 C.3       6 UNK         0.1400 
     43 CB          4.3259  -15.0283  -40.1082 C.3       6 UNK        -0.1800 
     44 N           2.1598  -15.1675  -41.2308 N.am      6 UNK        -0.5000 
     45 C           0.9289  -15.5968  -41.5424 C.2       5 UNK         0.5000 
     46 O           0.4856  -16.6995  -41.2222 O.2       5 UNK        -0.5000 
     47 CA          0.0656  -14.6465  -42.3919 C.3       5 UNK         0.1400 
     48 CB         -0.6949  -13.6588  -41.4954 C.3       5 UNK        -0.1800 
     49 N           0.8164  -13.8964  -43.4017 N.am      5 UNK        -0.5000 
     50 C           1.5616  -14.4224  -44.3835 C.2       4 UNK         0.5000 
     51 O           1.8034  -15.6271  -44.4763 O.2       4 UNK        -0.5000 
     52 CA          2.1285  -13.4403  -45.4309 C.3       4 UNK         0.1400 
     53 CB          2.6241  -14.1626  -46.6968 C.3       4 UNK        -0.1800 
     54 N           1.1470  -12.4299  -45.8275 N.am      4 UNK        -0.5000 
     55 C           0.8634  -11.3022  -45.1635 C.2       3 UNK         0.5000 
     56 O           1.4107  -10.9766  -44.1099 O.2       3 UNK        -0.5000 
     57 CA         -0.2629  -10.4332  -45.7427 C.3       3 UNK         0.1400 
     58 CB          0.2121   -9.6690  -46.9888 C.3       3 UNK        -0.1800 
     59 N          -1.4221  -11.2572  -46.0826 N.am      3 UNK        -0.5000 
     60 C          -2.3865  -11.6006  -45.2171 C.2       2 UNK         0.5000 
     61 O          -2.4315  -11.2032  -44.0525 O.2       2 UNK        -0.5000 
     62 CA         -3.4907  -12.5443  -45.7334 C.3       2 UNK         0.1400 
     63 CB         -4.6801  -11.7357  -46.2734 C.3       2 UNK        -0.1800 
     64 N          -3.0208  -13.4550  -46.7779 N.am      2 UNK        -0.5000 
     65 C          -2.2254  -14.5117  -46.5589 C.2       1 UNK         0.5000 
     66 O          -1.8601  -14.8655  -45.4390 O.2       1 UNK        -0.5000 
     67 C           0.5197  -22.9678  -46.6081 C.2       11 UNK         0.5000 
     68 O           0.4576  -23.5192  -47.7078 O.2       11 UNK        -0.5000 
     69 N          -0.5739  -22.5277  -45.9614 N.am      12 UNK        -0.5000 
     70 CA         -1.9440  -22.6659  -46.4749 C.3       12 UNK         0.1400 
     71 CB         -2.9080  -21.7728  -45.6785 C.3       12 UNK        -0.1800 
     72 C          -2.4615  -24.1203  -46.5328 C.2       12 UNK         0.5000 
     73 O          -3.5453  -24.3449  -47.0684 O.2       12 UNK        -0.5000 
     74 N          -1.6743  -25.0893  -46.0410 N.am      13 UNK        -0.5000 
     75 CA         -1.8778  -26.5266  -46.2425 C.3       13 UNK         0.1400 
     76 CB         -0.8749  -27.2956  -45.3688 C.3       13 UNK        -0.1800 
     77 C          -1.7672  -26.9749  -47.7194 C.2       13 UNK         0.5000 
     78 O          -2.1764  -28.0937  -48.0332 O.2       13 UNK        -0.5000 
     79 N          -1.2228  -26.1103  -48.5909 N.am      14 UNK        -0.5000 
     80 CA         -1.2279  -26.2393  -50.0475 C.3       14 UNK         0.1400 
     81 CB         -0.0946  -25.3601  -50.6167 C.3       14 UNK        -0.1800 
     82 C          -2.6265  -25.9158  -50.6321 C.2       14 UNK         0.5000 
     83 O          -3.6072  -26.5680  -50.2717 O.2       14 UNK        -0.5000 
     84 N          -2.7101  -24.9299  -51.5372 N.am      15 UNK        -0.5000 
     85 CA         -3.9541  -24.5178  -52.2017 C.3       15 UNK         0.1400 
     86 CB         -3.6048  -23.8170  -53.5233 C.3       15 UNK        -0.1800 
     87 C          -4.8519  -23.6123  -51.3304 C.2       15 UNK         0.5000 
     88 O          -6.0168  -23.4155  -51.6783 O.2       15 UNK        -0.5000 
     89 N          -4.2953  -23.0918  -50.2259 N.am      16 UNK        -0.5000 
     90 CA         -4.8947  -22.1739  -49.2508 C.3       16 UNK         0.1400 
     91 CB         -6.1755  -22.7727  -48.6299 C.3       16 UNK        -0.1800 
     92 C          -5.1291  -20.7550  -49.8041 C.2       16 UNK         0.5000 
     93 O          -4.8823  -20.4848  -50.9795 O.2       16 UNK        -0.5000 
     94 N          -5.5964  -19.8544  -48.9278 N.am      17 UNK        -0.5000 
     95 CA         -5.8567  -18.4418  -49.2293 C.3       17 UNK         0.1400 
     96 CB         -6.1890  -17.7074  -47.9216 C.3       17 UNK        -0.1800 
     97 C          -6.9650  -18.2133  -50.2762 C.2       17 UNK         0.5000 
     98 O          -6.9780  -17.1690  -50.9277 O.2       17 UNK        -0.5000 
     99 N          -7.8518  -19.2044  -50.4423 N.am      18 UNK        -0.5000 
    100 CA        -8.8934  -19.2465  -51.4699 C.3       18 UNK         0.1400 
    101 CB        -9.8440  -20.4126  -51.1573 C.3       18 UNK        -0.1800 
    102 C         -8.3419  -19.3731  -52.9061 C.2       18 UNK         0.5000 
    103 O         -9.0569  -19.0446  -53.8537 O.2       18 UNK        -0.5000 
    104 N         -7.0934  -19.8351  -53.0464 N.am      19 UNK        -0.5000 
    105 CA        -6.3830  -19.9836  -54.3100 C.3       19 UNK         0.1400 
    106 CB        -6.5787  -21.4113  -54.8508 C.3       19 UNK        -0.1800 
    107 C         -4.9114  -19.6054  -54.0894 C.2       19 UNK         0.5000 
    108 O         -4.0150  -20.3995  -54.3735 O.2       19 UNK        -0.5000 
    109 N         -4.6904  -18.3846  -53.5790 N.am      20 UNK        -0.5000 
    110 CA        -3.3863  -17.8324  -53.1865 C.3       20 UNK         0.1400 
    111 CB        -3.6139  -16.4651  -52.5214 C.3       20 UNK        -0.1800 
    112 C         -2.3451  -17.7142  -54.3230 C.2       20 UNK         0.5000 
    113 O         -1.1627  -17.5238  -54.0396 O.2       20 UNK        -0.5000 
    114 N         -2.7893  -17.8354  -55.5822 N.am      21 UNK        -0.5000 
    115 CA        -1.9354  -17.9732  -56.7649 C.3       21 UNK         0.1400 
    116 CB        -2.7827  -17.7010  -58.0177 C.3       21 UNK        -0.1800 
    117 C         -1.2539  -19.3570  -56.8643 C.2       21 UNK         0.5000 
    118 O         -0.2663  -19.4893  -57.5881 O.2       21 UNK        -0.5000 
    119 N         -1.7897  -20.3523  -56.1436 N.am      22 UNK        -0.5000 
    120 CA        -1.2870  -21.7299  -56.0047 C.3       22 UNK         0.1400 
    121 C         -1.4426  -22.6209  -57.2741 C.2       22 UNK         0.5000 
    122 N         -2.2229  -22.2231  -58.2715 N.am      22 UNK        -0.7600 
    123 O         -0.8731  -23.7065  -57.3482 O.2       22 UNK        -0.5000 
    124 C124        0.1362  -21.8236  -55.3825 C.3       23 UNK        -0.0398 
    125 S125        0.3701  -20.7860  -53.8977 S.3       23 UNK        -0.2404 
    126 C126       -0.1369  -21.9000  -52.5537 C.3       23 UNK        -0.0205 
    127 H127       -1.5451  -13.2610  -51.2518 H         1 UNK         0.0600 
    128 H128        0.1195  -12.7390  -50.9758 H         1 UNK         0.0600 
    129 H129       -1.2240  -11.7070  -50.4745 H         1 UNK         0.0600 
    130 H130       -2.1819  -14.8230  -49.8032 H         1 UNK         0.3000 
    131 H131       -0.7307  -15.6409  -47.5719 H         1 UNK         0.0600 
    132 H132       -2.7027  -17.1406  -47.1104 H         1 UNK         0.0800 
    133 H133       -3.6524  -16.2401  -48.2632 H         1 UNK         0.0800 
    134 H134       -2.5768  -19.7613  -48.5054 H         1 UNK         0.0800 
    135 H135       -1.3491  -18.9878  -47.5321 H         1 UNK         0.0800 
    136 H136       -1.8807  -20.5687  -50.8996 H         1 UNK         0.1150 
    137 H137        2.2237  -21.7698  -51.2394 H         1 UNK         0.1150 
    138 H138        0.9567  -19.3935  -47.9074 H         1 UNK         0.1150 
    139 H139        3.8563  -20.5184  -49.8381 H         1 UNK         0.0800 
    140 H140        3.3553  -19.6939  -48.3874 H         1 UNK         0.0800 
    141 H141        2.2010  -20.7748  -46.4955 H         1 UNK         0.0800 
    142 H142        3.5868  -21.5077  -45.7543 H         1 UNK         0.0800 
    143 H143        2.4130  -23.7923  -46.1098 H         1 UNK         0.0600 
    144 H144        2.1849  -21.9332  -44.0225 H         1 UNK         0.3000 
    145 H145        0.9892  -24.3010  -41.6012 H         1 UNK         0.0600 
    146 H146        3.2050  -23.7234  -40.6414 H         1 UNK         0.0600 
    147 H147        3.3927  -24.8061  -42.0127 H         1 UNK         0.0600 
    148 H148        3.7430  -23.0901  -42.1957 H         1 UNK         0.0600 
    149 H149        1.7063  -21.4446  -42.1905 H         1 UNK         0.3000 
    150 H150       -1.2801  -20.3711  -40.6673 H         1 UNK         0.0600 
    151 H151        0.2688  -20.3431  -38.6794 H         1 UNK         0.0600 
    152 H152        0.1074  -18.7579  -39.4164 H         1 UNK         0.0600 
    153 H153        1.5572  -19.7190  -39.7045 H         1 UNK         0.0600 
    154 H154        0.6267  -18.7454  -41.8301 H         1 UNK         0.3000 
    155 H155        0.5026  -19.6741  -45.2404 H         1 UNK         0.0600 
    156 H156       -0.8360  -17.2418  -43.9697 H         1 UNK         0.0600 
    157 H157       -0.2580  -17.3453  -45.6310 H         1 UNK         0.0600 
    158 H158       -1.5942  -18.3555  -45.0944 H         1 UNK         0.0600 
    159 H159        1.7087  -17.4134  -44.1643 H         1 UNK         0.3000 
    160 H160        4.7548  -18.8829  -42.9561 H         1 UNK         0.0600 
    161 H161        4.8716  -18.5707  -45.4139 H         1 UNK         0.0600 
    162 H162        3.9153  -17.0997  -45.3066 H         1 UNK         0.0600 
    163 H163        5.5199  -17.1653  -44.5823 H         1 UNK         0.0600 
    164 H164        3.3423  -16.2830  -43.0226 H         1 UNK         0.3000 
    165 H165        2.6759  -16.2836  -39.5553 H         1 UNK         0.0600 
    166 H166        3.9947  -14.1825  -39.5053 H         1 UNK         0.0600 
    167 H167        5.0715  -15.5696  -39.5242 H         1 UNK         0.0600 
    168 H168        4.8253  -14.6351  -40.9946 H         1 UNK         0.0600 
    169 H169        2.4404  -14.2500  -41.5445 H         1 UNK         0.3000 
    170 H170       -0.6718  -15.2517  -42.9193 H         1 UNK         0.0600 
    171 H171       -1.2817  -14.1862  -40.7421 H         1 UNK         0.0600 
    172 H172       -0.0162  -12.9841  -40.9722 H         1 UNK         0.0600 
    173 H173       -1.3879  -13.0522  -42.0790 H         1 UNK         0.0600 
    174 H174        0.7064  -12.8904  -43.3927 H         1 UNK         0.3000 
    175 H175        2.9854  -12.9422  -44.9732 H         1 UNK         0.0600 
    176 H176        1.8213  -14.7233  -47.1777 H         1 UNK         0.0600 
    177 H177        3.0195  -13.4548  -47.4255 H         1 UNK         0.0600 
    178 H178        3.4240  -14.8657  -46.4624 H         1 UNK         0.0600 
    179 H179        0.6323  -12.6268  -46.6838 H         1 UNK         0.3000 
    180 H180       -0.5467   -9.6969  -44.9875 H         1 UNK         0.0600 
    181 H181        0.5150  -10.3422  -47.7913 H         1 UNK         0.0600 
    182 H182        1.0676   -9.0349  -46.7530 H         1 UNK         0.0600 
    183 H183       -0.5751   -9.0218  -47.3757 H         1 UNK         0.0600 
    184 H184       -1.4151  -11.6841  -46.9998 H         1 UNK         0.3000 
    185 H185       -3.8403  -13.1392  -44.8867 H         1 UNK         0.0600 
    186 H186       -5.4966  -12.3906  -46.5781 H         1 UNK         0.0600 
    187 H187       -5.0727  -11.0623  -45.5103 H         1 UNK         0.0600 
    188 H188       -4.3971  -11.1276  -47.1336 H         1 UNK         0.0600 
    189 H189       -3.2759  -13.2323  -47.7289 H         1 UNK         0.3000 
    190 H190       -0.4841  -22.1123  -45.0390 H         1 UNK         0.3000 
    191 H191       -1.9363  -22.3010  -47.5039 H         1 UNK         0.0600 
    192 H192       -2.9711  -22.0855  -44.6359 H         1 UNK         0.0600 
    193 H193       -3.9183  -21.8143  -46.0861 H         1 UNK         0.0600 
    194 H194       -2.5941  -20.7295  -45.7045 H         1 UNK         0.0600 
    195 H195       -0.8097  -24.8225  -45.5876 H         1 UNK         0.3000 
    196 H196       -2.8865  -26.7721  -45.9045 H         1 UNK         0.0600 
    197 H197       -1.0222  -28.3728  -45.4562 H         1 UNK         0.0600 
    198 H198       -0.9891  -27.0374  -44.3158 H         1 UNK         0.0600 
    199 H199        0.1547  -27.0796  -45.6568 H         1 UNK         0.0600 
    200 H200       -0.8653  -25.2352  -48.2275 H         1 UNK         0.3000 
    201 H201       -1.0074  -27.2767  -50.3063 H         1 UNK         0.0600 
    202 H202        0.8694  -25.6548  -50.2013 H         1 UNK         0.0600 
    203 H203       -0.2380  -24.3043  -50.3813 H         1 UNK         0.0600 
    204 H204       -0.0153  -25.4607  -51.6999 H         1 UNK         0.0600 
    205 H205       -1.8675  -24.4444  -51.8051 H         1 UNK         0.3000 
    206 H206       -4.5285  -25.4147  -52.4432 H         1 UNK         0.0600 
    207 H207       -2.8617  -24.3743  -54.0941 H         1 UNK         0.0600 
    208 H208       -4.4884  -23.7223  -54.1540 H         1 UNK         0.0600 
    209 H209       -3.2253  -22.8106  -53.3528 H         1 UNK         0.0600 
    210 H210       -3.3312  -23.3311  -50.0536 H         1 UNK         0.3000 
    211 H211       -4.1555  -22.0699  -48.4589 H         1 UNK         0.0600 
    212 H212       -7.0122  -22.7644  -49.3290 H         1 UNK         0.0600 
    213 H213       -6.4855  -22.2169  -47.7448 H         1 UNK         0.0600 
    214 H214       -6.0138  -23.8040  -48.3156 H         1 UNK         0.0600 
    215 H215       -5.7817  -20.1446  -47.9788 H         1 UNK         0.3000 
    216 H216       -4.9401  -18.0172  -49.6408 H         1 UNK         0.0600 
    217 H217       -6.3344  -16.6408  -48.0984 H         1 UNK         0.0600 
    218 H218       -5.3837  -17.8088  -47.1939 H         1 UNK         0.0600 
    219 H219       -7.1024  -18.0919  -47.4663 H         1 UNK         0.0600 
    220 H220       -7.7623  -20.0227  -49.8589 H         1 UNK         0.3000 
    221 H221       -9.4605  -18.3149  -51.4168 H         1 UNK         0.0600 
    222 H222       -9.3243  -21.3715  -51.1812 H         1 UNK         0.0600 
    223 H223      -10.2981  -20.2997  -50.1727 H         1 UNK         0.0600 
    224 H224      -10.6559  -20.4613  -51.8842 H         1 UNK         0.0600 
    225 H225       -6.5491  -20.0638  -52.2202 H         1 UNK         0.3000 
    226 H226       -6.7757  -19.2803  -55.0472 H         1 UNK         0.0600 
    227 H227       -7.6284  -21.6086  -55.0680 H         1 UNK         0.0600 
    228 H228       -6.0201  -21.5650  -55.7749 H         1 UNK         0.0600 
    229 H229       -6.2429  -22.1564  -54.1303 H         1 UNK         0.0600 
    230 H230       -5.4932  -17.8103  -53.3646 H         1 UNK         0.3000 
    231 H231       -2.9623  -18.5076  -52.4398 H         1 UNK         0.0600 
    232 H232       -2.6715  -16.0314  -52.1842 H         1 UNK         0.0600 
    233 H233       -4.2575  -16.5540  -51.6464 H         1 UNK         0.0600 
    234 H234       -4.0754  -15.7558  -53.2092 H         1 UNK         0.0600 
    235 H235       -3.7796  -17.9673  -55.7214 H         1 UNK         0.3000 
    236 H236       -1.1463  -17.2202  -56.7133 H         1 UNK         0.0600 
    237 H237       -3.2156  -16.7008  -57.9914 H         1 UNK         0.0600 
    238 H238       -2.1760  -17.7670  -58.9219 H         1 UNK         0.0600 
    239 H239       -3.5983  -18.4185  -58.1163 H         1 UNK         0.0600 
    240 H240       -2.6045  -20.1540  -55.5688 H         1 UNK         0.3000 
    241 H241       -1.9644  -22.1857  -55.2846 H         1 UNK         0.0600 
    242 H242       -2.3276  -22.8083  -59.0855 H         1 UNK         0.3800 
    243 H243       -2.7036  -21.3395  -58.2215 H         1 UNK         0.3800 
    244 H244        0.3750  -22.8571  -55.1267 H         1 UNK         0.0800 
    245 H245        0.8831  -21.5185  -56.1168 H         1 UNK         0.0800 
    246 H246       -1.1966  -22.1275  -52.6539 H         1 UNK         0.0800 
    247 H247        0.4038  -22.8445  -52.6292 H         1 UNK         0.0800 
@<TRIPOS>BOND
     1    1    2 1    
     2    1  127 1    
     3    1  128 1    
     4    1  129 1    
     5    2    3 2    
     6    2    4 am   BACKBONE|DICT|INTERRES
     7    4    5 1    
     8    4  130 1    
     9    5    6 1    
    10    5   65 1    
    11    5  131 1    
    12    6    7 1    
    13    6  132 1    
    14    6  133 1    
    15    7    8 1    
    16    8    9 1    
    17    8  134 1    
    18    8  135 1    
    19    9   10 ar   
    20    9   14 ar   
    21   10   11 ar   
    22   10  136 1    
    23   11   12 ar   
    24   11  126 1    
    25   12   13 ar   
    26   12  137 1    
    27   13   14 ar   
    28   13   15 1    
    29   14  138 1    
    30   15   16 1    
    31   15  139 1    
    32   15  140 1    
    33   16   17 1    
    34   17   18 1    
    35   17  141 1    
    36   17  142 1    
    37   18   19 1    
    38   18   67 1    
    39   18  143 1    
    40   19   20 am   BACKBONE|DICT|INTERRES
    41   19  144 1    
    42   20   21 2    
    43   20   22 1    
    44   22   23 1    
    45   22   24 1    
    46   22  145 1    
    47   23  146 1    
    48   23  147 1    
    49   23  148 1    
    50   24   25 am   BACKBONE|DICT|INTERRES
    51   24  149 1    
    52   25   26 2    
    53   25   27 1    
    54   27   28 1    
    55   27   29 1    
    56   27  150 1    
    57   28  151 1    
    58   28  152 1    
    59   28  153 1    
    60   29   30 am   BACKBONE|DICT|INTERRES
    61   29  154 1    
    62   30   31 2    
    63   30   32 1    
    64   32   33 1    
    65   32   34 1    
    66   32  155 1    
    67   33  156 1    
    68   33  157 1    
    69   33  158 1    
    70   34   35 am   BACKBONE|DICT|INTERRES
    71   34  159 1    
    72   35   36 2    
    73   35   37 1    
    74   37   38 1    
    75   37   39 1    
    76   37  160 1    
    77   38  161 1    
    78   38  162 1    
    79   38  163 1    
    80   39   40 am   BACKBONE|DICT|INTERRES
    81   39  164 1    
    82   40   41 2    
    83   40   42 1    
    84   42   43 1    
    85   42   44 1    
    86   42  165 1    
    87   43  166 1    
    88   43  167 1    
    89   43  168 1    
    90   44   45 am   BACKBONE|DICT|INTERRES
    91   44  169 1    
    92   45   46 2    
    93   45   47 1    
    94   47   48 1    
    95   47   49 1    
    96   47  170 1    
    97   48  171 1    
    98   48  172 1    
    99   48  173 1    
   100   49   50 am   BACKBONE|DICT|INTERRES
   101   49  174 1    
   102   50   51 2    
   103   50   52 1    
   104   52   53 1    
   105   52   54 1    
   106   52  175 1    
   107   53  176 1    
   108   53  177 1    
   109   53  178 1    
   110   54   55 am   BACKBONE|DICT|INTERRES
   111   54  179 1    
   112   55   56 2    
   113   55   57 1    
   114   57   58 1    
   115   57   59 1    
   116   57  180 1    
   117   58  181 1    
   118   58  182 1    
   119   58  183 1    
   120   59   60 am   BACKBONE|DICT|INTERRES
   121   59  184 1    
   122   60   61 2    
   123   60   62 1    
   124   62   63 1    
   125   62   64 1    
   126   62  185 1    
   127   63  186 1    
   128   63  187 1    
   129   63  188 1    
   130   64   65 am   BACKBONE|DICT|INTERRES
   131   64  189 1    
   132   65   66 2    
   133   67   68 2    
   134   67   69 am   BACKBONE|DICT|INTERRES
   135   69   70 1    
   136   69  190 1    
   137   70   71 1    
   138   70   72 1    
   139   70  191 1    
   140   71  192 1    
   141   71  193 1    
   142   71  194 1    
   143   72   73 2    
   144   72   74 am   BACKBONE|DICT|INTERRES
   145   74   75 1    
   146   74  195 1    
   147   75   76 1    
   148   75   77 1    
   149   75  196 1    
   150   76  197 1    
   151   76  198 1    
   152   76  199 1    
   153   77   78 2    
   154   77   79 am   BACKBONE|DICT|INTERRES
   155   79   80 1    
   156   79  200 1    
   157   80   81 1    
   158   80   82 1    
   159   80  201 1    
   160   81  202 1    
   161   81  203 1    
   162   81  204 1    
   163   82   83 2    
   164   82   84 am   BACKBONE|DICT|INTERRES
   165   84   85 1    
   166   84  205 1    
   167   85   86 1    
   168   85   87 1    
   169   85  206 1    
   170   86  207 1    
   171   86  208 1    
   172   86  209 1    
   173   87   88 2    
   174   87   89 am   BACKBONE|DICT|INTERRES
   175   89   90 1    
   176   89  210 1    
   177   90   91 1    
   178   90   92 1    
   179   90  211 1    
   180   91  212 1    
   181   91  213 1    
   182   91  214 1    
   183   92   93 2    
   184   92   94 am   BACKBONE|DICT|INTERRES
   185   94   95 1    
   186   94  215 1    
   187   95   96 1    
   188   95   97 1    
   189   95  216 1    
   190   96  217 1    
   191   96  218 1    
   192   96  219 1    
   193   97   98 2    
   194   97   99 am   BACKBONE|DICT|INTERRES
   195   99  100 1    
   196   99  220 1    
   197  100  101 1    
   198  100  102 1    
   199  100  221 1    
   200  101  222 1    
   201  101  223 1    
   202  101  224 1    
   203  102  103 2    
   204  102  104 am   BACKBONE|DICT|INTERRES
   205  104  105 1    
   206  104  225 1    
   207  105  106 1    
   208  105  107 1    
   209  105  226 1    
   210  106  227 1    
   211  106  228 1    
   212  106  229 1    
   213  107  108 2    
   214  107  109 am   BACKBONE|DICT|INTERRES
   215  109  110 1    
   216  109  230 1    
   217  110  111 1    
   218  110  112 1    
   219  110  231 1    
   220  111  232 1    
   221  111  233 1    
   222  111  234 1    
   223  112  113 2    
   224  112  114 am   BACKBONE|DICT|INTERRES
   225  114  115 1    
   226  114  235 1    
   227  115  116 1    
   228  115  117 1    
   229  115  236 1    
   230  116  237 1    
   231  116  238 1    
   232  116  239 1    
   233  117  118 2    
   234  117  119 am   BACKBONE|DICT|INTERRES
   235  119  120 1    
   236  119  240 1    
   237  120  121 1    
   238  120  124 1    
   239  120  241 1    
   240  121  122 am   BACKBONE|DICT|INTERRES
   241  121  123 2    
   242  122  242 1    
   243  122  243 1    
   244  124  125 1    
   245  124  244 1    
   246  124  245 1    
   247  125  126 1    
   248  126  246 1    
   249  126  247 1    
@<TRIPOS>SUBSTRUCTURE
     1 UNK         1 GROUP             0       ****    0 ROOT    
