@<TRIPOS>MOLECULE
3R540
247   249    1
SMALL
USER_CHARGES


@<TRIPOS>ATOM
      1 CA         -2.1847  -16.7943  -51.9618 C.3       0 UNK        -0.1800 
      2 C          -1.3818  -15.6370  -51.3821 C.2       0 UNK         0.5000 
      3 O          -0.7928  -14.8626  -52.1353 O.2       0 UNK        -0.5000 
      4 N          -1.3602  -15.5147  -50.0507 N.am      1 UNK        -0.5000 
      5 CA         -0.6604  -14.4521  -49.3143 C.3       1 UNK         0.1400 
      6 C6          0.8931  -14.5314  -49.3834 C.3       23 UNK        -0.0398 
      7 S7          1.5826  -16.1506  -48.8960 S.3       23 UNK        -0.2404 
      8 C8          2.3653  -16.7272  -50.4345 C.3       23 UNK        -0.0205 
      9 C9          2.2064  -18.2297  -50.6045 C.ar      23 UNK        -0.0193 
     10 C10         1.3613  -18.7341  -51.5956 C.ar      23 UNK        -0.1150 
     11 C11         1.2128  -20.1118  -51.7706 C.ar      23 UNK        -0.0193 
     12 C12         1.9010  -20.9898  -50.9276 C.ar      23 UNK        -0.1150 
     13 C13         2.7578  -20.5004  -49.9346 C.ar      23 UNK        -0.0193 
     14 C14         2.9126  -19.1171  -49.7867 C.ar      23 UNK        -0.1150 
     15 C15         3.5256  -21.4760  -49.0447 C.3       23 UNK        -0.0205 
     16 S16         3.4268  -21.0934  -47.2609 S.3       23 UNK        -0.2404 
     17 C17         1.6283  -21.1157  -46.9754 C.3       23 UNK        -0.0398 
     18 CA          1.1237  -22.4057  -46.2852 C.3       11 UNK         0.1400 
     19 N           1.6593  -22.5500  -44.9316 N.am      11 UNK        -0.5000 
     20 C           1.7453  -23.7017  -44.2525 C.2       10 UNK         0.5000 
     21 O           1.3792  -24.7836  -44.7167 O.2       10 UNK        -0.5000 
     22 CA          2.3135  -23.6328  -42.8173 C.3       10 UNK         0.1400 
     23 CB          3.0244  -24.9348  -42.3912 C.3       10 UNK        -0.1800 
     24 N           3.1618  -22.4578  -42.5788 N.am      10 UNK        -0.5000 
     25 C           4.3452  -22.1824  -43.1485 C.2       9 UNK         0.5000 
     26 O           4.9196  -22.9385  -43.9328 O.2       9 UNK        -0.5000 
     27 CA          5.0038  -20.8372  -42.7929 C.3       9 UNK         0.1400 
     28 CB          5.2569  -19.9952  -44.0563 C.3       9 UNK        -0.1800 
     29 N           4.2037  -20.0400  -41.8567 N.am      9 UNK        -0.5000 
     30 C           4.5760  -19.7450  -40.6051 C.2       8 UNK         0.5000 
     31 O           5.5734  -20.2176  -40.0579 O.2       8 UNK        -0.5000 
     32 CA          3.7221  -18.7195  -39.8407 C.3       8 UNK         0.1400 
     33 CB          4.1203  -17.2931  -40.2509 C.3       8 UNK        -0.1800 
     34 N           2.2778  -18.8874  -40.0111 N.am      8 UNK        -0.5000 
     35 C           1.5529  -19.8083  -39.3604 C.2       7 UNK         0.5000 
     36 O           2.0455  -20.7094  -38.6808 O.2       7 UNK        -0.5000 
     37 CA          0.0205  -19.6874  -39.4604 C.3       7 UNK         0.1400 
     38 CB         -0.4904  -18.4561  -38.6949 C.3       7 UNK        -0.1800 
     39 N          -0.4356  -19.6195  -40.8440 N.am      7 UNK        -0.5000 
     40 C          -0.4893  -20.6687  -41.6728 C.2       6 UNK         0.5000 
     41 O          -0.2424  -21.8242  -41.3314 O.2       6 UNK        -0.5000 
     42 CA         -0.8319  -20.3733  -43.1427 C.3       6 UNK         0.1400 
     43 CB         -2.3457  -20.4189  -43.3936 C.3       6 UNK        -0.1800 
     44 N          -0.2783  -19.0953  -43.5944 N.am      6 UNK        -0.5000 
     45 C           1.0341  -18.8675  -43.7405 C.2       5 UNK         0.5000 
     46 O           1.8893  -19.7413  -43.5972 O.2       5 UNK        -0.5000 
     47 CA          1.4741  -17.4268  -44.0532 C.3       5 UNK         0.1400 
     48 CB          1.6322  -17.2184  -45.5617 C.3       5 UNK        -0.1800 
     49 N           0.5475  -16.4278  -43.5200 N.am      5 UNK        -0.5000 
     50 C           0.4694  -16.1029  -42.2216 C.2       4 UNK         0.5000 
     51 O           1.1838  -16.5999  -41.3524 O.2       4 UNK        -0.5000 
     52 CA         -0.6371  -15.1110  -41.8159 C.3       4 UNK         0.1400 
     53 CB         -0.1982  -13.6648  -42.0881 C.3       4 UNK        -0.1800 
     54 N          -1.9014  -15.3725  -42.5043 N.am      4 UNK        -0.5000 
     55 C          -2.5883  -16.5205  -42.4258 C.2       3 UNK         0.5000 
     56 O          -2.2731  -17.4436  -41.6758 O.2       3 UNK        -0.5000 
     57 CA         -3.7969  -16.6972  -43.3662 C.3       3 UNK         0.1400 
     58 CB         -5.1129  -16.6662  -42.5760 C.3       3 UNK        -0.1800 
     59 N          -3.8704  -15.7192  -44.4554 N.am      3 UNK        -0.5000 
     60 C          -3.0019  -15.6191  -45.4712 C.2       2 UNK         0.5000 
     61 O          -1.9961  -16.3253  -45.5742 O.2       2 UNK        -0.5000 
     62 CA         -3.3550  -14.5539  -46.5284 C.3       2 UNK         0.1400 
     63 CB         -3.3681  -13.1313  -45.9289 C.3       2 UNK        -0.1800 
     64 N          -2.5288  -14.6126  -47.7379 N.am      2 UNK        -0.5000 
     65 C          -1.2320  -14.2982  -47.8864 C.2       1 UNK         0.5000 
     66 O          -0.5178  -13.8748  -46.9763 O.2       1 UNK        -0.5000 
     67 C          -0.4165  -22.4290  -46.2468 C.2       11 UNK         0.5000 
     68 O          -1.0408  -21.3732  -46.3363 O.2       11 UNK        -0.5000 
     69 N          -1.0202  -23.6169  -46.1144 N.am      12 UNK        -0.5000 
     70 CA         -2.4773  -23.8072  -46.0602 C.3       12 UNK         0.1400 
     71 CB         -2.7832  -25.3006  -45.8761 C.3       12 UNK        -0.1800 
     72 C          -3.2326  -23.2442  -47.2849 C.2       12 UNK         0.5000 
     73 O          -4.3681  -22.7892  -47.1488 O.2       12 UNK        -0.5000 
     74 N          -2.5644  -23.2448  -48.4461 N.am      13 UNK        -0.5000 
     75 CA         -3.0346  -22.6513  -49.6963 C.3       13 UNK         0.1400 
     76 CB         -2.1323  -23.1468  -50.8351 C.3       13 UNK        -0.1800 
     77 C          -3.0697  -21.1107  -49.6836 C.2       13 UNK         0.5000 
     78 O          -3.8544  -20.5265  -50.4299 O.2       13 UNK        -0.5000 
     79 N          -2.2382  -20.4676  -48.8489 N.am      14 UNK        -0.5000 
     80 CA         -2.1284  -19.0092  -48.7860 C.3       14 UNK         0.1400 
     81 CB         -0.8867  -18.5953  -47.9920 C.3       14 UNK        -0.1800 
     82 C          -3.3762  -18.3353  -48.1984 C.2       14 UNK         0.5000 
     83 O          -3.7009  -17.2184  -48.6062 O.2       14 UNK        -0.5000 
     84 N          -4.0697  -19.0417  -47.2935 N.am      15 UNK        -0.5000 
     85 CA         -5.3053  -18.6126  -46.6339 C.3       15 UNK         0.1400 
     86 CB         -5.6755  -19.6339  -45.5481 C.3       15 UNK        -0.1800 
     87 C          -6.4903  -18.3896  -47.5936 C.2       15 UNK         0.5000 
     88 O          -7.4242  -17.6713  -47.2367 O.2       15 UNK        -0.5000 
     89 N          -6.4253  -18.9769  -48.7974 N.am      16 UNK        -0.5000 
     90 CA         -7.3810  -18.7523  -49.8820 C.3       16 UNK         0.1400 
     91 CB         -7.2017  -19.8528  -50.9368 C.3       16 UNK        -0.1800 
     92 C          -7.2350  -17.3653  -50.5392 C.2       16 UNK         0.5000 
     93 O          -8.1515  -16.9412  -51.2429 O.2       16 UNK        -0.5000 
     94 N          -6.0842  -16.7033  -50.3345 N.am      17 UNK        -0.5000 
     95 CA         -5.6763  -15.3716  -50.8039 C.3       17 UNK         0.1400 
     96 CB         -6.6114  -14.2803  -50.2514 C.3       17 UNK        -0.1800 
     97 C          -5.4900  -15.2278  -52.3291 C.2       17 UNK         0.5000 
     98 O          -4.6581  -14.4241  -52.7488 O.2       17 UNK        -0.5000 
     99 N          -6.2412  -15.9960  -53.1269 N.am      18 UNK        -0.5000 
    100 CA        -6.1712  -16.0316  -54.5854 C.3       18 UNK         0.1400 
    101 CB        -7.4068  -16.7617  -55.1394 C.3       18 UNK        -0.1800 
    102 C         -4.8616  -16.6682  -55.0835 C.2       18 UNK         0.5000 
    103 O         -4.0587  -15.9783  -55.7118 O.2       18 UNK        -0.5000 
    104 N         -4.6718  -17.9590  -54.7735 N.am      19 UNK        -0.5000 
    105 CA        -3.5023  -18.7734  -55.1194 C.3       19 UNK         0.1400 
    106 CB        -3.2342  -18.7956  -56.6401 C.3       19 UNK        -0.1800 
    107 C         -3.6853  -20.2138  -54.6216 C.2       19 UNK         0.5000 
    108 O         -2.7500  -20.7820  -54.0578 O.2       19 UNK        -0.5000 
    109 N         -4.8775  -20.7838  -54.8647 N.am      20 UNK        -0.5000 
    110 CA        -5.2541  -22.1780  -54.5978 C.3       20 UNK         0.1400 
    111 CB        -5.4703  -22.4073  -53.0870 C.3       20 UNK        -0.1800 
    112 C         -4.2663  -23.1672  -55.2526 C.2       20 UNK         0.5000 
    113 O         -4.2222  -23.2400  -56.4821 O.2       20 UNK        -0.5000 
    114 N         -3.4630  -23.8695  -54.4402 N.am      21 UNK        -0.5000 
    115 CA        -2.4270  -24.8119  -54.8762 C.3       21 UNK         0.1400 
    116 CB        -1.8192  -25.5023  -53.6465 C.3       21 UNK        -0.1800 
    117 C         -1.3128  -24.1752  -55.7322 C.2       21 UNK         0.5000 
    118 O         -0.6878  -24.8843  -56.5222 O.2       21 UNK        -0.5000 
    119 N         -1.0998  -22.8603  -55.5854 N.am      22 UNK        -0.5000 
    120 CA        -0.2146  -22.0664  -56.4519 C.3       22 UNK         0.1400 
    121 C         -0.8171  -21.7456  -57.8544 C.2       22 UNK         0.5000 
    122 N         -2.0764  -22.0567  -58.1433 N.am      22 UNK        -0.7600 
    123 O         -0.1192  -21.2077  -58.7095 O.2       22 UNK        -0.5000 
    124 C124        0.2790  -20.7770  -55.7469 C.3       23 UNK        -0.0398 
    125 S125        1.3667  -21.1212  -54.3220 S.3       23 UNK        -0.2404 
    126 C126        0.3393  -20.6418  -52.8969 C.3       23 UNK        -0.0205 
    127 H127       -3.0120  -17.0761  -51.3112 H         1 UNK         0.0600 
    128 H128       -2.6043  -16.5103  -52.9265 H         1 UNK         0.0600 
    129 H129       -1.5483  -17.6658  -52.1111 H         1 UNK         0.0600 
    130 H130       -1.8469  -16.1887  -49.4750 H         1 UNK         0.3000 
    131 H131       -0.9369  -13.5129  -49.7982 H         1 UNK         0.0600 
    132 H132        1.3496  -13.7636  -48.7570 H         1 UNK         0.0800 
    133 H133        1.2193  -14.2866  -50.3939 H         1 UNK         0.0800 
    134 H134        3.4246  -16.4677  -50.4180 H         1 UNK         0.0800 
    135 H135        1.9354  -16.2120  -51.2944 H         1 UNK         0.0800 
    136 H136        0.8337  -18.0520  -52.2468 H         1 UNK         0.1150 
    137 H137        1.7877  -22.0558  -51.0666 H         1 UNK         0.1150 
    138 H138        3.5736  -18.7279  -49.0250 H         1 UNK         0.1150 
    139 H139        3.1700  -22.4962  -49.1968 H         1 UNK         0.0800 
    140 H140        4.5738  -21.4685  -49.3454 H         1 UNK         0.0800 
    141 H141        1.1175  -20.9817  -47.9286 H         1 UNK         0.0800 
    142 H142        1.3755  -20.2378  -46.3803 H         1 UNK         0.0800 
    143 H143        1.4514  -23.2549  -46.8887 H         1 UNK         0.0600 
    144 H144        1.9613  -21.6953  -44.4777 H         1 UNK         0.3000 
    145 H145        1.4508  -23.5205  -42.1631 H         1 UNK         0.0600 
    146 H146        3.4232  -24.8540  -41.3800 H         1 UNK         0.0600 
    147 H147        2.3317  -25.7771  -42.3981 H         1 UNK         0.0600 
    148 H148        3.8479  -25.1882  -43.0590 H         1 UNK         0.0600 
    149 H149        2.7761  -21.7601  -41.9584 H         1 UNK         0.3000 
    150 H150        5.9761  -21.0781  -42.3591 H         1 UNK         0.0600 
    151 H151        5.8874  -20.5306  -44.7672 H         1 UNK         0.0600 
    152 H152        5.7656  -19.0626  -43.8121 H         1 UNK         0.0600 
    153 H153        4.3293  -19.7444  -44.5705 H         1 UNK         0.0600 
    154 H154        3.3480  -19.6485  -42.2361 H         1 UNK         0.3000 
    155 H155        3.9530  -18.8296  -38.7787 H         1 UNK         0.0600 
    156 H156        5.1854  -17.1219  -40.0898 H         1 UNK         0.0600 
    157 H157        3.5796  -16.5491  -39.6656 H         1 UNK         0.0600 
    158 H158        3.9134  -17.1042  -41.3050 H         1 UNK         0.0600 
    159 H159        1.7990  -18.1561  -40.5323 H         1 UNK         0.3000 
    160 H160       -0.4165  -20.5729  -38.9936 H         1 UNK         0.0600 
    161 H161       -0.1210  -17.5253  -39.1260 H         1 UNK         0.0600 
    162 H162       -0.1725  -18.4848  -37.6520 H         1 UNK         0.0600 
    163 H163       -1.5798  -18.4145  -38.7025 H         1 UNK         0.0600 
    164 H164       -0.7290  -18.7124  -41.1894 H         1 UNK         0.3000 
    165 H165       -0.3753  -21.1628  -43.7356 H         1 UNK         0.0600 
    166 H166       -2.7358  -21.4200  -43.2073 H         1 UNK         0.0600 
    167 H167       -2.5781  -20.1678  -44.4284 H         1 UNK         0.0600 
    168 H168       -2.8908  -19.7344  -42.7456 H         1 UNK         0.0600 
    169 H169       -0.9224  -18.3296  -43.7229 H         1 UNK         0.3000 
    170 H170        2.4526  -17.2781  -43.5913 H         1 UNK         0.0600 
    171 H171        2.0533  -16.2368  -45.7791 H         1 UNK         0.0600 
    172 H172        2.2993  -17.9622  -45.9997 H         1 UNK         0.0600 
    173 H173        0.6739  -17.2867  -46.0739 H         1 UNK         0.0600 
    174 H174       -0.1063  -16.0176  -44.1754 H         1 UNK         0.3000 
    175 H175       -0.8086  -15.2237  -40.7433 H         1 UNK         0.0600 
    176 H176        0.7391  -13.4392  -41.5775 H         1 UNK         0.0600 
    177 H177       -0.0448  -13.4828  -43.1528 H         1 UNK         0.0600 
    178 H178       -0.9419  -12.9529  -41.7296 H         1 UNK         0.0600 
    179 H179       -2.2273  -14.6650  -43.1451 H         1 UNK         0.3000 
    180 H180       -3.7000  -17.6843  -43.8213 H         1 UNK         0.0600 
    181 H181       -5.1077  -17.4093  -41.7772 H         1 UNK         0.0600 
    182 H182       -5.2834  -15.6916  -42.1170 H         1 UNK         0.0600 
    183 H183       -5.9644  -16.8908  -43.2188 H         1 UNK         0.0600 
    184 H184       -4.6658  -15.0972  -44.4337 H         1 UNK         0.3000 
    185 H185       -4.3675  -14.7817  -46.8657 H         1 UNK         0.0600 
    186 H186       -4.1391  -13.0291  -45.1648 H         1 UNK         0.0600 
    187 H187       -2.4163  -12.8751  -45.4627 H         1 UNK         0.0600 
    188 H188       -3.5775  -12.3837  -46.6940 H         1 UNK         0.0600 
    189 H189       -3.0096  -14.9936  -48.5400 H         1 UNK         0.3000 
    190 H190       -0.4418  -24.4368  -45.9753 H         1 UNK         0.3000 
    191 H191       -2.8436  -23.2721  -45.1817 H         1 UNK         0.0600 
    192 H192       -2.3325  -25.6856  -44.9611 H         1 UNK         0.0600 
    193 H193       -2.4080  -25.8937  -46.7110 H         1 UNK         0.0600 
    194 H194       -3.8579  -25.4742  -45.8058 H         1 UNK         0.0600 
    195 H195       -1.6406  -23.6503  -48.4584 H         1 UNK         0.3000 
    196 H196       -4.0522  -23.0009  -49.8836 H         1 UNK         0.0600 
    197 H197       -2.4163  -22.7049  -51.7905 H         1 UNK         0.0600 
    198 H198       -2.2011  -24.2293  -50.9382 H         1 UNK         0.0600 
    199 H199       -1.0865  -22.8918  -50.6585 H         1 UNK         0.0600 
    200 H200       -1.6851  -20.9925  -48.1809 H         1 UNK         0.3000 
    201 H201       -2.0033  -18.6458  -49.8062 H         1 UNK         0.0600 
    202 H202       -0.8054  -17.5098  -47.9525 H         1 UNK         0.0600 
    203 H203       -0.9259  -18.9406  -46.9597 H         1 UNK         0.0600 
    204 H204        0.0258  -18.9712  -48.4529 H         1 UNK         0.0600 
    205 H205       -3.7244  -19.9593  -47.0489 H         1 UNK         0.3000 
    206 H206       -5.1073  -17.6562  -46.1491 H         1 UNK         0.0600 
    207 H207       -4.8919  -19.7164  -44.7967 H         1 UNK         0.0600 
    208 H208       -6.5881  -19.3399  -45.0278 H         1 UNK         0.0600 
    209 H209       -5.8424  -20.6256  -45.9704 H         1 UNK         0.0600 
    210 H210       -5.6210  -19.5495  -49.0164 H         1 UNK         0.3000 
    211 H211       -8.3920  -18.8247  -49.4758 H         1 UNK         0.0600 
    212 H212       -7.9578  -19.7729  -51.7188 H         1 UNK         0.0600 
    213 H213       -7.2939  -20.8453  -50.4954 H         1 UNK         0.0600 
    214 H214       -6.2255  -19.7873  -51.4185 H         1 UNK         0.0600 
    215 H215       -5.3921  -17.1577  -49.7489 H         1 UNK         0.3000 
    216 H216       -4.6919  -15.2034  -50.3648 H         1 UNK         0.0600 
    217 H217       -6.2408  -13.2860  -50.5039 H         1 UNK         0.0600 
    218 H218       -6.6807  -14.3348  -49.1648 H         1 UNK         0.0600 
    219 H219       -7.6198  -14.3637  -50.6574 H         1 UNK         0.0600 
    220 H220       -6.9546  -16.5635  -52.6804 H         1 UNK         0.3000 
    221 H221       -6.2003  -15.0030  -54.9517 H         1 UNK         0.0600 
    222 H222       -7.4969  -17.7744  -54.7450 H         1 UNK         0.0600 
    223 H223       -8.3220  -16.2262  -54.8862 H         1 UNK         0.0600 
    224 H224       -7.3639  -16.8330  -56.2270 H         1 UNK         0.0600 
    225 H225       -5.3630  -18.4198  -54.1986 H         1 UNK         0.3000 
    226 H226       -2.6307  -18.3549  -54.6130 H         1 UNK         0.0600 
    227 H227       -2.4572  -19.5161  -56.8903 H         1 UNK         0.0600 
    228 H228       -4.1264  -19.0690  -57.2042 H         1 UNK         0.0600 
    229 H229       -2.8859  -17.8319  -57.0086 H         1 UNK         0.0600 
    230 H230       -5.5500  -20.2560  -55.4024 H         1 UNK         0.3000 
    231 H231       -6.2124  -22.3439  -55.0922 H         1 UNK         0.0600 
    232 H232       -6.3139  -21.8186  -52.7318 H         1 UNK         0.0600 
    233 H233       -4.6004  -22.1241  -52.4967 H         1 UNK         0.0600 
    234 H234       -5.7029  -23.4505  -52.8691 H         1 UNK         0.0600 
    235 H235       -3.5459  -23.7199  -53.4464 H         1 UNK         0.3000 
    236 H236       -2.9160  -25.5724  -55.4884 H         1 UNK         0.0600 
    237 H237       -2.5883  -25.9478  -53.0153 H         1 UNK         0.0600 
    238 H238       -1.1430  -26.3034  -53.9477 H         1 UNK         0.0600 
    239 H239       -1.2413  -24.8035  -53.0415 H         1 UNK         0.0600 
    240 H240       -1.6639  -22.3379  -54.9242 H         1 UNK         0.3000 
    241 H241        0.6702  -22.6715  -56.6591 H         1 UNK         0.0600 
    242 H242       -2.6840  -22.5127  -57.4706 H         1 UNK         0.3800 
    243 H243       -2.4321  -21.8456  -59.0619 H         1 UNK         0.3800 
    244 H244        0.8646  -20.1664  -56.4364 H         1 UNK         0.0800 
    245 H245       -0.5619  -20.1539  -55.4454 H         1 UNK         0.0800 
    246 H246       -0.2397  -21.5021  -52.5604 H         1 UNK         0.0800 
    247 H247       -0.3834  -19.8788  -53.1875 H         1 UNK         0.0800 
@<TRIPOS>BOND
     1    1    2 1    
     2    1  127 1    
     3    1  128 1    
     4    1  129 1    
     5    2    3 2    
     6    2    4 am   BACKBONE|DICT|INTERRES
     7    4    5 1    
     8    4  130 1    
     9    5    6 1    
    10    5   65 1    
    11    5  131 1    
    12    6    7 1    
    13    6  132 1    
    14    6  133 1    
    15    7    8 1    
    16    8    9 1    
    17    8  134 1    
    18    8  135 1    
    19    9   10 ar   
    20    9   14 ar   
    21   10   11 ar   
    22   10  136 1    
    23   11   12 ar   
    24   11  126 1    
    25   12   13 ar   
    26   12  137 1    
    27   13   14 ar   
    28   13   15 1    
    29   14  138 1    
    30   15   16 1    
    31   15  139 1    
    32   15  140 1    
    33   16   17 1    
    34   17   18 1    
    35   17  141 1    
    36   17  142 1    
    37   18   19 1    
    38   18   67 1    
    39   18  143 1    
    40   19   20 am   BACKBONE|DICT|INTERRES
    41   19  144 1    
    42   20   21 2    
    43   20   22 1    
    44   22   23 1    
    45   22   24 1    
    46   22  145 1    
    47   23  146 1    
    48   23  147 1    
    49   23  148 1    
    50   24   25 am   BACKBONE|DICT|INTERRES
    51   24  149 1    
    52   25   26 2    
    53   25   27 1    
    54   27   28 1    
    55   27   29 1    
    56   27  150 1    
    57   28  151 1    
    58   28  152 1    
    59   28  153 1    
    60   29   30 am   BACKBONE|DICT|INTERRES
    61   29  154 1    
    62   30   31 2    
    63   30   32 1    
    64   32   33 1    
    65   32   34 1    
    66   32  155 1    
    67   33  156 1    
    68   33  157 1    
    69   33  158 1    
    70   34   35 am   BACKBONE|DICT|INTERRES
    71   34  159 1    
    72   35   36 2    
    73   35   37 1    
    74   37   38 1    
    75   37   39 1    
    76   37  160 1    
    77   38  161 1    
    78   38  162 1    
    79   38  163 1    
    80   39   40 am   BACKBONE|DICT|INTERRES
    81   39  164 1    
    82   40   41 2    
    83   40   42 1    
    84   42   43 1    
    85   42   44 1    
    86   42  165 1    
    87   43  166 1    
    88   43  167 1    
    89   43  168 1    
    90   44   45 am   BACKBONE|DICT|INTERRES
    91   44  169 1    
    92   45   46 2    
    93   45   47 1    
    94   47   48 1    
    95   47   49 1    
    96   47  170 1    
    97   48  171 1    
    98   48  172 1    
    99   48  173 1    
   100   49   50 am   BACKBONE|DICT|INTERRES
   101   49  174 1    
   102   50   51 2    
   103   50   52 1    
   104   52   53 1    
   105   52   54 1    
   106   52  175 1    
   107   53  176 1    
   108   53  177 1    
   109   53  178 1    
   110   54   55 am   BACKBONE|DICT|INTERRES
   111   54  179 1    
   112   55   56 2    
   113   55   57 1    
   114   57   58 1    
   115   57   59 1    
   116   57  180 1    
   117   58  181 1    
   118   58  182 1    
   119   58  183 1    
   120   59   60 am   BACKBONE|DICT|INTERRES
   121   59  184 1    
   122   60   61 2    
   123   60   62 1    
   124   62   63 1    
   125   62   64 1    
   126   62  185 1    
   127   63  186 1    
   128   63  187 1    
   129   63  188 1    
   130   64   65 am   BACKBONE|DICT|INTERRES
   131   64  189 1    
   132   65   66 2    
   133   67   68 2    
   134   67   69 am   BACKBONE|DICT|INTERRES
   135   69   70 1    
   136   69  190 1    
   137   70   71 1    
   138   70   72 1    
   139   70  191 1    
   140   71  192 1    
   141   71  193 1    
   142   71  194 1    
   143   72   73 2    
   144   72   74 am   BACKBONE|DICT|INTERRES
   145   74   75 1    
   146   74  195 1    
   147   75   76 1    
   148   75   77 1    
   149   75  196 1    
   150   76  197 1    
   151   76  198 1    
   152   76  199 1    
   153   77   78 2    
   154   77   79 am   BACKBONE|DICT|INTERRES
   155   79   80 1    
   156   79  200 1    
   157   80   81 1    
   158   80   82 1    
   159   80  201 1    
   160   81  202 1    
   161   81  203 1    
   162   81  204 1    
   163   82   83 2    
   164   82   84 am   BACKBONE|DICT|INTERRES
   165   84   85 1    
   166   84  205 1    
   167   85   86 1    
   168   85   87 1    
   169   85  206 1    
   170   86  207 1    
   171   86  208 1    
   172   86  209 1    
   173   87   88 2    
   174   87   89 am   BACKBONE|DICT|INTERRES
   175   89   90 1    
   176   89  210 1    
   177   90   91 1    
   178   90   92 1    
   179   90  211 1    
   180   91  212 1    
   181   91  213 1    
   182   91  214 1    
   183   92   93 2    
   184   92   94 am   BACKBONE|DICT|INTERRES
   185   94   95 1    
   186   94  215 1    
   187   95   96 1    
   188   95   97 1    
   189   95  216 1    
   190   96  217 1    
   191   96  218 1    
   192   96  219 1    
   193   97   98 2    
   194   97   99 am   BACKBONE|DICT|INTERRES
   195   99  100 1    
   196   99  220 1    
   197  100  101 1    
   198  100  102 1    
   199  100  221 1    
   200  101  222 1    
   201  101  223 1    
   202  101  224 1    
   203  102  103 2    
   204  102  104 am   BACKBONE|DICT|INTERRES
   205  104  105 1    
   206  104  225 1    
   207  105  106 1    
   208  105  107 1    
   209  105  226 1    
   210  106  227 1    
   211  106  228 1    
   212  106  229 1    
   213  107  108 2    
   214  107  109 am   BACKBONE|DICT|INTERRES
   215  109  110 1    
   216  109  230 1    
   217  110  111 1    
   218  110  112 1    
   219  110  231 1    
   220  111  232 1    
   221  111  233 1    
   222  111  234 1    
   223  112  113 2    
   224  112  114 am   BACKBONE|DICT|INTERRES
   225  114  115 1    
   226  114  235 1    
   227  115  116 1    
   228  115  117 1    
   229  115  236 1    
   230  116  237 1    
   231  116  238 1    
   232  116  239 1    
   233  117  118 2    
   234  117  119 am   BACKBONE|DICT|INTERRES
   235  119  120 1    
   236  119  240 1    
   237  120  121 1    
   238  120  124 1    
   239  120  241 1    
   240  121  122 am   BACKBONE|DICT|INTERRES
   241  121  123 2    
   242  122  242 1    
   243  122  243 1    
   244  124  125 1    
   245  124  244 1    
   246  124  245 1    
   247  125  126 1    
   248  126  246 1    
   249  126  247 1    
@<TRIPOS>SUBSTRUCTURE
     1 UNK         1 GROUP             0       ****    0 ROOT    
