@<TRIPOS>MOLECULE
3R540
247   249    1
SMALL
USER_CHARGES


@<TRIPOS>ATOM
      1 CA         -3.9977  -11.7695  -46.2631 C.3       0 UNK        -0.1800 
      2 C          -2.9763  -12.8917  -46.1565 C.2       0 UNK         0.5000 
      3 O          -2.0561  -12.7996  -45.3443 O.2       0 UNK        -0.5000 
      4 N          -3.1288  -13.9422  -46.9724 N.am      1 UNK        -0.5000 
      5 CA         -2.2700  -15.1303  -47.0082 C.3       1 UNK         0.1400 
      6 C6         -2.6646  -16.0511  -48.1892 C.3       23 UNK        -0.0398 
      7 S7         -1.5578  -17.4747  -48.4774 S.3       23 UNK        -0.2404 
      8 C8         -0.0757  -16.6529  -49.1432 C.3       23 UNK        -0.0205 
      9 C9          0.8297  -17.6510  -49.8474 C.ar      23 UNK        -0.0193 
     10 C10         0.9133  -17.6717  -51.2415 C.ar      23 UNK        -0.1150 
     11 C11         1.7188  -18.6119  -51.8911 C.ar      23 UNK        -0.0193 
     12 C12         2.4463  -19.5361  -51.1348 C.ar      23 UNK        -0.1150 
     13 C13         2.3848  -19.5160  -49.7387 C.ar      23 UNK        -0.0193 
     14 C14         1.5812  -18.5638  -49.1042 C.ar      23 UNK        -0.1150 
     15 C15         3.2016  -20.5091  -48.9210 C.3       23 UNK        -0.0205 
     16 S16         2.3033  -22.0606  -48.5934 S.3       23 UNK        -0.2404 
     17 C17         1.0060  -21.4954  -47.4459 C.3       23 UNK        -0.0398 
     18 CA          0.0368  -22.6290  -47.0474 C.3       11 UNK         0.1400 
     19 N           0.6748  -23.6758  -46.2445 N.am      11 UNK        -0.5000 
     20 C           0.1299  -24.8760  -46.0006 C.2       10 UNK         0.5000 
     21 O          -0.9612  -25.2355  -46.4432 O.2       10 UNK        -0.5000 
     22 CA          0.9123  -25.8066  -45.0565 C.3       10 UNK         0.1400 
     23 CB          2.1029  -26.4488  -45.7844 C.3       10 UNK        -0.1800 
     24 N           1.3885  -25.1110  -43.8600 N.am      10 UNK        -0.5000 
     25 C           0.5881  -24.5730  -42.9286 C.2       9 UNK         0.5000 
     26 O          -0.6385  -24.6555  -42.9551 O.2       9 UNK        -0.5000 
     27 CA          1.2627  -23.7717  -41.7995 C.3       9 UNK         0.1400 
     28 CB          1.5571  -24.6830  -40.5989 C.3       9 UNK        -0.1800 
     29 N           2.4954  -23.0885  -42.2008 N.am      9 UNK        -0.5000 
     30 C           2.5944  -22.1706  -43.1716 C.2       8 UNK         0.5000 
     31 O           1.6576  -21.8355  -43.9028 O.2       8 UNK        -0.5000 
     32 CA          4.0014  -21.5858  -43.3938 C.3       8 UNK         0.1400 
     33 CB          4.8244  -22.5281  -44.2869 C.3       8 UNK        -0.1800 
     34 N           3.9738  -20.2650  -44.0188 N.am      8 UNK        -0.5000 
     35 C           3.4686  -19.1525  -43.4719 C.2       7 UNK         0.5000 
     36 O           3.0121  -19.0821  -42.3273 O.2       7 UNK        -0.5000 
     37 CA          3.4766  -17.9138  -44.3770 C.3       7 UNK         0.1400 
     38 CB          2.4948  -18.0862  -45.5492 C.3       7 UNK        -0.1800 
     39 N           3.1012  -16.7272  -43.6182 N.am      7 UNK        -0.5000 
     40 C           3.4240  -15.4768  -43.9589 C.2       6 UNK         0.5000 
     41 O           4.2196  -15.1919  -44.8582 O.2       6 UNK        -0.5000 
     42 CA          2.7259  -14.3537  -43.1683 C.3       6 UNK         0.1400 
     43 CB          3.6155  -13.8633  -42.0167 C.3       6 UNK        -0.1800 
     44 N           2.3618  -13.2117  -44.0102 N.am      6 UNK        -0.5000 
     45 C           1.6073  -13.2576  -45.1173 C.2       5 UNK         0.5000 
     46 O           1.0820  -14.2829  -45.5578 O.2       5 UNK        -0.5000 
     47 CA          1.3284  -11.9038  -45.7848 C.3       5 UNK         0.1400 
     48 CB          0.8491  -12.0463  -47.2407 C.3       5 UNK        -0.1800 
     49 N           0.2864  -11.2549  -45.0014 N.am      5 UNK        -0.5000 
     50 C           0.4817  -10.3004  -44.0849 C.2       4 UNK         0.5000 
     51 O           1.5630   -9.7432  -43.8918 O.2       4 UNK        -0.5000 
     52 CA         -0.7313   -9.9435  -43.2047 C.3       4 UNK         0.1400 
     53 CB         -1.6339   -8.9229  -43.9144 C.3       4 UNK        -0.1800 
     54 N          -1.5277  -11.1185  -42.8418 N.am      4 UNK        -0.5000 
     55 C          -1.1089  -12.1191  -42.0548 C.2       3 UNK         0.5000 
     56 O          -0.0120  -12.1354  -41.4948 O.2       3 UNK        -0.5000 
     57 CA         -2.0530  -13.3183  -41.8829 C.3       3 UNK         0.1400 
     58 CB         -3.5430  -12.9820  -42.0914 C.3       3 UNK        -0.1800 
     59 N          -1.6486  -14.3393  -42.8418 N.am      3 UNK        -0.5000 
     60 C          -1.3381  -15.6070  -42.5458 C.2       2 UNK         0.5000 
     61 O          -1.4135  -16.0759  -41.4092 O.2       2 UNK        -0.5000 
     62 CA         -0.8181  -16.4944  -43.6979 C.3       2 UNK         0.1400 
     63 CB         -1.2488  -17.9675  -43.5687 C.3       2 UNK        -0.1800 
     64 N          -1.0989  -15.9608  -45.0324 N.am      2 UNK        -0.5000 
     65 C          -2.2840  -15.8617  -45.6489 C.2       1 UNK         0.5000 
     66 O          -3.3511  -16.2744  -45.1899 O.2       1 UNK        -0.5000 
     67 C          -1.1946  -22.0420  -46.3362 C.2       11 UNK         0.5000 
     68 O          -2.1771  -21.7311  -47.0094 O.2       11 UNK        -0.5000 
     69 N          -1.1291  -21.9248  -45.0019 N.am      12 UNK        -0.5000 
     70 CA         -2.2310  -21.4779  -44.1501 C.3       12 UNK         0.1400 
     71 CB         -1.7252  -21.2891  -42.7109 C.3       12 UNK        -0.1800 
     72 C          -3.4239  -22.4499  -44.1822 C.2       12 UNK         0.5000 
     73 O          -4.5624  -22.0075  -44.3340 O.2       12 UNK        -0.5000 
     74 N          -3.1362  -23.7543  -44.0645 N.am      13 UNK        -0.5000 
     75 CA         -4.1190  -24.8359  -44.1248 C.3       13 UNK         0.1400 
     76 CB         -3.4608  -26.1520  -43.6834 C.3       13 UNK        -0.1800 
     77 C          -4.7503  -24.9867  -45.5191 C.2       13 UNK         0.5000 
     78 O          -5.9601  -25.1961  -45.6167 O.2       13 UNK        -0.5000 
     79 N          -3.9268  -24.8646  -46.5697 N.am      14 UNK        -0.5000 
     80 CA         -4.3662  -24.9090  -47.9644 C.3       14 UNK         0.1400 
     81 CB         -3.1416  -25.0975  -48.8741 C.3       14 UNK        -0.1800 
     82 C          -5.1481  -23.6553  -48.3969 C.2       14 UNK         0.5000 
     83 O          -5.9867  -23.7580  -49.2912 O.2       14 UNK        -0.5000 
     84 N          -4.8301  -22.5049  -47.7817 N.am      15 UNK        -0.5000 
     85 CA         -5.2062  -21.1446  -48.1812 C.3       15 UNK         0.1400 
     86 CB         -6.7267  -20.9174  -48.0549 C.3       15 UNK        -0.1800 
     87 C          -4.6520  -20.8376  -49.5859 C.2       15 UNK         0.5000 
     88 O          -5.4136  -20.5043  -50.4935 O.2       15 UNK        -0.5000 
     89 N          -3.3327  -21.0333  -49.7361 N.am      16 UNK        -0.5000 
     90 CA         -2.5934  -21.1651  -50.9979 C.3       16 UNK         0.1400 
     91 CB         -1.0850  -21.1536  -50.7067 C.3       16 UNK        -0.1800 
     92 C          -2.9346  -20.1472  -52.1012 C.2       16 UNK         0.5000 
     93 O          -3.1519  -20.5502  -53.2457 O.2       16 UNK        -0.5000 
     94 N          -3.0046  -18.8609  -51.7352 N.am      17 UNK        -0.5000 
     95 CA         -3.3180  -17.7658  -52.6547 C.3       17 UNK         0.1400 
     96 CB         -2.9970  -16.4274  -51.9763 C.3       17 UNK        -0.1800 
     97 C          -4.7794  -17.7740  -53.1418 C.2       17 UNK         0.5000 
     98 O          -5.0338  -17.4256  -54.2948 O.2       17 UNK        -0.5000 
     99 N          -5.7097  -18.1725  -52.2638 N.am      18 UNK        -0.5000 
    100 CA        -7.1413  -18.2653  -52.5569 C.3       18 UNK         0.1400 
    101 CB        -7.9371  -18.1880  -51.2447 C.3       18 UNK        -0.1800 
    102 C         -7.4792  -19.5537  -53.3255 C.2       18 UNK         0.5000 
    103 O         -8.3263  -19.5301  -54.2188 O.2       18 UNK        -0.5000 
    104 N         -6.7851  -20.6462  -52.9817 N.am      19 UNK        -0.5000 
    105 CA        -6.8675  -21.9488  -53.6425 C.3       19 UNK         0.1400 
    106 CB        -6.2021  -22.9954  -52.7362 C.3       19 UNK        -0.1800 
    107 C         -6.2197  -21.9704  -55.0410 C.2       19 UNK         0.5000 
    108 O         -6.4852  -22.8957  -55.8092 O.2       19 UNK        -0.5000 
    109 N         -5.3731  -20.9705  -55.3304 N.am      20 UNK        -0.5000 
    110 CA        -4.5416  -20.8196  -56.5278 C.3       20 UNK         0.1400 
    111 CB        -5.4046  -20.6507  -57.7954 C.3       20 UNK        -0.1800 
    112 C         -3.4864  -21.9390  -56.6477 C.2       20 UNK         0.5000 
    113 O         -3.1672  -22.3850  -57.7514 O.2       20 UNK        -0.5000 
    114 N         -2.9427  -22.3565  -55.4958 N.am      21 UNK        -0.5000 
    115 CA        -1.8863  -23.3648  -55.3761 C.3       21 UNK         0.1400 
    116 CB        -1.8263  -23.8414  -53.9164 C.3       21 UNK        -0.1800 
    117 C         -0.5087  -22.8395  -55.8284 C.2       21 UNK         0.5000 
    118 O          0.3952  -23.6348  -56.0863 O.2       21 UNK        -0.5000 
    119 N         -0.3817  -21.5106  -55.9087 N.am      22 UNK        -0.5000 
    120 CA         0.8206  -20.7628  -56.3011 C.3       22 UNK         0.1400 
    121 C          1.2213  -20.8975  -57.8003 C.2       22 UNK         0.5000 
    122 N          0.3773  -21.4361  -58.6728 N.am      22 UNK        -0.7600 
    123 O          2.3221  -20.5060  -58.1780 O.2       22 UNK        -0.5000 
    124 C124        0.6973  -19.2677  -55.9064 C.3       23 UNK        -0.0398 
    125 S125        0.2094  -19.0345  -54.1622 S.3       23 UNK        -0.2404 
    126 C126        1.8089  -18.6206  -53.4083 C.3       23 UNK        -0.0205 
    127 H127       -4.7431  -11.9711  -47.0326 H         1 UNK         0.0600 
    128 H128       -3.4981  -10.8328  -46.5102 H         1 UNK         0.0600 
    129 H129       -4.5153  -11.6407  -45.3128 H         1 UNK         0.0600 
    130 H130       -3.9247  -13.9615  -47.5932 H         1 UNK         0.3000 
    131 H131       -1.2558  -14.7715  -47.1942 H         1 UNK         0.0600 
    132 H132       -2.6970  -15.4644  -49.1074 H         1 UNK         0.0800 
    133 H133       -3.6756  -16.4366  -48.0462 H         1 UNK         0.0800 
    134 H134        0.4717  -16.1746  -48.3293 H         1 UNK         0.0800 
    135 H135       -0.3686  -15.8573  -49.8295 H         1 UNK         0.0800 
    136 H136        0.3442  -16.9650  -51.8282 H         1 UNK         0.1150 
    137 H137        3.0670  -20.2690  -51.6308 H         1 UNK         0.1150 
    138 H138        1.5132  -18.5442  -48.0285 H         1 UNK         0.1150 
    139 H139        3.5182  -20.0611  -47.9800 H         1 UNK         0.0800 
    140 H140        4.1209  -20.7505  -49.4566 H         1 UNK         0.0800 
    141 H141        0.4493  -20.6993  -47.9409 H         1 UNK         0.0800 
    142 H142        1.4718  -21.0527  -46.5641 H         1 UNK         0.0800 
    143 H143       -0.3255  -23.0970  -47.9650 H         1 UNK         0.0600 
    144 H144        1.5477  -23.4324  -45.7999 H         1 UNK         0.3000 
    145 H145        0.2360  -26.6030  -44.7382 H         1 UNK         0.0600 
    146 H146        1.7722  -26.9820  -46.6768 H         1 UNK         0.0600 
    147 H147        2.6119  -27.1709  -45.1458 H         1 UNK         0.0600 
    148 H148        2.8352  -25.7043  -46.0994 H         1 UNK         0.0600 
    149 H149        2.3861  -24.9986  -43.7597 H         1 UNK         0.3000 
    150 H150        0.5576  -23.0043  -41.4763 H         1 UNK         0.0600 
    151 H151        2.2889  -25.4527  -40.8472 H         1 UNK         0.0600 
    152 H152        0.6512  -25.1881  -40.2605 H         1 UNK         0.0600 
    153 H153        1.9426  -24.1118  -39.7542 H         1 UNK         0.0600 
    154 H154        3.3210  -23.3179  -41.6664 H         1 UNK         0.3000 
    155 H155        4.4965  -21.4908  -42.4251 H         1 UNK         0.0600 
    156 H156        4.3715  -22.6463  -45.2726 H         1 UNK         0.0600 
    157 H157        4.9078  -23.5211  -43.8433 H         1 UNK         0.0600 
    158 H158        5.8386  -22.1534  -44.4270 H         1 UNK         0.0600 
    159 H159        4.3093  -20.2246  -44.9692 H         1 UNK         0.3000 
    160 H160        4.4912  -17.7945  -44.7633 H         1 UNK         0.0600 
    161 H161        1.4678  -18.2003  -45.2016 H         1 UNK         0.0600 
    162 H162        2.7404  -18.9704  -46.1333 H         1 UNK         0.0600 
    163 H163        2.5263  -17.2302  -46.2238 H         1 UNK         0.0600 
    164 H164        2.5395  -16.9160  -42.7982 H         1 UNK         0.3000 
    165 H165        1.8006  -14.7465  -42.7431 H         1 UNK         0.0600 
    166 H166        3.8847  -14.6855  -41.3523 H         1 UNK         0.0600 
    167 H167        4.5422  -13.4214  -42.3853 H         1 UNK         0.0600 
    168 H168        3.1014  -13.1145  -41.4135 H         1 UNK         0.0600 
    169 H169        2.7181  -12.3139  -43.7158 H         1 UNK         0.3000 
    170 H170        2.2492  -11.3169  -45.7842 H         1 UNK         0.0600 
    171 H171       -0.0827  -12.6070  -47.3122 H         1 UNK         0.0600 
    172 H172        1.5928  -12.5661  -47.8457 H         1 UNK         0.0600 
    173 H173        0.6832  -11.0694  -47.6948 H         1 UNK         0.0600 
    174 H174       -0.6275  -11.7011  -45.0509 H         1 UNK         0.3000 
    175 H175       -0.3559   -9.4901  -42.2849 H         1 UNK         0.0600 
    176 H176       -1.0733   -8.0265  -44.1826 H         1 UNK         0.0600 
    177 H177       -2.0597   -9.3310  -44.8320 H         1 UNK         0.0600 
    178 H178       -2.4572   -8.6104  -43.2719 H         1 UNK         0.0600 
    179 H179       -2.4260  -11.2105  -43.2928 H         1 UNK         0.3000 
    180 H180       -1.9261  -13.6722  -40.8578 H         1 UNK         0.0600 
    181 H181       -3.7654  -12.7019  -43.1206 H         1 UNK         0.0600 
    182 H182       -3.8557  -12.1616  -41.4441 H         1 UNK         0.0600 
    183 H183       -4.1682  -13.8410  -41.8471 H         1 UNK         0.0600 
    184 H184       -1.5583  -14.0224  -43.8021 H         1 UNK         0.3000 
    185 H185        0.2673  -16.4754  -43.6093 H         1 UNK         0.0600 
    186 H186       -0.8617  -18.3978  -42.6451 H         1 UNK         0.0600 
    187 H187       -2.3332  -18.0759  -43.5478 H         1 UNK         0.0600 
    188 H188       -0.8644  -18.5680  -44.3932 H         1 UNK         0.0600 
    189 H189       -0.3008  -15.4940  -45.4612 H         1 UNK         0.3000 
    190 H190       -0.2537  -22.1480  -44.5399 H         1 UNK         0.3000 
    191 H191       -2.5681  -20.5109  -44.5287 H         1 UNK         0.0600 
    192 H192       -0.7800  -20.7475  -42.6848 H         1 UNK         0.0600 
    193 H193       -2.4466  -20.7233  -42.1207 H         1 UNK         0.0600 
    194 H194       -1.5714  -22.2416  -42.2052 H         1 UNK         0.0600 
    195 H195       -2.1746  -24.0303  -43.8826 H         1 UNK         0.3000 
    196 H196       -4.9197  -24.6031  -43.4197 H         1 UNK         0.0600 
    197 H197       -4.1729  -26.9774  -43.7169 H         1 UNK         0.0600 
    198 H198       -3.0911  -26.0828  -42.6602 H         1 UNK         0.0600 
    199 H199       -2.6189  -26.4157  -44.3250 H         1 UNK         0.0600 
    200 H200       -2.9299  -24.7625  -46.4074 H         1 UNK         0.3000 
    201 H201       -5.0224  -25.7725  -48.0920 H         1 UNK         0.0600 
    202 H202       -3.4373  -25.1575  -49.9224 H         1 UNK         0.0600 
    203 H203       -2.6089  -26.0175  -48.6333 H         1 UNK         0.0600 
    204 H204       -2.4394  -24.2685  -48.7786 H         1 UNK         0.0600 
    205 H205       -4.0882  -22.5431  -47.0927 H         1 UNK         0.3000 
    206 H206       -4.7089  -20.4650  -47.4875 H         1 UNK         0.0600 
    207 H207       -7.0785  -21.1650  -47.0534 H         1 UNK         0.0600 
    208 H208       -6.9771  -19.8723  -48.2394 H         1 UNK         0.0600 
    209 H209       -7.2931  -21.5172  -48.7678 H         1 UNK         0.0600 
    210 H210       -2.8171  -21.2791  -48.8975 H         1 UNK         0.3000 
    211 H211       -2.8483  -22.1496  -51.3936 H         1 UNK         0.0600 
    212 H212       -0.5022  -21.2144  -51.6272 H         1 UNK         0.0600 
    213 H213       -0.7955  -22.0008  -50.0862 H         1 UNK         0.0600 
    214 H214       -0.7832  -20.2409  -50.1919 H         1 UNK         0.0600 
    215 H215       -2.8125  -18.6194  -50.7736 H         1 UNK         0.3000 
    216 H216       -2.6736  -17.8663  -53.5308 H         1 UNK         0.0600 
    217 H217       -1.9601  -16.3888  -51.6461 H         1 UNK         0.0600 
    218 H218       -3.6367  -16.2577  -51.1103 H         1 UNK         0.0600 
    219 H219       -3.1498  -15.5952  -52.6645 H         1 UNK         0.0600 
    220 H220       -5.4086  -18.5444  -51.3718 H         1 UNK         0.3000 
    221 H221       -7.4314  -17.4155  -53.1787 H         1 UNK         0.0600 
    222 H222       -7.7036  -19.0197  -50.5794 H         1 UNK         0.0600 
    223 H223       -7.7269  -17.2616  -50.7102 H         1 UNK         0.0600 
    224 H224       -9.0101  -18.2157  -51.4386 H         1 UNK         0.0600 
    225 H225       -6.1574  -20.5826  -52.1826 H         1 UNK         0.3000 
    226 H226       -7.9207  -22.2109  -53.7605 H         1 UNK         0.0600 
    227 H227       -6.7001  -23.0440  -51.7682 H         1 UNK         0.0600 
    228 H228       -6.2529  -23.9913  -53.1780 H         1 UNK         0.0600 
    229 H229       -5.1505  -22.7654  -52.5599 H         1 UNK         0.0600 
    230 H230       -5.2027  -20.2934  -54.5993 H         1 UNK         0.3000 
    231 H231       -3.9824  -19.8933  -56.3878 H         1 UNK         0.0600 
    232 H232       -5.9383  -21.5662  -58.0511 H         1 UNK         0.0600 
    233 H233       -4.7869  -20.3844  -58.6538 H         1 UNK         0.0600 
    234 H234       -6.1406  -19.8569  -57.6673 H         1 UNK         0.0600 
    235 H235       -3.2107  -21.8769  -54.6403 H         1 UNK         0.3000 
    236 H236       -2.1453  -24.2158  -56.0092 H         1 UNK         0.0600 
    237 H237       -1.5178  -23.0379  -53.2474 H         1 UNK         0.0600 
    238 H238       -2.7952  -24.2094  -53.5781 H         1 UNK         0.0600 
    239 H239       -1.1098  -24.6555  -53.8012 H         1 UNK         0.0600 
    240 H240       -1.1747  -20.9489  -55.6374 H         1 UNK         0.3000 
    241 H241        1.6511  -21.1845  -55.7319 H         1 UNK         0.0600 
    242 H242        0.6492  -21.5207  -59.6398 H         1 UNK         0.3800 
    243 H243       -0.5282  -21.7668  -58.3757 H         1 UNK         0.3800 
    244 H244        1.6346  -18.7406  -56.0935 H         1 UNK         0.0800 
    245 H245       -0.0535  -18.7754  -56.5269 H         1 UNK         0.0800 
    246 H246        2.5601  -19.3377  -53.7432 H         1 UNK         0.0800 
    247 H247        2.1332  -17.6395  -53.7580 H         1 UNK         0.0800 
@<TRIPOS>BOND
     1    1    2 1    
     2    1  127 1    
     3    1  128 1    
     4    1  129 1    
     5    2    3 2    
     6    2    4 am   BACKBONE|DICT|INTERRES
     7    4    5 1    
     8    4  130 1    
     9    5    6 1    
    10    5   65 1    
    11    5  131 1    
    12    6    7 1    
    13    6  132 1    
    14    6  133 1    
    15    7    8 1    
    16    8    9 1    
    17    8  134 1    
    18    8  135 1    
    19    9   10 ar   
    20    9   14 ar   
    21   10   11 ar   
    22   10  136 1    
    23   11   12 ar   
    24   11  126 1    
    25   12   13 ar   
    26   12  137 1    
    27   13   14 ar   
    28   13   15 1    
    29   14  138 1    
    30   15   16 1    
    31   15  139 1    
    32   15  140 1    
    33   16   17 1    
    34   17   18 1    
    35   17  141 1    
    36   17  142 1    
    37   18   19 1    
    38   18   67 1    
    39   18  143 1    
    40   19   20 am   BACKBONE|DICT|INTERRES
    41   19  144 1    
    42   20   21 2    
    43   20   22 1    
    44   22   23 1    
    45   22   24 1    
    46   22  145 1    
    47   23  146 1    
    48   23  147 1    
    49   23  148 1    
    50   24   25 am   BACKBONE|DICT|INTERRES
    51   24  149 1    
    52   25   26 2    
    53   25   27 1    
    54   27   28 1    
    55   27   29 1    
    56   27  150 1    
    57   28  151 1    
    58   28  152 1    
    59   28  153 1    
    60   29   30 am   BACKBONE|DICT|INTERRES
    61   29  154 1    
    62   30   31 2    
    63   30   32 1    
    64   32   33 1    
    65   32   34 1    
    66   32  155 1    
    67   33  156 1    
    68   33  157 1    
    69   33  158 1    
    70   34   35 am   BACKBONE|DICT|INTERRES
    71   34  159 1    
    72   35   36 2    
    73   35   37 1    
    74   37   38 1    
    75   37   39 1    
    76   37  160 1    
    77   38  161 1    
    78   38  162 1    
    79   38  163 1    
    80   39   40 am   BACKBONE|DICT|INTERRES
    81   39  164 1    
    82   40   41 2    
    83   40   42 1    
    84   42   43 1    
    85   42   44 1    
    86   42  165 1    
    87   43  166 1    
    88   43  167 1    
    89   43  168 1    
    90   44   45 am   BACKBONE|DICT|INTERRES
    91   44  169 1    
    92   45   46 2    
    93   45   47 1    
    94   47   48 1    
    95   47   49 1    
    96   47  170 1    
    97   48  171 1    
    98   48  172 1    
    99   48  173 1    
   100   49   50 am   BACKBONE|DICT|INTERRES
   101   49  174 1    
   102   50   51 2    
   103   50   52 1    
   104   52   53 1    
   105   52   54 1    
   106   52  175 1    
   107   53  176 1    
   108   53  177 1    
   109   53  178 1    
   110   54   55 am   BACKBONE|DICT|INTERRES
   111   54  179 1    
   112   55   56 2    
   113   55   57 1    
   114   57   58 1    
   115   57   59 1    
   116   57  180 1    
   117   58  181 1    
   118   58  182 1    
   119   58  183 1    
   120   59   60 am   BACKBONE|DICT|INTERRES
   121   59  184 1    
   122   60   61 2    
   123   60   62 1    
   124   62   63 1    
   125   62   64 1    
   126   62  185 1    
   127   63  186 1    
   128   63  187 1    
   129   63  188 1    
   130   64   65 am   BACKBONE|DICT|INTERRES
   131   64  189 1    
   132   65   66 2    
   133   67   68 2    
   134   67   69 am   BACKBONE|DICT|INTERRES
   135   69   70 1    
   136   69  190 1    
   137   70   71 1    
   138   70   72 1    
   139   70  191 1    
   140   71  192 1    
   141   71  193 1    
   142   71  194 1    
   143   72   73 2    
   144   72   74 am   BACKBONE|DICT|INTERRES
   145   74   75 1    
   146   74  195 1    
   147   75   76 1    
   148   75   77 1    
   149   75  196 1    
   150   76  197 1    
   151   76  198 1    
   152   76  199 1    
   153   77   78 2    
   154   77   79 am   BACKBONE|DICT|INTERRES
   155   79   80 1    
   156   79  200 1    
   157   80   81 1    
   158   80   82 1    
   159   80  201 1    
   160   81  202 1    
   161   81  203 1    
   162   81  204 1    
   163   82   83 2    
   164   82   84 am   BACKBONE|DICT|INTERRES
   165   84   85 1    
   166   84  205 1    
   167   85   86 1    
   168   85   87 1    
   169   85  206 1    
   170   86  207 1    
   171   86  208 1    
   172   86  209 1    
   173   87   88 2    
   174   87   89 am   BACKBONE|DICT|INTERRES
   175   89   90 1    
   176   89  210 1    
   177   90   91 1    
   178   90   92 1    
   179   90  211 1    
   180   91  212 1    
   181   91  213 1    
   182   91  214 1    
   183   92   93 2    
   184   92   94 am   BACKBONE|DICT|INTERRES
   185   94   95 1    
   186   94  215 1    
   187   95   96 1    
   188   95   97 1    
   189   95  216 1    
   190   96  217 1    
   191   96  218 1    
   192   96  219 1    
   193   97   98 2    
   194   97   99 am   BACKBONE|DICT|INTERRES
   195   99  100 1    
   196   99  220 1    
   197  100  101 1    
   198  100  102 1    
   199  100  221 1    
   200  101  222 1    
   201  101  223 1    
   202  101  224 1    
   203  102  103 2    
   204  102  104 am   BACKBONE|DICT|INTERRES
   205  104  105 1    
   206  104  225 1    
   207  105  106 1    
   208  105  107 1    
   209  105  226 1    
   210  106  227 1    
   211  106  228 1    
   212  106  229 1    
   213  107  108 2    
   214  107  109 am   BACKBONE|DICT|INTERRES
   215  109  110 1    
   216  109  230 1    
   217  110  111 1    
   218  110  112 1    
   219  110  231 1    
   220  111  232 1    
   221  111  233 1    
   222  111  234 1    
   223  112  113 2    
   224  112  114 am   BACKBONE|DICT|INTERRES
   225  114  115 1    
   226  114  235 1    
   227  115  116 1    
   228  115  117 1    
   229  115  236 1    
   230  116  237 1    
   231  116  238 1    
   232  116  239 1    
   233  117  118 2    
   234  117  119 am   BACKBONE|DICT|INTERRES
   235  119  120 1    
   236  119  240 1    
   237  120  121 1    
   238  120  124 1    
   239  120  241 1    
   240  121  122 am   BACKBONE|DICT|INTERRES
   241  121  123 2    
   242  122  242 1    
   243  122  243 1    
   244  124  125 1    
   245  124  244 1    
   246  124  245 1    
   247  125  126 1    
   248  126  246 1    
   249  126  247 1    
@<TRIPOS>SUBSTRUCTURE
     1 UNK         1 GROUP             0       ****    0 ROOT    
