@<TRIPOS>MOLECULE
3R540
247   249    1
SMALL
USER_CHARGES


@<TRIPOS>ATOM
      1 CA          4.4152  -16.7876  -45.1732 C.3       0 UNK        -0.1800 
      2 C           4.1323  -15.3372  -45.5346 C.2       0 UNK         0.5000 
      3 O           3.6186  -14.5900  -44.7036 O.2       0 UNK        -0.5000 
      4 N           4.4815  -14.9323  -46.7633 N.am      1 UNK        -0.5000 
      5 CA          4.1664  -13.6264  -47.3640 C.3       1 UNK         0.1400 
      6 C6          4.6255  -13.5179  -48.8459 C.3       23 UNK        -0.0398 
      7 S7          4.3400  -15.0166  -49.8486 S.3       23 UNK        -0.2404 
      8 C8          2.5238  -15.0107  -49.9970 C.3       23 UNK        -0.0205 
      9 C9          1.9177  -16.3982  -50.1838 C.ar      23 UNK        -0.0193 
     10 C10         0.7568  -16.5351  -50.9498 C.ar      23 UNK        -0.1150 
     11 C11         0.1252  -17.7751  -51.0729 C.ar      23 UNK        -0.0193 
     12 C12         0.6803  -18.8948  -50.4463 C.ar      23 UNK        -0.1150 
     13 C13         1.8390  -18.7770  -49.6753 C.ar      23 UNK        -0.0193 
     14 C14         2.4495  -17.5268  -49.5453 C.ar      23 UNK        -0.1150 
     15 C15         2.4146  -19.9935  -48.9636 C.3       23 UNK        -0.0205 
     16 S16         2.1922  -19.8585  -47.1632 S.3       23 UNK        -0.2404 
     17 C17         2.2313  -21.5950  -46.6227 C.3       23 UNK        -0.0398 
     18 CA          0.8449  -22.2389  -46.3655 C.3       11 UNK         0.1400 
     19 N           0.0010  -21.5239  -45.3973 N.am      11 UNK        -0.5000 
     20 C          -1.0268  -22.1124  -44.7640 C.2       10 UNK         0.5000 
     21 O          -1.3197  -23.2991  -44.9137 O.2       10 UNK        -0.5000 
     22 CA         -1.9068  -21.2438  -43.8487 C.3       10 UNK         0.1400 
     23 CB         -1.2207  -20.9848  -42.4992 C.3       10 UNK        -0.1800 
     24 N          -2.3075  -19.9823  -44.4702 N.am      10 UNK        -0.5000 
     25 C          -3.0943  -19.8898  -45.5522 C.2       9 UNK         0.5000 
     26 O          -3.5741  -20.8653  -46.1284 O.2       9 UNK        -0.5000 
     27 CA         -3.3721  -18.4785  -46.1057 C.3       9 UNK         0.1400 
     28 CB         -4.5490  -17.8242  -45.3680 C.3       9 UNK        -0.1800 
     29 N          -2.2037  -17.6001  -46.0469 N.am      9 UNK        -0.5000 
     30 C          -1.0617  -17.8280  -46.7107 C.2       8 UNK         0.5000 
     31 O          -0.9049  -18.7810  -47.4711 O.2       8 UNK        -0.5000 
     32 CA          0.1141  -16.8746  -46.4178 C.3       8 UNK         0.1400 
     33 CB         -0.0587  -15.5348  -47.1468 C.3       8 UNK        -0.1800 
     34 N           0.2949  -16.6391  -44.9839 N.am      8 UNK        -0.5000 
     35 C           0.5491  -17.5945  -44.0764 C.2       7 UNK         0.5000 
     36 O           0.7421  -18.7776  -44.3540 O.2       7 UNK        -0.5000 
     37 CA          0.5147  -17.1692  -42.5991 C.3       7 UNK         0.1400 
     38 CB          1.8455  -16.5377  -42.1670 C.3       7 UNK        -0.1800 
     39 N          -0.5883  -16.2463  -42.3304 N.am      7 UNK        -0.5000 
     40 C          -1.8806  -16.6041  -42.3178 C.2       6 UNK         0.5000 
     41 O          -2.2688  -17.7597  -42.4809 O.2       6 UNK        -0.5000 
     42 CA         -2.9143  -15.4786  -42.1260 C.3       6 UNK         0.1400 
     43 CB         -3.1289  -15.1918  -40.6325 C.3       6 UNK        -0.1800 
     44 N          -2.5293  -14.2410  -42.8046 N.am      6 UNK        -0.5000 
     45 C          -2.4583  -14.0930  -44.1356 C.2       5 UNK         0.5000 
     46 O          -2.7840  -14.9687  -44.9356 O.2       5 UNK        -0.5000 
     47 CA         -1.8722  -12.7631  -44.6532 C.3       5 UNK         0.1400 
     48 CB         -2.9840  -11.7219  -44.8479 C.3       5 UNK        -0.1800 
     49 N          -0.8419  -12.2166  -43.7634 N.am      5 UNK        -0.5000 
     50 C           0.3209  -12.8261  -43.4980 C.2       4 UNK         0.5000 
     51 O           0.6766  -13.8746  -44.0379 O.2       4 UNK        -0.5000 
     52 CA          1.1595  -12.2223  -42.3655 C.3       4 UNK         0.1400 
     53 CB          0.5473  -12.6380  -41.0085 C.3       4 UNK        -0.1800 
     54 N           2.5464  -12.6780  -42.4621 N.am      4 UNK        -0.5000 
     55 C           3.5517  -12.2220  -41.7022 C.2       3 UNK         0.5000 
     56 O           3.4306  -11.3127  -40.8798 O.2       3 UNK        -0.5000 
     57 CA          4.9281  -12.8748  -41.8924 C.3       3 UNK         0.1400 
     58 CB          4.9126  -14.3695  -41.5300 C.3       3 UNK        -0.1800 
     59 N           5.4100  -12.6947  -43.2581 N.am      3 UNK        -0.5000 
     60 C           6.0989  -11.6241  -43.6785 C.2       2 UNK         0.5000 
     61 O           6.3881  -10.6732  -42.9506 O.2       2 UNK        -0.5000 
     62 CA          6.5786  -11.6098  -45.1430 C.3       2 UNK         0.1400 
     63 CB          8.0938  -11.8598  -45.2124 C.3       2 UNK        -0.1800 
     64 N           5.9055  -12.6049  -45.9760 N.am      2 UNK        -0.5000 
     65 C           4.7155  -12.4275  -46.5634 C.2       1 UNK         0.5000 
     66 O           4.0614  -11.3864  -46.4915 O.2       1 UNK        -0.5000 
     67 C           0.0857  -22.5816  -47.6653 C.2       11 UNK         0.5000 
     68 O           0.3359  -23.6428  -48.2358 O.2       11 UNK        -0.5000 
     69 N          -0.8646  -21.7314  -48.0834 N.am      12 UNK        -0.5000 
     70 CA         -1.7599  -22.0022  -49.2108 C.3       12 UNK         0.1400 
     71 CB         -2.5573  -20.7389  -49.5575 C.3       12 UNK        -0.1800 
     72 C          -2.7169  -23.1822  -48.9487 C.2       12 UNK         0.5000 
     73 O          -2.9958  -23.9541  -49.8665 O.2       12 UNK        -0.5000 
     74 N          -3.1967  -23.3065  -47.7044 N.am      13 UNK        -0.5000 
     75 CA         -4.0347  -24.4145  -47.2468 C.3       13 UNK         0.1400 
     76 CB         -4.7389  -24.0143  -45.9418 C.3       13 UNK        -0.1800 
     77 C          -3.2425  -25.7226  -47.0637 C.2       13 UNK         0.5000 
     78 O          -3.7991  -26.7980  -47.2862 O.2       13 UNK        -0.5000 
     79 N          -1.9664  -25.6136  -46.6652 N.am      14 UNK        -0.5000 
     80 CA         -1.0347  -26.7380  -46.5420 C.3       14 UNK         0.1400 
     81 CB          0.1855  -26.3022  -45.7172 C.3       14 UNK        -0.1800 
     82 C          -0.5921  -27.2989  -47.9080 C.2       14 UNK         0.5000 
     83 O          -0.3254  -28.4972  -48.0143 O.2       14 UNK        -0.5000 
     84 N          -0.5281  -26.4278  -48.9239 N.am      15 UNK        -0.5000 
     85 CA         -0.2897  -26.7674  -50.3262 C.3       15 UNK         0.1400 
     86 CB          0.0590  -25.4758  -51.0865 C.3       15 UNK        -0.1800 
     87 C          -1.4926  -27.4913  -50.9702 C.2       15 UNK         0.5000 
     88 O          -2.5355  -27.6708  -50.3361 O.2       15 UNK        -0.5000 
     89 N          -1.3302  -27.8950  -52.2369 N.am      16 UNK        -0.5000 
     90 CA         -2.3135  -28.6234  -53.0448 C.3       16 UNK         0.1400 
     91 CB         -1.5879  -29.2455  -54.2518 C.3       16 UNK        -0.1800 
     92 C          -3.5228  -27.7550  -53.4633 C.2       16 UNK         0.5000 
     93 O          -3.7135  -27.4866  -54.6508 O.2       16 UNK        -0.5000 
     94 N          -4.3096  -27.3296  -52.4657 N.am      17 UNK        -0.5000 
     95 CA         -5.5379  -26.5322  -52.5549 C.3       17 UNK         0.1400 
     96 CB         -6.6531  -27.3228  -53.2705 C.3       17 UNK        -0.1800 
     97 C          -5.3228  -25.1264  -53.1537 C.2       17 UNK         0.5000 
     98 O          -6.2310  -24.5765  -53.7802 O.2       17 UNK        -0.5000 
     99 N          -4.1339  -24.5480  -52.9260 N.am      18 UNK        -0.5000 
    100 CA        -3.7483  -23.2218  -53.4167 C.3       18 UNK         0.1400 
    101 CB        -2.2417  -23.0123  -53.2107 C.3       18 UNK        -0.1800 
    102 C         -4.5508  -22.0757  -52.7744 C.2       18 UNK         0.5000 
    103 O         -4.6511  -21.0042  -53.3709 O.2       18 UNK        -0.5000 
    104 N         -5.1434  -22.3251  -51.5966 N.am      19 UNK        -0.5000 
    105 CA        -6.0188  -21.4110  -50.8565 C.3       19 UNK         0.1400 
    106 CB        -6.4987  -22.1003  -49.5711 C.3       19 UNK        -0.1800 
    107 C         -7.2174  -20.8824  -51.6692 C.2       19 UNK         0.5000 
    108 O         -7.6400  -19.7473  -51.4472 O.2       19 UNK        -0.5000 
    109 N         -7.7062  -21.6856  -52.6255 N.am      20 UNK        -0.5000 
    110 CA        -8.7670  -21.3160  -53.5642 C.3       20 UNK         0.1400 
    111 CB        -9.1998  -22.5659  -54.3452 C.3       20 UNK        -0.1800 
    112 C         -8.3632  -20.1856  -54.5334 C.2       20 UNK         0.5000 
    113 O         -9.2260  -19.4073  -54.9416 O.2       20 UNK        -0.5000 
    114 N         -7.0692  -20.1077  -54.8732 N.am      21 UNK        -0.5000 
    115 CA        -6.4874  -19.0365  -55.6817 C.3       21 UNK         0.1400 
    116 CB        -5.3560  -19.6137  -56.5473 C.3       21 UNK        -0.1800 
    117 C         -5.9629  -17.8931  -54.7956 C.2       21 UNK         0.5000 
    118 O         -6.1014  -16.7266  -55.1656 O.2       21 UNK        -0.5000 
    119 N         -5.3680  -18.2510  -53.6498 N.am      22 UNK        -0.5000 
    120 CA        -4.8128  -17.3287  -52.6480 C.3       22 UNK         0.1400 
    121 C         -5.8734  -16.4139  -51.9706 C.2       22 UNK         0.5000 
    122 N         -7.0565  -16.9215  -51.6446 N.am      22 UNK        -0.7600 
    123 O         -5.6269  -15.2313  -51.7508 O.2       22 UNK        -0.5000 
    124 C124       -3.9807  -18.1037  -51.5933 C.3       23 UNK        -0.0398 
    125 S125       -2.5634  -17.1677  -50.9327 S.3       23 UNK        -0.2404 
    126 C126       -1.1712  -17.8980  -51.8577 C.3       23 UNK        -0.0205 
    127 H127        3.4778  -17.3250  -45.0303 H         1 UNK         0.0600 
    128 H128        4.9851  -16.8400  -44.2457 H         1 UNK         0.0600 
    129 H129        4.9821  -17.2968  -45.9529 H         1 UNK         0.0600 
    130 H130        4.9090  -15.5937  -47.3961 H         1 UNK         0.3000 
    131 H131        3.0792  -13.5360  -47.3373 H         1 UNK         0.0600 
    132 H132        4.1358  -12.6725  -49.3327 H         1 UNK         0.0800 
    133 H133        5.6969  -13.3142  -48.8990 H         1 UNK         0.0800 
    134 H134        2.0754  -14.5750  -49.1058 H         1 UNK         0.0800 
    135 H135        2.2519  -14.3599  -50.8295 H         1 UNK         0.0800 
    136 H136        0.3189  -15.6681  -51.4245 H         1 UNK         0.1150 
    137 H137        0.1980  -19.8570  -50.5370 H         1 UNK         0.1150 
    138 H138        3.3279  -17.4375  -48.9227 H         1 UNK         0.1150 
    139 H139        1.9364  -20.9035  -49.3282 H         1 UNK         0.0800 
    140 H140        3.4770  -20.0870  -49.1919 H         1 UNK         0.0800 
    141 H141        2.8067  -22.1880  -47.3359 H         1 UNK         0.0800 
    142 H142        2.8063  -21.6230  -45.6964 H         1 UNK         0.0800 
    143 H143        1.0711  -23.2038  -45.9073 H         1 UNK         0.0600 
    144 H144        0.2036  -20.5406  -45.2372 H         1 UNK         0.3000 
    145 H145       -2.8202  -21.8076  -43.6474 H         1 UNK         0.0600 
    146 H146       -1.8727  -20.4294  -41.8251 H         1 UNK         0.0600 
    147 H147       -0.9694  -21.9244  -42.0057 H         1 UNK         0.0600 
    148 H148       -0.2963  -20.4205  -42.6128 H         1 UNK         0.0600 
    149 H149       -1.9885  -19.1310  -44.0220 H         1 UNK         0.3000 
    150 H150       -3.6499  -18.5858  -47.1563 H         1 UNK         0.0600 
    151 H151       -5.4411  -18.4491  -45.4252 H         1 UNK         0.0600 
    152 H152       -4.7996  -16.8576  -45.8054 H         1 UNK         0.0600 
    153 H153       -4.3254  -17.6659  -44.3130 H         1 UNK         0.0600 
    154 H154       -2.2850  -16.7632  -45.4769 H         1 UNK         0.3000 
    155 H155        1.0280  -17.3334  -46.7929 H         1 UNK         0.0600 
    156 H156        0.7937  -14.8785  -46.9708 H         1 UNK         0.0600 
    157 H157       -0.9578  -15.0111  -46.8273 H         1 UNK         0.0600 
    158 H158       -0.1417  -15.6899  -48.2227 H         1 UNK         0.0600 
    159 H159        0.2203  -15.6778  -44.6651 H         1 UNK         0.3000 
    160 H160        0.3617  -18.0670  -41.9966 H         1 UNK         0.0600 
    161 H161        2.0631  -15.6330  -42.7314 H         1 UNK         0.0600 
    162 H162        2.6743  -17.2281  -42.3281 H         1 UNK         0.0600 
    163 H163        1.8371  -16.2786  -41.1084 H         1 UNK         0.0600 
    164 H164       -0.3519  -15.2696  -42.2504 H         1 UNK         0.3000 
    165 H165       -3.8617  -15.8192  -42.5493 H         1 UNK         0.0600 
    166 H166       -3.9120  -14.4483  -40.4824 H         1 UNK         0.0600 
    167 H167       -3.4340  -16.0950  -40.1023 H         1 UNK         0.0600 
    168 H168       -2.2193  -14.8230  -40.1567 H         1 UNK         0.0600 
    169 H169       -2.2611  -13.4645  -42.2195 H         1 UNK         0.3000 
    170 H170       -1.4113  -12.9568  -45.6237 H         1 UNK         0.0600 
    171 H171       -3.7539  -12.0961  -45.5241 H         1 UNK         0.0600 
    172 H172       -3.4700  -11.4686  -43.9049 H         1 UNK         0.0600 
    173 H173       -2.5914  -10.8022  -45.2819 H         1 UNK         0.0600 
    174 H174       -1.0725  -11.3607  -43.2790 H         1 UNK         0.3000 
    175 H175        1.1396  -11.1352  -42.4644 H         1 UNK         0.0600 
    176 H176        0.6243  -13.7139  -40.8472 H         1 UNK         0.0600 
    177 H177        1.0400  -12.1430  -40.1724 H         1 UNK         0.0600 
    178 H178       -0.5082  -12.3707  -40.9469 H         1 UNK         0.0600 
    179 H179        2.7177  -13.3927  -43.1660 H         1 UNK         0.3000 
    180 H180        5.6199  -12.3892  -41.2003 H         1 UNK         0.0600 
    181 H181        4.2985  -14.9535  -42.2127 H         1 UNK         0.0600 
    182 H182        4.5204  -14.5232  -40.5240 H         1 UNK         0.0600 
    183 H183        5.9193  -14.7868  -41.5535 H         1 UNK         0.0600 
    184 H184        5.1175  -13.3911  -43.9333 H         1 UNK         0.3000 
    185 H185        6.3814  -10.6130  -45.5436 H         1 UNK         0.0600 
    186 H186        8.6407  -11.1160  -44.6314 H         1 UNK         0.0600 
    187 H187        8.3583  -12.8424  -44.8195 H         1 UNK         0.0600 
    188 H188        8.4571  -11.7987  -46.2385 H         1 UNK         0.0600 
    189 H189        6.3652  -13.4982  -46.0800 H         1 UNK         0.3000 
    190 H190       -0.9763  -20.8391  -47.6110 H         1 UNK         0.3000 
    191 H191       -1.1341  -22.2559  -50.0681 H         1 UNK         0.0600 
    192 H192       -3.3249  -20.5217  -48.8149 H         1 UNK         0.0600 
    193 H193       -3.0480  -20.8536  -50.5210 H         1 UNK         0.0600 
    194 H194       -1.9157  -19.8640  -49.6313 H         1 UNK         0.0600 
    195 H195       -2.9945  -22.5781  -47.0269 H         1 UNK         0.3000 
    196 H196       -4.8027  -24.5980  -48.0012 H         1 UNK         0.0600 
    197 H197       -5.3873  -24.8154  -45.5853 H         1 UNK         0.0600 
    198 H198       -5.3615  -23.1311  -46.0867 H         1 UNK         0.0600 
    199 H199       -4.0235  -23.7919  -45.1497 H         1 UNK         0.0600 
    200 H200       -1.6159  -24.6970  -46.4106 H         1 UNK         0.3000 
    201 H201       -1.5405  -27.5400  -46.0004 H         1 UNK         0.0600 
    202 H202       -0.1120  -25.9095  -44.7447 H         1 UNK         0.0600 
    203 H203        0.7620  -25.5328  -46.2300 H         1 UNK         0.0600 
    204 H204        0.8540  -27.1451  -45.5379 H         1 UNK         0.0600 
    205 H205       -0.7159  -25.4529  -48.7262 H         1 UNK         0.3000 
    206 H206        0.5681  -27.4410  -50.3733 H         1 UNK         0.0600 
    207 H207        0.9184  -24.9764  -50.6386 H         1 UNK         0.0600 
    208 H208        0.3134  -25.6752  -52.1277 H         1 UNK         0.0600 
    209 H209       -0.7725  -24.7727  -51.0802 H         1 UNK         0.0600 
    210 H210       -0.4555  -27.6899  -52.6976 H         1 UNK         0.3000 
    211 H211       -2.7065  -29.4449  -52.4420 H         1 UNK         0.0600 
    212 H212       -1.1399  -28.4831  -54.8904 H         1 UNK         0.0600 
    213 H213       -2.2771  -29.8262  -54.8664 H         1 UNK         0.0600 
    214 H214       -0.7957  -29.9219  -53.9303 H         1 UNK         0.0600 
    215 H215       -3.9892  -27.5418  -51.5229 H         1 UNK         0.3000 
    216 H216       -5.8628  -26.3686  -51.5265 H         1 UNK         0.0600 
    217 H217       -7.6074  -26.7982  -53.2090 H         1 UNK         0.0600 
    218 H218       -6.7951  -28.3035  -52.8164 H         1 UNK         0.0600 
    219 H219       -6.4301  -27.4711  -54.3275 H         1 UNK         0.0600 
    220 H220       -3.4558  -25.0416  -52.3633 H         1 UNK         0.3000 
    221 H221       -3.9489  -23.1928  -54.4897 H         1 UNK         0.0600 
    222 H222       -1.9773  -23.0079  -52.1552 H         1 UNK         0.0600 
    223 H223       -1.6620  -23.7952  -53.7001 H         1 UNK         0.0600 
    224 H224       -1.9200  -22.0583  -53.6308 H         1 UNK         0.0600 
    225 H225       -4.9639  -23.2237  -51.1702 H         1 UNK         0.3000 
    226 H226       -5.4229  -20.5463  -50.5682 H         1 UNK         0.0600 
    227 H227       -5.6619  -22.3389  -48.9160 H         1 UNK         0.0600 
    228 H228       -7.1714  -21.4532  -49.0066 H         1 UNK         0.0600 
    229 H229       -7.0346  -23.0256  -49.7858 H         1 UNK         0.0600 
    230 H230       -7.2826  -22.5944  -52.7586 H         1 UNK         0.3000 
    231 H231       -9.6213  -20.9624  -52.9832 H         1 UNK         0.0600 
    232 H232      -10.0113  -22.3342  -55.0363 H         1 UNK         0.0600 
    233 H233       -9.5577  -23.3468  -53.6740 H         1 UNK         0.0600 
    234 H234       -8.3769  -22.9788  -54.9303 H         1 UNK         0.0600 
    235 H235       -6.4159  -20.7597  -54.4569 H         1 UNK         0.3000 
    236 H236       -7.2443  -18.6239  -56.3523 H         1 UNK         0.0600 
    237 H237       -5.7273  -20.3974  -57.2078 H         1 UNK         0.0600 
    238 H238       -4.9142  -18.8402  -57.1766 H         1 UNK         0.0600 
    239 H239       -4.5559  -20.0391  -55.9404 H         1 UNK         0.0600 
    240 H240       -5.2458  -19.2420  -53.4649 H         1 UNK         0.3000 
    241 H241       -4.1338  -16.6729  -53.1968 H         1 UNK         0.0600 
    242 H242       -7.7457  -16.3252  -51.2157 H         1 UNK         0.3800 
    243 H243       -7.2598  -17.9105  -51.7631 H         1 UNK         0.3800 
    244 H244       -4.6023  -18.4124  -50.7520 H         1 UNK         0.0800 
    245 H245       -3.5991  -19.0298  -52.0201 H         1 UNK         0.0800 
    246 H246       -1.3669  -18.9485  -52.0763 H         1 UNK         0.0800 
    247 H247       -1.0732  -17.3954  -52.8208 H         1 UNK         0.0800 
@<TRIPOS>BOND
     1    1    2 1    
     2    1  127 1    
     3    1  128 1    
     4    1  129 1    
     5    2    3 2    
     6    2    4 am   BACKBONE|DICT|INTERRES
     7    4    5 1    
     8    4  130 1    
     9    5    6 1    
    10    5   65 1    
    11    5  131 1    
    12    6    7 1    
    13    6  132 1    
    14    6  133 1    
    15    7    8 1    
    16    8    9 1    
    17    8  134 1    
    18    8  135 1    
    19    9   10 ar   
    20    9   14 ar   
    21   10   11 ar   
    22   10  136 1    
    23   11   12 ar   
    24   11  126 1    
    25   12   13 ar   
    26   12  137 1    
    27   13   14 ar   
    28   13   15 1    
    29   14  138 1    
    30   15   16 1    
    31   15  139 1    
    32   15  140 1    
    33   16   17 1    
    34   17   18 1    
    35   17  141 1    
    36   17  142 1    
    37   18   19 1    
    38   18   67 1    
    39   18  143 1    
    40   19   20 am   BACKBONE|DICT|INTERRES
    41   19  144 1    
    42   20   21 2    
    43   20   22 1    
    44   22   23 1    
    45   22   24 1    
    46   22  145 1    
    47   23  146 1    
    48   23  147 1    
    49   23  148 1    
    50   24   25 am   BACKBONE|DICT|INTERRES
    51   24  149 1    
    52   25   26 2    
    53   25   27 1    
    54   27   28 1    
    55   27   29 1    
    56   27  150 1    
    57   28  151 1    
    58   28  152 1    
    59   28  153 1    
    60   29   30 am   BACKBONE|DICT|INTERRES
    61   29  154 1    
    62   30   31 2    
    63   30   32 1    
    64   32   33 1    
    65   32   34 1    
    66   32  155 1    
    67   33  156 1    
    68   33  157 1    
    69   33  158 1    
    70   34   35 am   BACKBONE|DICT|INTERRES
    71   34  159 1    
    72   35   36 2    
    73   35   37 1    
    74   37   38 1    
    75   37   39 1    
    76   37  160 1    
    77   38  161 1    
    78   38  162 1    
    79   38  163 1    
    80   39   40 am   BACKBONE|DICT|INTERRES
    81   39  164 1    
    82   40   41 2    
    83   40   42 1    
    84   42   43 1    
    85   42   44 1    
    86   42  165 1    
    87   43  166 1    
    88   43  167 1    
    89   43  168 1    
    90   44   45 am   BACKBONE|DICT|INTERRES
    91   44  169 1    
    92   45   46 2    
    93   45   47 1    
    94   47   48 1    
    95   47   49 1    
    96   47  170 1    
    97   48  171 1    
    98   48  172 1    
    99   48  173 1    
   100   49   50 am   BACKBONE|DICT|INTERRES
   101   49  174 1    
   102   50   51 2    
   103   50   52 1    
   104   52   53 1    
   105   52   54 1    
   106   52  175 1    
   107   53  176 1    
   108   53  177 1    
   109   53  178 1    
   110   54   55 am   BACKBONE|DICT|INTERRES
   111   54  179 1    
   112   55   56 2    
   113   55   57 1    
   114   57   58 1    
   115   57   59 1    
   116   57  180 1    
   117   58  181 1    
   118   58  182 1    
   119   58  183 1    
   120   59   60 am   BACKBONE|DICT|INTERRES
   121   59  184 1    
   122   60   61 2    
   123   60   62 1    
   124   62   63 1    
   125   62   64 1    
   126   62  185 1    
   127   63  186 1    
   128   63  187 1    
   129   63  188 1    
   130   64   65 am   BACKBONE|DICT|INTERRES
   131   64  189 1    
   132   65   66 2    
   133   67   68 2    
   134   67   69 am   BACKBONE|DICT|INTERRES
   135   69   70 1    
   136   69  190 1    
   137   70   71 1    
   138   70   72 1    
   139   70  191 1    
   140   71  192 1    
   141   71  193 1    
   142   71  194 1    
   143   72   73 2    
   144   72   74 am   BACKBONE|DICT|INTERRES
   145   74   75 1    
   146   74  195 1    
   147   75   76 1    
   148   75   77 1    
   149   75  196 1    
   150   76  197 1    
   151   76  198 1    
   152   76  199 1    
   153   77   78 2    
   154   77   79 am   BACKBONE|DICT|INTERRES
   155   79   80 1    
   156   79  200 1    
   157   80   81 1    
   158   80   82 1    
   159   80  201 1    
   160   81  202 1    
   161   81  203 1    
   162   81  204 1    
   163   82   83 2    
   164   82   84 am   BACKBONE|DICT|INTERRES
   165   84   85 1    
   166   84  205 1    
   167   85   86 1    
   168   85   87 1    
   169   85  206 1    
   170   86  207 1    
   171   86  208 1    
   172   86  209 1    
   173   87   88 2    
   174   87   89 am   BACKBONE|DICT|INTERRES
   175   89   90 1    
   176   89  210 1    
   177   90   91 1    
   178   90   92 1    
   179   90  211 1    
   180   91  212 1    
   181   91  213 1    
   182   91  214 1    
   183   92   93 2    
   184   92   94 am   BACKBONE|DICT|INTERRES
   185   94   95 1    
   186   94  215 1    
   187   95   96 1    
   188   95   97 1    
   189   95  216 1    
   190   96  217 1    
   191   96  218 1    
   192   96  219 1    
   193   97   98 2    
   194   97   99 am   BACKBONE|DICT|INTERRES
   195   99  100 1    
   196   99  220 1    
   197  100  101 1    
   198  100  102 1    
   199  100  221 1    
   200  101  222 1    
   201  101  223 1    
   202  101  224 1    
   203  102  103 2    
   204  102  104 am   BACKBONE|DICT|INTERRES
   205  104  105 1    
   206  104  225 1    
   207  105  106 1    
   208  105  107 1    
   209  105  226 1    
   210  106  227 1    
   211  106  228 1    
   212  106  229 1    
   213  107  108 2    
   214  107  109 am   BACKBONE|DICT|INTERRES
   215  109  110 1    
   216  109  230 1    
   217  110  111 1    
   218  110  112 1    
   219  110  231 1    
   220  111  232 1    
   221  111  233 1    
   222  111  234 1    
   223  112  113 2    
   224  112  114 am   BACKBONE|DICT|INTERRES
   225  114  115 1    
   226  114  235 1    
   227  115  116 1    
   228  115  117 1    
   229  115  236 1    
   230  116  237 1    
   231  116  238 1    
   232  116  239 1    
   233  117  118 2    
   234  117  119 am   BACKBONE|DICT|INTERRES
   235  119  120 1    
   236  119  240 1    
   237  120  121 1    
   238  120  124 1    
   239  120  241 1    
   240  121  122 am   BACKBONE|DICT|INTERRES
   241  121  123 2    
   242  122  242 1    
   243  122  243 1    
   244  124  125 1    
   245  124  244 1    
   246  124  245 1    
   247  125  126 1    
   248  126  246 1    
   249  126  247 1    
@<TRIPOS>SUBSTRUCTURE
     1 UNK         1 GROUP             0       ****    0 ROOT    
