@<TRIPOS>MOLECULE
3R540
247   249    1
SMALL
USER_CHARGES


@<TRIPOS>ATOM
      1 CA          6.5272  -13.9887  -49.3471 C.3       0 UNK        -0.1800 
      2 C           5.3891  -14.0579  -48.3389 C.2       0 UNK         0.5000 
      3 O           5.2492  -15.0626  -47.6429 O.2       0 UNK        -0.5000 
      4 N           4.5850  -12.9910  -48.2539 N.am      1 UNK        -0.5000 
      5 CA          3.4252  -12.8754  -47.3574 C.3       1 UNK         0.1400 
      6 C6          2.2391  -12.1427  -48.0339 C.3       23 UNK        -0.0398 
      7 S7          1.5800  -13.1048  -49.4344 S.3       23 UNK        -0.2404 
      8 C8          0.4248  -14.1842  -48.5356 C.3       23 UNK        -0.0205 
      9 C9          0.0142  -15.3875  -49.3651 C.ar      23 UNK        -0.0193 
     10 C10        -1.2886  -15.4951  -49.8585 C.ar      23 UNK        -0.1150 
     11 C11        -1.6865  -16.6342  -50.5631 C.ar      23 UNK        -0.0193 
     12 C12        -0.7611  -17.6514  -50.8074 C.ar      23 UNK        -0.1150 
     13 C13         0.5423  -17.5585  -50.3110 C.ar      23 UNK        -0.0193 
     14 C14         0.9247  -16.4239  -49.5907 C.ar      23 UNK        -0.1150 
     15 C15         1.5255  -18.6996  -50.5223 C.3       23 UNK        -0.0205 
     16 S16         1.5740  -19.8186  -49.0857 S.3       23 UNK        -0.2404 
     17 C17        -0.1427  -20.4288  -49.0707 C.3       23 UNK        -0.0398 
     18 CA         -0.3333  -21.6554  -48.1541 C.3       11 UNK         0.1400 
     19 N          -0.1867  -21.3366  -46.7272 N.am      11 UNK        -0.5000 
     20 C          -0.2006  -22.2503  -45.7450 C.2       10 UNK         0.5000 
     21 O          -0.3078  -23.4589  -45.9450 O.2       10 UNK        -0.5000 
     22 CA         -0.1512  -21.7408  -44.2953 C.3       10 UNK         0.1400 
     23 CB          1.2703  -21.3104  -43.9049 C.3       10 UNK        -0.1800 
     24 N          -1.0952  -20.6502  -44.0603 N.am      10 UNK        -0.5000 
     25 C          -2.4293  -20.7707  -44.1334 C.2       9 UNK         0.5000 
     26 O          -3.0101  -21.8372  -44.3340 O.2       9 UNK        -0.5000 
     27 CA         -3.2538  -19.4753  -44.0041 C.3       9 UNK         0.1400 
     28 CB         -3.4838  -19.1169  -42.5291 C.3       9 UNK        -0.1800 
     29 N          -2.6415  -18.3402  -44.6966 N.am      9 UNK        -0.5000 
     30 C          -2.4112  -18.2923  -46.0170 C.2       8 UNK         0.5000 
     31 O          -2.7217  -19.1886  -46.7999 O.2       8 UNK        -0.5000 
     32 CA         -1.6516  -17.0616  -46.5357 C.3       8 UNK         0.1400 
     33 CB         -2.5979  -15.8597  -46.6877 C.3       8 UNK        -0.1800 
     34 N          -0.5317  -16.7086  -45.6611 N.am      8 UNK        -0.5000 
     35 C           0.5601  -17.4693  -45.4937 C.2       7 UNK         0.5000 
     36 O           0.7454  -18.5339  -46.0813 O.2       7 UNK        -0.5000 
     37 CA          1.5899  -16.9853  -44.4548 C.3       7 UNK         0.1400 
     38 CB          2.4639  -15.8662  -45.0401 C.3       7 UNK        -0.1800 
     39 N           0.9614  -16.5127  -43.2202 N.am      7 UNK        -0.5000 
     40 C           0.2495  -17.2854  -42.3838 C.2       6 UNK         0.5000 
     41 O           0.1233  -18.5004  -42.5240 O.2       6 UNK        -0.5000 
     42 CA         -0.4970  -16.5814  -41.2297 C.3       6 UNK         0.1400 
     43 CB          0.3754  -16.5483  -39.9665 C.3       6 UNK        -0.1800 
     44 N          -0.9102  -15.2172  -41.5610 N.am      6 UNK        -0.5000 
     45 C          -1.6769  -14.8751  -42.6051 C.2       5 UNK         0.5000 
     46 O          -2.2752  -15.6997  -43.2967 O.2       5 UNK        -0.5000 
     47 CA         -1.7357  -13.3811  -42.9921 C.3       5 UNK         0.1400 
     48 CB         -3.1469  -12.8230  -42.7537 C.3       5 UNK        -0.1800 
     49 N          -0.7618  -12.5051  -42.3238 N.am      5 UNK        -0.5000 
     50 C           0.5753  -12.6184  -42.3294 C.2       4 UNK         0.5000 
     51 O           1.1862  -13.5425  -42.8745 O.2       4 UNK        -0.5000 
     52 CA          1.3394  -11.5476  -41.5337 C.3       4 UNK         0.1400 
     53 CB          0.9295  -11.5607  -40.0451 C.3       4 UNK        -0.1800 
     54 N           2.7777  -11.7735  -41.6453 N.am      4 UNK        -0.5000 
     55 C           3.7262  -10.8660  -41.3828 C.2       3 UNK         0.5000 
     56 O           3.4823   -9.6961  -41.0856 O.2       3 UNK        -0.5000 
     57 CA          5.1960  -11.3293  -41.4367 C.3       3 UNK         0.1400 
     58 CB          5.7615  -11.4452  -40.0122 C.3       3 UNK        -0.1800 
     59 N           5.3675  -12.6232  -42.1035 N.am      3 UNK        -0.5000 
     60 C           5.5204  -12.8557  -43.4139 C.2       2 UNK         0.5000 
     61 O           5.6398  -14.0048  -43.8399 O.2       2 UNK        -0.5000 
     62 CA          5.6028  -11.6742  -44.4103 C.3       2 UNK         0.1400 
     63 CB          7.0585  -11.2098  -44.5783 C.3       2 UNK        -0.1800 
     64 N           5.0860  -12.0649  -45.7196 N.am      2 UNK        -0.5000 
     65 C           3.7881  -12.2475  -45.9935 C.2       1 UNK         0.5000 
     66 O           2.8900  -11.9458  -45.2070 O.2       1 UNK        -0.5000 
     67 C          -1.6816  -22.3362  -48.4603 C.2       11 UNK         0.5000 
     68 O          -1.7000  -23.3474  -49.1608 O.2       11 UNK        -0.5000 
     69 N          -2.7777  -21.8179  -47.8923 N.am      12 UNK        -0.5000 
     70 CA         -4.1245  -22.3756  -48.0321 C.3       12 UNK         0.1400 
     71 CB         -5.1431  -21.3954  -47.4323 C.3       12 UNK        -0.1800 
     72 C          -4.2935  -23.7875  -47.4295 C.2       12 UNK         0.5000 
     73 O          -5.2358  -24.4841  -47.8063 O.2       12 UNK        -0.5000 
     74 N          -3.3861  -24.1931  -46.5320 N.am      13 UNK        -0.5000 
     75 CA         -3.3172  -25.5390  -45.9720 C.3       13 UNK         0.1400 
     76 CB         -2.9173  -25.4504  -44.4901 C.3       13 UNK        -0.1800 
     77 C          -2.3315  -26.4257  -46.7544 C.2       13 UNK         0.5000 
     78 O          -2.6930  -27.5393  -47.1354 O.2       13 UNK        -0.5000 
     79 N          -1.0987  -25.9374  -46.9502 N.am      14 UNK        -0.5000 
     80 CA          0.0200  -26.7053  -47.4977 C.3       14 UNK         0.1400 
     81 CB          1.3437  -26.0482  -47.0746 C.3       14 UNK        -0.1800 
     82 C          -0.0383  -26.8670  -49.0248 C.2       14 UNK         0.5000 
     83 O           0.1147  -27.9840  -49.5212 O.2       14 UNK        -0.5000 
     84 N          -0.2407  -25.7545  -49.7412 N.am      15 UNK        -0.5000 
     85 CA         -0.3630  -25.7271  -51.1995 C.3       15 UNK         0.1400 
     86 CB          0.1539  -24.3813  -51.7347 C.3       15 UNK        -0.1800 
     87 C          -1.8172  -25.9760  -51.6282 C.2       15 UNK         0.5000 
     88 O          -2.0467  -26.6548  -52.6305 O.2       15 UNK        -0.5000 
     89 N          -2.7649  -25.4430  -50.8415 N.am      16 UNK        -0.5000 
     90 CA         -4.2145  -25.6032  -50.9582 C.3       16 UNK         0.1400 
     91 CB         -4.6318  -27.0222  -50.5172 C.3       16 UNK        -0.1800 
     92 C          -4.7171  -25.2008  -52.3541 C.2       16 UNK         0.5000 
     93 O          -4.6831  -24.0130  -52.6769 O.2       16 UNK        -0.5000 
     94 N          -5.1264  -26.1808  -53.1701 N.am      17 UNK        -0.5000 
     95 CA         -5.5890  -26.0058  -54.5477 C.3       17 UNK         0.1400 
     96 CB         -6.0250  -27.3671  -55.1084 C.3       17 UNK        -0.1800 
     97 C          -4.5555  -25.3441  -55.4807 C.2       17 UNK         0.5000 
     98 O          -4.9545  -24.6196  -56.3921 O.2       17 UNK        -0.5000 
     99 N          -3.2555  -25.5423  -55.2133 N.am      18 UNK        -0.5000 
    100 CA        -2.1619  -24.8958  -55.9471 C.3       18 UNK         0.1400 
    101 CB        -0.8465  -25.6374  -55.6674 C.3       18 UNK        -0.1800 
    102 C         -2.0290  -23.3880  -55.6421 C.2       18 UNK         0.5000 
    103 O         -1.4658  -22.6577  -56.4578 O.2       18 UNK        -0.5000 
    104 N         -2.5752  -22.9449  -54.5014 N.am      19 UNK        -0.5000 
    105 CA        -2.7184  -21.5390  -54.1156 C.3       19 UNK         0.1400 
    106 CB        -2.2784  -21.3877  -52.6469 C.3       19 UNK        -0.1800 
    107 C         -4.1674  -21.0423  -54.3098 C.2       19 UNK         0.5000 
    108 O         -4.4850  -19.9318  -53.8815 O.2       19 UNK        -0.5000 
    109 N         -5.0379  -21.8845  -54.8946 N.am      20 UNK        -0.5000 
    110 CA        -6.4885  -21.7123  -55.0589 C.3       20 UNK         0.1400 
    111 CB        -6.7806  -20.6123  -56.0995 C.3       20 UNK        -0.1800 
    112 C         -7.2318  -21.4762  -53.7237 C.2       20 UNK         0.5000 
    113 O         -8.2530  -20.7861  -53.6999 O.2       20 UNK        -0.5000 
    114 N         -6.6620  -21.9953  -52.6234 N.am      21 UNK        -0.5000 
    115 CA        -7.0217  -21.7540  -51.2204 C.3       21 UNK         0.1400 
    116 CB        -8.3413  -22.4732  -50.8787 C.3       21 UNK        -0.1800 
    117 C         -7.0385  -20.2557  -50.8295 C.2       21 UNK         0.5000 
    118 O         -7.7351  -19.8792  -49.8859 O.2       21 UNK        -0.5000 
    119 N         -6.2972  -19.4293  -51.5827 N.am      22 UNK        -0.5000 
    120 CA        -6.3213  -17.9584  -51.5597 C.3       22 UNK         0.1400 
    121 C         -7.6808  -17.3269  -51.9976 C.2       22 UNK         0.5000 
    122 N         -8.5554  -18.0425  -52.6965 N.am      22 UNK        -0.7600 
    123 O         -7.9416  -16.1565  -51.7317 O.2       22 UNK        -0.5000 
    124 C124       -5.7654  -17.3501  -50.2426 C.3       23 UNK        -0.0398 
    125 S125       -4.0525  -17.8654  -49.8871 S.3       23 UNK        -0.2404 
    126 C126       -3.1259  -16.7840  -51.0223 C.3       23 UNK        -0.0205 
    127 H127        6.4323  -14.7946  -50.0747 H         1 UNK         0.0600 
    128 H128        7.4857  -14.0973  -48.8395 H         1 UNK         0.0600 
    129 H129        6.5338  -13.0420  -49.8879 H         1 UNK         0.0600 
    130 H130        4.7539  -12.1950  -48.8531 H         1 UNK         0.3000 
    131 H131        3.0803  -13.8805  -47.1124 H         1 UNK         0.0600 
    132 H132        1.4225  -11.9632  -47.3319 H         1 UNK         0.0800 
    133 H133        2.5488  -11.1608  -48.3948 H         1 UNK         0.0800 
    134 H134       -0.4467  -13.5987  -48.2394 H         1 UNK         0.0800 
    135 H135        0.8816  -14.5427  -47.6127 H         1 UNK         0.0800 
    136 H136       -2.0037  -14.7082  -49.6640 H         1 UNK         0.1150 
    137 H137       -1.0701  -18.5335  -51.3494 H         1 UNK         0.1150 
    138 H138        1.9268  -16.3537  -49.1910 H         1 UNK         0.1150 
    139 H139        1.2689  -19.2662  -51.4187 H         1 UNK         0.0800 
    140 H140        2.5251  -18.2966  -50.6915 H         1 UNK         0.0800 
    141 H141       -0.4111  -20.6747  -50.1002 H         1 UNK         0.0800 
    142 H142       -0.8049  -19.6184  -48.7610 H         1 UNK         0.0800 
    143 H143        0.4441  -22.3818  -48.4010 H         1 UNK         0.0600 
    144 H144       -0.0570  -20.3571  -46.4914 H         1 UNK         0.3000 
    145 H145       -0.4377  -22.5704  -43.6455 H         1 UNK         0.0600 
    146 H146        1.6143  -20.4598  -44.4926 H         1 UNK         0.0600 
    147 H147        1.3212  -21.0311  -42.8525 H         1 UNK         0.0600 
    148 H148        1.9798  -22.1241  -44.0599 H         1 UNK         0.0600 
    149 H149       -0.6959  -19.7479  -43.8222 H         1 UNK         0.3000 
    150 H150       -4.2270  -19.6531  -44.4660 H         1 UNK         0.0600 
    151 H151       -4.0324  -19.9096  -42.0190 H         1 UNK         0.0600 
    152 H152       -4.0652  -18.2001  -42.4288 H         1 UNK         0.0600 
    153 H153       -2.5429  -18.9789  -41.9978 H         1 UNK         0.0600 
    154 H154       -2.3804  -17.5382  -44.1319 H         1 UNK         0.3000 
    155 H155       -1.2473  -17.3090  -47.5191 H         1 UNK         0.0600 
    156 H156       -3.1146  -15.6225  -45.7582 H         1 UNK         0.0600 
    157 H157       -2.0618  -14.9672  -47.0063 H         1 UNK         0.0600 
    158 H158       -3.3616  -16.0656  -47.4384 H         1 UNK         0.0600 
    159 H159       -0.6481  -15.8904  -45.0827 H         1 UNK         0.3000 
    160 H160        2.2355  -17.8298  -44.2052 H         1 UNK         0.0600 
    161 H161        2.9402  -16.1841  -45.9688 H         1 UNK         0.0600 
    162 H162        1.8788  -14.9716  -45.2561 H         1 UNK         0.0600 
    163 H163        3.2576  -15.5825  -44.3487 H         1 UNK         0.0600 
    164 H164        1.0223  -15.5155  -43.0348 H         1 UNK         0.3000 
    165 H165       -1.3977  -17.1571  -41.0117 H         1 UNK         0.0600 
    166 H166       -0.1675  -16.1224  -39.1225 H         1 UNK         0.0600 
    167 H167        0.6838  -17.5545  -39.6791 H         1 UNK         0.0600 
    168 H168        1.2799  -15.9576  -40.1178 H         1 UNK         0.0600 
    169 H169       -0.4528  -14.4744  -41.0548 H         1 UNK         0.3000 
    170 H170       -1.5282  -13.3314  -44.0627 H         1 UNK         0.0600 
    171 H171       -3.8992  -13.4224  -43.2686 H         1 UNK         0.0600 
    172 H172       -3.4018  -12.8169  -41.6932 H         1 UNK         0.0600 
    173 H173       -3.2377  -11.8032  -43.1282 H         1 UNK         0.0600 
    174 H174       -1.1634  -11.7229  -41.8272 H         1 UNK         0.3000 
    175 H175        1.0969  -10.5777  -41.9728 H         1 UNK         0.0600 
    176 H176        1.1438  -12.5241  -39.5807 H         1 UNK         0.0600 
    177 H177        1.4593  -10.7952  -39.4782 H         1 UNK         0.0600 
    178 H178       -0.1351  -11.3630  -39.9176 H         1 UNK         0.0600 
    179 H179        3.0343  -12.6967  -41.9717 H         1 UNK         0.3000 
    180 H180        5.7725  -10.5585  -41.9494 H         1 UNK         0.0600 
    181 H181        5.2251  -12.1913  -39.4244 H         1 UNK         0.0600 
    182 H182        5.6871  -10.4948  -39.4817 H         1 UNK         0.0600 
    183 H183        6.8154  -11.7239  -40.0276 H         1 UNK         0.0600 
    184 H184        5.3453  -13.4231  -41.4886 H         1 UNK         0.3000 
    185 H185        5.0016  -10.8355  -44.0578 H         1 UNK         0.0600 
    186 H186        7.1263  -10.3652  -45.2642 H         1 UNK         0.0600 
    187 H187        7.4841  -10.8892  -43.6269 H         1 UNK         0.0600 
    188 H188        7.6927  -12.0082  -44.9658 H         1 UNK         0.0600 
    189 H189        5.7618  -12.3800  -46.3993 H         1 UNK         0.3000 
    190 H190       -2.6973  -20.9548  -47.3571 H         1 UNK         0.3000 
    191 H191       -4.3289  -22.4604  -49.1010 H         1 UNK         0.0600 
    192 H192       -4.9729  -21.2459  -46.3658 H         1 UNK         0.0600 
    193 H193       -6.1628  -21.7620  -47.5572 H         1 UNK         0.0600 
    194 H194       -5.0876  -20.4218  -47.9207 H         1 UNK         0.0600 
    195 H195       -2.6538  -23.5500  -46.2614 H         1 UNK         0.3000 
    196 H196       -4.3004  -26.0121  -46.0181 H         1 UNK         0.0600 
    197 H197       -2.8594  -26.4425  -44.0409 H         1 UNK         0.0600 
    198 H198       -3.6496  -24.8770  -43.9213 H         1 UNK         0.0600 
    199 H199       -1.9471  -24.9711  -44.3562 H         1 UNK         0.0600 
    200 H200       -0.8719  -25.0093  -46.5961 H         1 UNK         0.3000 
    201 H201       -0.0061  -27.7050  -47.0583 H         1 UNK         0.0600 
    202 H202        1.4275  -25.9960  -45.9889 H         1 UNK         0.0600 
    203 H203        1.4347  -25.0335  -47.4643 H         1 UNK         0.0600 
    204 H204        2.1983  -26.6187  -47.4403 H         1 UNK         0.0600 
    205 H205       -0.4446  -24.8869  -49.2581 H         1 UNK         0.3000 
    206 H206        0.2544  -26.5165  -51.6336 H         1 UNK         0.0600 
    207 H207        1.1925  -24.2178  -51.4472 H         1 UNK         0.0600 
    208 H208        0.1101  -24.3446  -52.8225 H         1 UNK         0.0600 
    209 H209       -0.4295  -23.5414  -51.3619 H         1 UNK         0.0600 
    210 H210       -2.4504  -24.8242  -50.0993 H         1 UNK         0.3000 
    211 H211       -4.6659  -24.8910  -50.2701 H         1 UNK         0.0600 
    212 H212       -4.1631  -27.7998  -51.1213 H         1 UNK         0.0600 
    213 H213       -5.7130  -27.1528  -50.5781 H         1 UNK         0.0600 
    214 H214       -4.3480  -27.1994  -49.4796 H         1 UNK         0.0600 
    215 H215       -5.0786  -27.1305  -52.8308 H         1 UNK         0.3000 
    216 H216       -6.4634  -25.3524  -54.5171 H         1 UNK         0.0600 
    217 H217       -6.4005  -27.2684  -56.1278 H         1 UNK         0.0600 
    218 H218       -6.8253  -27.8029  -54.5100 H         1 UNK         0.0600 
    219 H219       -5.1966  -28.0764  -55.1306 H         1 UNK         0.0600 
    220 H220       -2.9946  -26.1181  -54.4188 H         1 UNK         0.3000 
    221 H221       -2.3714  -24.9881  -57.0150 H         1 UNK         0.0600 
    222 H222       -0.5811  -25.6085  -54.6124 H         1 UNK         0.0600 
    223 H223       -0.9145  -26.6838  -55.9650 H         1 UNK         0.0600 
    224 H224       -0.0208  -25.1941  -56.2256 H         1 UNK         0.0600 
    225 H225       -3.0517  -23.6071  -53.8997 H         1 UNK         0.3000 
    226 H226       -2.0783  -20.9033  -54.7301 H         1 UNK         0.0600 
    227 H227       -1.2244  -21.6367  -52.5303 H         1 UNK         0.0600 
    228 H228       -2.4047  -20.3627  -52.2964 H         1 UNK         0.0600 
    229 H229       -2.8529  -22.0337  -51.9816 H         1 UNK         0.0600 
    230 H230       -4.6783  -22.7700  -55.2261 H         1 UNK         0.3000 
    231 H231       -6.8678  -22.6553  -55.4545 H         1 UNK         0.0600 
    232 H232       -7.8445  -20.5666  -56.3349 H         1 UNK         0.0600 
    233 H233       -6.2517  -20.8036  -57.0331 H         1 UNK         0.0600 
    234 H234       -6.4823  -19.6268  -55.7403 H         1 UNK         0.0600 
    235 H235       -5.8388  -22.5796  -52.7558 H         1 UNK         0.3000 
    236 H236       -6.2323  -22.2121  -50.6239 H         1 UNK         0.0600 
    237 H237       -8.5516  -22.4218  -49.8098 H         1 UNK         0.0600 
    238 H238       -8.2950  -23.5284  -51.1477 H         1 UNK         0.0600 
    239 H239       -9.1888  -22.0296  -51.4021 H         1 UNK         0.0600 
    240 H240       -5.7458  -19.8241  -52.3376 H         1 UNK         0.3000 
    241 H241       -5.6378  -17.6612  -52.3552 H         1 UNK         0.0600 
    242 H242       -9.4229  -17.6164  -52.9805 H         1 UNK         0.3800 
    243 H243       -8.3671  -19.0073  -52.9540 H         1 UNK         0.3800 
    244 H244       -5.7890  -16.2599  -50.2737 H         1 UNK         0.0800 
    245 H245       -6.3919  -17.6347  -49.3967 H         1 UNK         0.0800 
    246 H246       -3.1551  -17.2047  -52.0286 H         1 UNK         0.0800 
    247 H247       -3.6022  -15.8042  -51.0801 H         1 UNK         0.0800 
@<TRIPOS>BOND
     1    1    2 1    
     2    1  127 1    
     3    1  128 1    
     4    1  129 1    
     5    2    3 2    
     6    2    4 am   BACKBONE|DICT|INTERRES
     7    4    5 1    
     8    4  130 1    
     9    5    6 1    
    10    5   65 1    
    11    5  131 1    
    12    6    7 1    
    13    6  132 1    
    14    6  133 1    
    15    7    8 1    
    16    8    9 1    
    17    8  134 1    
    18    8  135 1    
    19    9   10 ar   
    20    9   14 ar   
    21   10   11 ar   
    22   10  136 1    
    23   11   12 ar   
    24   11  126 1    
    25   12   13 ar   
    26   12  137 1    
    27   13   14 ar   
    28   13   15 1    
    29   14  138 1    
    30   15   16 1    
    31   15  139 1    
    32   15  140 1    
    33   16   17 1    
    34   17   18 1    
    35   17  141 1    
    36   17  142 1    
    37   18   19 1    
    38   18   67 1    
    39   18  143 1    
    40   19   20 am   BACKBONE|DICT|INTERRES
    41   19  144 1    
    42   20   21 2    
    43   20   22 1    
    44   22   23 1    
    45   22   24 1    
    46   22  145 1    
    47   23  146 1    
    48   23  147 1    
    49   23  148 1    
    50   24   25 am   BACKBONE|DICT|INTERRES
    51   24  149 1    
    52   25   26 2    
    53   25   27 1    
    54   27   28 1    
    55   27   29 1    
    56   27  150 1    
    57   28  151 1    
    58   28  152 1    
    59   28  153 1    
    60   29   30 am   BACKBONE|DICT|INTERRES
    61   29  154 1    
    62   30   31 2    
    63   30   32 1    
    64   32   33 1    
    65   32   34 1    
    66   32  155 1    
    67   33  156 1    
    68   33  157 1    
    69   33  158 1    
    70   34   35 am   BACKBONE|DICT|INTERRES
    71   34  159 1    
    72   35   36 2    
    73   35   37 1    
    74   37   38 1    
    75   37   39 1    
    76   37  160 1    
    77   38  161 1    
    78   38  162 1    
    79   38  163 1    
    80   39   40 am   BACKBONE|DICT|INTERRES
    81   39  164 1    
    82   40   41 2    
    83   40   42 1    
    84   42   43 1    
    85   42   44 1    
    86   42  165 1    
    87   43  166 1    
    88   43  167 1    
    89   43  168 1    
    90   44   45 am   BACKBONE|DICT|INTERRES
    91   44  169 1    
    92   45   46 2    
    93   45   47 1    
    94   47   48 1    
    95   47   49 1    
    96   47  170 1    
    97   48  171 1    
    98   48  172 1    
    99   48  173 1    
   100   49   50 am   BACKBONE|DICT|INTERRES
   101   49  174 1    
   102   50   51 2    
   103   50   52 1    
   104   52   53 1    
   105   52   54 1    
   106   52  175 1    
   107   53  176 1    
   108   53  177 1    
   109   53  178 1    
   110   54   55 am   BACKBONE|DICT|INTERRES
   111   54  179 1    
   112   55   56 2    
   113   55   57 1    
   114   57   58 1    
   115   57   59 1    
   116   57  180 1    
   117   58  181 1    
   118   58  182 1    
   119   58  183 1    
   120   59   60 am   BACKBONE|DICT|INTERRES
   121   59  184 1    
   122   60   61 2    
   123   60   62 1    
   124   62   63 1    
   125   62   64 1    
   126   62  185 1    
   127   63  186 1    
   128   63  187 1    
   129   63  188 1    
   130   64   65 am   BACKBONE|DICT|INTERRES
   131   64  189 1    
   132   65   66 2    
   133   67   68 2    
   134   67   69 am   BACKBONE|DICT|INTERRES
   135   69   70 1    
   136   69  190 1    
   137   70   71 1    
   138   70   72 1    
   139   70  191 1    
   140   71  192 1    
   141   71  193 1    
   142   71  194 1    
   143   72   73 2    
   144   72   74 am   BACKBONE|DICT|INTERRES
   145   74   75 1    
   146   74  195 1    
   147   75   76 1    
   148   75   77 1    
   149   75  196 1    
   150   76  197 1    
   151   76  198 1    
   152   76  199 1    
   153   77   78 2    
   154   77   79 am   BACKBONE|DICT|INTERRES
   155   79   80 1    
   156   79  200 1    
   157   80   81 1    
   158   80   82 1    
   159   80  201 1    
   160   81  202 1    
   161   81  203 1    
   162   81  204 1    
   163   82   83 2    
   164   82   84 am   BACKBONE|DICT|INTERRES
   165   84   85 1    
   166   84  205 1    
   167   85   86 1    
   168   85   87 1    
   169   85  206 1    
   170   86  207 1    
   171   86  208 1    
   172   86  209 1    
   173   87   88 2    
   174   87   89 am   BACKBONE|DICT|INTERRES
   175   89   90 1    
   176   89  210 1    
   177   90   91 1    
   178   90   92 1    
   179   90  211 1    
   180   91  212 1    
   181   91  213 1    
   182   91  214 1    
   183   92   93 2    
   184   92   94 am   BACKBONE|DICT|INTERRES
   185   94   95 1    
   186   94  215 1    
   187   95   96 1    
   188   95   97 1    
   189   95  216 1    
   190   96  217 1    
   191   96  218 1    
   192   96  219 1    
   193   97   98 2    
   194   97   99 am   BACKBONE|DICT|INTERRES
   195   99  100 1    
   196   99  220 1    
   197  100  101 1    
   198  100  102 1    
   199  100  221 1    
   200  101  222 1    
   201  101  223 1    
   202  101  224 1    
   203  102  103 2    
   204  102  104 am   BACKBONE|DICT|INTERRES
   205  104  105 1    
   206  104  225 1    
   207  105  106 1    
   208  105  107 1    
   209  105  226 1    
   210  106  227 1    
   211  106  228 1    
   212  106  229 1    
   213  107  108 2    
   214  107  109 am   BACKBONE|DICT|INTERRES
   215  109  110 1    
   216  109  230 1    
   217  110  111 1    
   218  110  112 1    
   219  110  231 1    
   220  111  232 1    
   221  111  233 1    
   222  111  234 1    
   223  112  113 2    
   224  112  114 am   BACKBONE|DICT|INTERRES
   225  114  115 1    
   226  114  235 1    
   227  115  116 1    
   228  115  117 1    
   229  115  236 1    
   230  116  237 1    
   231  116  238 1    
   232  116  239 1    
   233  117  118 2    
   234  117  119 am   BACKBONE|DICT|INTERRES
   235  119  120 1    
   236  119  240 1    
   237  120  121 1    
   238  120  124 1    
   239  120  241 1    
   240  121  122 am   BACKBONE|DICT|INTERRES
   241  121  123 2    
   242  122  242 1    
   243  122  243 1    
   244  124  125 1    
   245  124  244 1    
   246  124  245 1    
   247  125  126 1    
   248  126  246 1    
   249  126  247 1    
@<TRIPOS>SUBSTRUCTURE
     1 UNK         1 GROUP             0       ****    0 ROOT    
