@<TRIPOS>MOLECULE
3R540
247   249    1
SMALL
USER_CHARGES


@<TRIPOS>ATOM
      1 CA          4.7590  -19.3385  -47.3701 C.3       0 UNK        -0.1800 
      2 C           4.1104  -18.2308  -46.5534 C.2       0 UNK         0.5000 
      3 O           4.3080  -18.1773  -45.3405 O.2       0 UNK        -0.5000 
      4 N           3.3504  -17.3457  -47.2116 N.am      1 UNK        -0.5000 
      5 CA          2.7848  -16.1240  -46.6278 C.3       1 UNK         0.1400 
      6 C6          1.7250  -15.4705  -47.5535 C.3       23 UNK        -0.0398 
      7 S7          2.3110  -15.1381  -49.2550 S.3       23 UNK        -0.2404 
      8 C8          0.7593  -15.1759  -50.2187 C.3       23 UNK        -0.0205 
      9 C9          0.0527  -16.5292  -50.2182 C.ar      23 UNK        -0.0193 
     10 C10        -1.3362  -16.5849  -50.0571 C.ar      23 UNK        -0.1150 
     11 C11        -2.0068  -17.8119  -50.0470 C.ar      23 UNK        -0.0193 
     12 C12        -1.2705  -18.9909  -50.1805 C.ar      23 UNK        -0.1150 
     13 C13         0.1122  -18.9525  -50.3684 C.ar      23 UNK        -0.0193 
     14 C14         0.7673  -17.7190  -50.3991 C.ar      23 UNK        -0.1150 
     15 C15         0.8917  -20.2488  -50.5266 C.3       23 UNK        -0.0205 
     16 S16         1.9905  -20.5906  -49.1129 S.3       23 UNK        -0.2404 
     17 C17         0.8783  -20.4563  -47.6694 C.3       23 UNK        -0.0398 
     18 CA          0.3307  -21.8158  -47.1819 C.3       11 UNK         0.1400 
     19 N          -0.1538  -21.7271  -45.8025 N.am      11 UNK        -0.5000 
     20 C          -0.5974  -22.7564  -45.0673 C.2       10 UNK         0.5000 
     21 O          -0.6219  -23.9227  -45.4597 O.2       10 UNK        -0.5000 
     22 CA         -1.1650  -22.4085  -43.6823 C.3       10 UNK         0.1400 
     23 CB         -0.0389  -22.1761  -42.6634 C.3       10 UNK        -0.1800 
     24 N          -2.0270  -21.2286  -43.7488 N.am      10 UNK        -0.5000 
     25 C          -3.2532  -21.2265  -44.2914 C.2       9 UNK         0.5000 
     26 O          -3.8122  -22.2363  -44.7204 O.2       9 UNK        -0.5000 
     27 CA         -3.9593  -19.8611  -44.4010 C.3       9 UNK         0.1400 
     28 CB         -4.7169  -19.5383  -43.1046 C.3       9 UNK        -0.1800 
     29 N          -3.0415  -18.7617  -44.7116 N.am      9 UNK        -0.5000 
     30 C          -2.3708  -18.6422  -45.8660 C.2       8 UNK         0.5000 
     31 O          -2.4567  -19.4469  -46.7885 O.2       8 UNK        -0.5000 
     32 CA         -1.3991  -17.4587  -45.9967 C.3       8 UNK         0.1400 
     33 CB         -2.1331  -16.2017  -46.4857 C.3       8 UNK        -0.1800 
     34 N          -0.6979  -17.1467  -44.7531 N.am      8 UNK        -0.5000 
     35 C           0.1151  -17.9679  -44.0765 C.2       7 UNK         0.5000 
     36 O           0.3417  -19.1264  -44.4301 O.2       7 UNK        -0.5000 
     37 CA          0.7352  -17.4371  -42.7621 C.3       7 UNK         0.1400 
     38 CB          2.2726  -17.5305  -42.7699 C.3       7 UNK        -0.1800 
     39 N           0.3018  -16.0929  -42.3418 N.am      7 UNK        -0.5000 
     40 C           0.4842  -14.9223  -42.9729 C.2       6 UNK         0.5000 
     41 O           1.0340  -14.8059  -44.0674 O.2       6 UNK        -0.5000 
     42 CA         -0.0258  -13.6776  -42.2425 C.3       6 UNK         0.1400 
     43 CB         -1.4989  -13.8006  -41.8062 C.3       6 UNK        -0.1800 
     44 N           0.8438  -13.4457  -41.0974 N.am      6 UNK        -0.5000 
     45 C           1.0826  -12.2510  -40.5498 C.2       5 UNK         0.5000 
     46 O           0.4745  -11.2226  -40.8520 O.2       5 UNK        -0.5000 
     47 CA          2.2221  -12.1712  -39.5237 C.3       5 UNK         0.1400 
     48 CB          2.7046  -13.5354  -38.9856 C.3       5 UNK        -0.1800 
     49 N           3.3301  -11.4824  -40.1717 N.am      5 UNK        -0.5000 
     50 C           4.1727  -10.6307  -39.5764 C.2       4 UNK         0.5000 
     51 O           4.1334  -10.3613  -38.3749 O.2       4 UNK        -0.5000 
     52 CA          5.2504   -9.9683  -40.4613 C.3       4 UNK         0.1400 
     53 CB          6.6238  -10.6067  -40.1996 C.3       4 UNK        -0.1800 
     54 N           4.9644  -10.0497  -41.8955 N.am      4 UNK        -0.5000 
     55 C           4.0087   -9.3615  -42.5359 C.2       3 UNK         0.5000 
     56 O           3.2942   -8.5198  -41.9909 O.2       3 UNK        -0.5000 
     57 CA          3.8094   -9.6716  -44.0343 C.3       3 UNK         0.1400 
     58 CB          4.4311   -8.5642  -44.8994 C.3       3 UNK        -0.1800 
     59 N           4.3610  -10.9660  -44.4528 N.am      3 UNK        -0.5000 
     60 C           3.8739  -12.1589  -44.0879 C.2       2 UNK         0.5000 
     61 O           2.9168  -12.3026  -43.3273 O.2       2 UNK        -0.5000 
     62 CA          4.6154  -13.3923  -44.6125 C.3       2 UNK         0.1400 
     63 CB          5.4209  -14.0620  -43.4860 C.3       2 UNK        -0.1800 
     64 N           3.6587  -14.3485  -45.1626 N.am      2 UNK        -0.5000 
     65 C           3.8981  -15.1281  -46.2228 C.2       1 UNK         0.5000 
     66 O           4.9469  -15.0831  -46.8735 O.2       1 UNK        -0.5000 
     67 C          -0.7408  -22.3798  -48.1399 C.2       11 UNK         0.5000 
     68 O          -0.4277  -23.2476  -48.9535 O.2       11 UNK        -0.5000 
     69 N          -1.9917  -21.9199  -47.9948 N.am      12 UNK        -0.5000 
     70 CA         -3.1554  -22.3702  -48.7589 C.3       12 UNK         0.1400 
     71 CB         -4.3882  -21.5555  -48.3445 C.3       12 UNK        -0.1800 
     72 C          -3.4333  -23.8765  -48.6276 C.2       12 UNK         0.5000 
     73 O          -3.8294  -24.5012  -49.6116 O.2       12 UNK        -0.5000 
     74 N          -3.1933  -24.4328  -47.4342 N.am      13 UNK        -0.5000 
     75 CA         -3.2760  -25.8655  -47.1714 C.3       13 UNK         0.1400 
     76 CB         -3.4763  -26.0987  -45.6657 C.3       13 UNK        -0.1800 
     77 C          -2.0312  -26.6088  -47.6878 C.2       13 UNK         0.5000 
     78 O          -2.1728  -27.6195  -48.3759 O.2       13 UNK        -0.5000 
     79 N          -0.8392  -26.0966  -47.3495 N.am      14 UNK        -0.5000 
     80 CA          0.4551  -26.7193  -47.6366 C.3       14 UNK         0.1400 
     81 CB          1.5600  -25.9699  -46.8763 C.3       14 UNK        -0.1800 
     82 C           0.7934  -26.8012  -49.1358 C.2       14 UNK         0.5000 
     83 O           1.2408  -27.8506  -49.6000 O.2       14 UNK        -0.5000 
     84 N           0.5716  -25.7007  -49.8644 N.am      15 UNK        -0.5000 
     85 CA          0.8308  -25.5895  -51.3019 C.3       15 UNK         0.1400 
     86 CB          1.2554  -24.1442  -51.6150 C.3       15 UNK        -0.1800 
     87 C          -0.3907  -25.9827  -52.1545 C.2       15 UNK         0.5000 
     88 O          -0.2793  -26.0113  -53.3803 O.2       15 UNK        -0.5000 
     89 N          -1.5361  -26.2345  -51.5012 N.am      16 UNK        -0.5000 
     90 CA         -2.8620  -26.4945  -52.0771 C.3       16 UNK         0.1400 
     91 CB         -2.8655  -27.7779  -52.9325 C.3       16 UNK        -0.1800 
     92 C          -3.4574  -25.2805  -52.8250 C.2       16 UNK         0.5000 
     93 O          -4.4070  -25.4368  -53.5944 O.2       16 UNK        -0.5000 
     94 N          -2.9287  -24.0775  -52.5532 N.am      17 UNK        -0.5000 
     95 CA         -3.3598  -22.8040  -53.1341 C.3       17 UNK         0.1400 
     96 CB         -2.3051  -21.7270  -52.8413 C.3       17 UNK        -0.1800 
     97 C          -4.7764  -22.3628  -52.7066 C.2       17 UNK         0.5000 
     98 O          -5.3347  -21.4563  -53.3252 O.2       17 UNK        -0.5000 
     99 N          -5.3717  -23.0512  -51.7201 N.am      18 UNK        -0.5000 
    100 CA        -6.7973  -22.9844  -51.3919 C.3       18 UNK         0.1400 
    101 CB        -7.0926  -23.9087  -50.1993 C.3       18 UNK        -0.1800 
    102 C         -7.7024  -23.3673  -52.5810 C.2       18 UNK         0.5000 
    103 O         -8.7515  -22.7502  -52.7628 O.2       18 UNK        -0.5000 
    104 N         -7.2646  -24.3434  -53.3929 N.am      19 UNK        -0.5000 
    105 CA        -7.9585  -24.7802  -54.6078 C.3       19 UNK         0.1400 
    106 CB        -7.4271  -26.1584  -55.0297 C.3       19 UNK        -0.1800 
    107 C         -7.8227  -23.7703  -55.7637 C.2       19 UNK         0.5000 
    108 O         -8.7090  -23.6994  -56.6154 O.2       19 UNK        -0.5000 
    109 N         -6.7311  -22.9925  -55.7589 N.am      20 UNK        -0.5000 
    110 CA        -6.4847  -21.8857  -56.6860 C.3       20 UNK         0.1400 
    111 CB        -4.9684  -21.6532  -56.7927 C.3       20 UNK        -0.1800 
    112 C         -7.2081  -20.5876  -56.2686 C.2       20 UNK         0.5000 
    113 O         -7.2601  -19.6511  -57.0666 O.2       20 UNK        -0.5000 
    114 N         -7.7462  -20.5593  -55.0391 N.am      21 UNK        -0.5000 
    115 CA        -8.4467  -19.4530  -54.3846 C.3       21 UNK         0.1400 
    116 CB        -9.7769  -19.1424  -55.1029 C.3       21 UNK        -0.1800 
    117 C         -7.5415  -18.2183  -54.2040 C.2       21 UNK         0.5000 
    118 O         -7.8903  -17.1205  -54.6445 O.2       21 UNK        -0.5000 
    119 N         -6.3791  -18.4351  -53.5741 N.am      22 UNK        -0.5000 
    120 CA        -5.3991  -17.3951  -53.2205 C.3       22 UNK         0.1400 
    121 C         -5.9509  -16.2570  -52.3082 C.2       22 UNK         0.5000 
    122 N         -5.3409  -15.0793  -52.3467 N.am      22 UNK        -0.7600 
    123 O         -6.8987  -16.4340  -51.5452 O.2       22 UNK        -0.5000 
    124 C124       -4.1031  -18.0168  -52.6394 C.3       23 UNK        -0.0398 
    125 S125       -4.3474  -18.9480  -51.0838 S.3       23 UNK        -0.2404 
    126 C126       -3.5208  -17.8618  -49.8713 C.3       23 UNK        -0.0205 
    127 H127        5.8326  -19.3623  -47.1836 H         1 UNK         0.0600 
    128 H128        4.6067  -19.1943  -48.4400 H         1 UNK         0.0600 
    129 H129        4.3422  -20.3056  -47.0893 H         1 UNK         0.0600 
    130 H130        3.2516  -17.4239  -48.2134 H         1 UNK         0.3000 
    131 H131        2.2702  -16.4271  -45.7159 H         1 UNK         0.0600 
    132 H132        1.3509  -14.5418  -47.1188 H         1 UNK         0.0800 
    133 H133        0.8621  -16.1323  -47.6108 H         1 UNK         0.0800 
    134 H134        0.0981  -14.3975  -49.8346 H         1 UNK         0.0800 
    135 H135        0.9846  -14.9065  -51.2511 H         1 UNK         0.0800 
    136 H136       -1.8982  -15.6692  -49.9371 H         1 UNK         0.1150 
    137 H137       -1.7816  -19.9410  -50.1417 H         1 UNK         0.1150 
    138 H138        1.8378  -17.6902  -50.5443 H         1 UNK         0.1150 
    139 H139        0.2145  -21.0920  -50.6654 H         1 UNK         0.0800 
    140 H140        1.4940  -20.1945  -51.4343 H         1 UNK         0.0800 
    141 H141        1.4732  -20.0026  -46.8754 H         1 UNK         0.0800 
    142 H142        0.0704  -19.7505  -47.8545 H         1 UNK         0.0800 
    143 H143        1.1592  -22.5266  -47.1689 H         1 UNK         0.0600 
    144 H144       -0.1445  -20.8042  -45.3790 H         1 UNK         0.3000 
    145 H145       -1.7609  -23.2575  -43.3398 H         1 UNK         0.0600 
    146 H146       -0.4418  -21.9702  -41.6717 H         1 UNK         0.0600 
    147 H147        0.5955  -23.0594  -42.5790 H         1 UNK         0.0600 
    148 H148        0.6018  -21.3401  -42.9449 H         1 UNK         0.0600 
    149 H149       -1.6208  -20.3504  -43.4621 H         1 UNK         0.3000 
    150 H150       -4.6865  -19.9313  -45.2129 H         1 UNK         0.0600 
    151 H151       -5.4239  -20.3317  -42.8582 H         1 UNK         0.0600 
    152 H152       -5.2880  -18.6147  -43.2011 H         1 UNK         0.0600 
    153 H153       -4.0389  -19.4278  -42.2574 H         1 UNK         0.0600 
    154 H154       -2.9087  -18.0588  -43.9998 H         1 UNK         0.3000 
    155 H155       -0.6517  -17.7323  -46.7430 H         1 UNK         0.0600 
    156 H156       -1.4339  -15.3915  -46.6930 H         1 UNK         0.0600 
    157 H157       -2.8533  -15.8434  -45.7492 H         1 UNK         0.0600 
    158 H158       -2.6809  -16.3996  -47.4068 H         1 UNK         0.0600 
    159 H159       -0.7928  -16.2035  -44.4068 H         1 UNK         0.3000 
    160 H160        0.3781  -18.1173  -41.9876 H         1 UNK         0.0600 
    161 H161        2.7250  -16.8299  -43.4702 H         1 UNK         0.0600 
    162 H162        2.6067  -18.5308  -43.0486 H         1 UNK         0.0600 
    163 H163        2.6816  -17.3184  -41.7823 H         1 UNK         0.0600 
    164 H164       -0.1914  -16.0688  -41.4599 H         1 UNK         0.3000 
    165 H165        0.0629  -12.8395  -42.9378 H         1 UNK         0.0600 
    166 H166       -1.6372  -14.5533  -41.0298 H         1 UNK         0.0600 
    167 H167       -1.8690  -12.8532  -41.4140 H         1 UNK         0.0600 
    168 H168       -2.1359  -14.0707  -42.6494 H         1 UNK         0.0600 
    169 H169        1.4239  -14.2262  -40.8230 H         1 UNK         0.3000 
    170 H170        1.8489  -11.5777  -38.6865 H         1 UNK         0.0600 
    171 H171        1.8815  -14.1000  -38.5455 H         1 UNK         0.0600 
    172 H172        3.1579  -14.1479  -39.7661 H         1 UNK         0.0600 
    173 H173        3.4519  -13.3994  -38.2035 H         1 UNK         0.0600 
    174 H174        3.3886  -11.6066  -41.1755 H         1 UNK         0.3000 
    175 H175        5.3025   -8.9144  -40.1802 H         1 UNK         0.0600 
    176 H176        6.6348  -11.6629  -40.4723 H         1 UNK         0.0600 
    177 H177        7.4077  -10.1041  -40.7665 H         1 UNK         0.0600 
    178 H178        6.8933  -10.5375  -39.1448 H         1 UNK         0.0600 
    179 H179        5.5133  -10.7072  -42.4286 H         1 UNK         0.3000 
    180 H180        2.7333   -9.6871  -44.2206 H         1 UNK         0.0600 
    181 H181        4.0205   -7.5875  -44.6396 H         1 UNK         0.0600 
    182 H182        4.2277   -8.7285  -45.9577 H         1 UNK         0.0600 
    183 H183        5.5126   -8.5106  -44.7683 H         1 UNK         0.0600 
    184 H184        5.1599  -10.9303  -45.0700 H         1 UNK         0.3000 
    185 H185        5.3078  -13.0666  -45.3918 H         1 UNK         0.0600 
    186 H186        6.1369  -13.3662  -43.0470 H         1 UNK         0.0600 
    187 H187        4.7712  -14.4169  -42.6846 H         1 UNK         0.0600 
    188 H188        5.9851  -14.9165  -43.8603 H         1 UNK         0.0600 
    189 H189        2.7557  -14.3928  -44.6913 H         1 UNK         0.3000 
    190 H190       -2.1555  -21.1473  -47.3521 H         1 UNK         0.3000 
    191 H191       -2.9550  -22.1660  -49.8087 H         1 UNK         0.0600 
    192 H192       -5.2413  -21.7818  -48.9817 H         1 UNK         0.0600 
    193 H193       -4.2055  -20.4873  -48.4388 H         1 UNK         0.0600 
    194 H194       -4.6781  -21.7548  -47.3127 H         1 UNK         0.0600 
    195 H195       -2.8583  -23.8457  -46.6824 H         1 UNK         0.3000 
    196 H196       -4.1485  -26.2689  -47.6904 H         1 UNK         0.0600 
    197 H197       -3.5602  -27.1632  -45.4440 H         1 UNK         0.0600 
    198 H198       -4.3897  -25.6194  -45.3128 H         1 UNK         0.0600 
    199 H199       -2.6466  -25.7051  -45.0779 H         1 UNK         0.0600 
    200 H200       -0.8144  -25.2625  -46.7678 H         1 UNK         0.3000 
    201 H201        0.4189  -27.7411  -47.2530 H         1 UNK         0.0600 
    202 H202        1.3800  -25.9870  -45.8013 H         1 UNK         0.0600 
    203 H203        1.6247  -24.9270  -47.1876 H         1 UNK         0.0600 
    204 H204        2.5351  -26.4267  -47.0502 H         1 UNK         0.0600 
    205 H205        0.1991  -24.8663  -49.4114 H         1 UNK         0.3000 
    206 H206        1.6545  -26.2507  -51.5785 H         1 UNK         0.0600 
    207 H207        2.0873  -23.8284  -50.9850 H         1 UNK         0.0600 
    208 H208        1.5783  -24.0479  -52.6523 H         1 UNK         0.0600 
    209 H209        0.4359  -23.4415  -51.4639 H         1 UNK         0.0600 
    210 H210       -1.5069  -26.1957  -50.4915 H         1 UNK         0.3000 
    211 H211       -3.5225  -26.6727  -51.2276 H         1 UNK         0.0600 
    212 H212       -2.3000  -27.6543  -53.8562 H         1 UNK         0.0600 
    213 H213       -3.8822  -28.0578  -53.2109 H         1 UNK         0.0600 
    214 H214       -2.4378  -28.6177  -52.3849 H         1 UNK         0.0600 
    215 H215       -2.1810  -24.0394  -51.8772 H         1 UNK         0.3000 
    216 H216       -3.3953  -22.9401  -54.2167 H         1 UNK         0.0600 
    217 H217       -2.5723  -20.7814  -53.3123 H         1 UNK         0.0600 
    218 H218       -1.3293  -22.0153  -53.2325 H         1 UNK         0.0600 
    219 H219       -2.1934  -21.5410  -51.7764 H         1 UNK         0.0600 
    220 H220       -4.8288  -23.7511  -51.2258 H         1 UNK         0.3000 
    221 H221       -7.0294  -21.9563  -51.1064 H         1 UNK         0.0600 
    222 H222       -6.8316  -24.9445  -50.4206 H         1 UNK         0.0600 
    223 H223       -6.5396  -23.6131  -49.3096 H         1 UNK         0.0600 
    224 H224       -8.1518  -23.8853  -49.9400 H         1 UNK         0.0600 
    225 H225       -6.3676  -24.7792  -53.2070 H         1 UNK         0.3000 
    226 H226       -9.0215  -24.8826  -54.3794 H         1 UNK         0.0600 
    227 H227       -7.5344  -26.8869  -54.2259 H         1 UNK         0.0600 
    228 H228       -7.9769  -26.5403  -55.8907 H         1 UNK         0.0600 
    229 H229       -6.3734  -26.1172  -55.3074 H         1 UNK         0.0600 
    230 H230       -6.0645  -23.1080  -55.0100 H         1 UNK         0.3000 
    231 H231       -6.8540  -22.1641  -57.6752 H         1 UNK         0.0600 
    232 H232       -4.7439  -20.8995  -57.5485 H         1 UNK         0.0600 
    233 H233       -4.4466  -22.5659  -57.0808 H         1 UNK         0.0600 
    234 H234       -4.5433  -21.3040  -55.8519 H         1 UNK         0.0600 
    235 H235       -7.6080  -21.3770  -54.4619 H         1 UNK         0.3000 
    236 H236       -8.6934  -19.8006  -53.3802 H         1 UNK         0.0600 
    237 H237      -10.3993  -20.0340  -55.1792 H         1 UNK         0.0600 
    238 H238      -10.3489  -18.3934  -54.5540 H         1 UNK         0.0600 
    239 H239       -9.6179  -18.7573  -56.1104 H         1 UNK         0.0600 
    240 H240       -6.1506  -19.3756  -53.2736 H         1 UNK         0.3000 
    241 H241       -5.1282  -16.9207  -54.1656 H         1 UNK         0.0600 
    242 H242       -4.5628  -14.9022  -52.9628 H         1 UNK         0.3800 
    243 H243       -5.6803  -14.3358  -51.7564 H         1 UNK         0.3800 
    244 H244       -3.6780  -18.7030  -53.3718 H         1 UNK         0.0800 
    245 H245       -3.3433  -17.2473  -52.4950 H         1 UNK         0.0800 
    246 H246       -3.7423  -18.2221  -48.8672 H         1 UNK         0.0800 
    247 H247       -3.9541  -16.8629  -49.9401 H         1 UNK         0.0800 
@<TRIPOS>BOND
     1    1    2 1    
     2    1  127 1    
     3    1  128 1    
     4    1  129 1    
     5    2    3 2    
     6    2    4 am   BACKBONE|DICT|INTERRES
     7    4    5 1    
     8    4  130 1    
     9    5    6 1    
    10    5   65 1    
    11    5  131 1    
    12    6    7 1    
    13    6  132 1    
    14    6  133 1    
    15    7    8 1    
    16    8    9 1    
    17    8  134 1    
    18    8  135 1    
    19    9   10 ar   
    20    9   14 ar   
    21   10   11 ar   
    22   10  136 1    
    23   11   12 ar   
    24   11  126 1    
    25   12   13 ar   
    26   12  137 1    
    27   13   14 ar   
    28   13   15 1    
    29   14  138 1    
    30   15   16 1    
    31   15  139 1    
    32   15  140 1    
    33   16   17 1    
    34   17   18 1    
    35   17  141 1    
    36   17  142 1    
    37   18   19 1    
    38   18   67 1    
    39   18  143 1    
    40   19   20 am   BACKBONE|DICT|INTERRES
    41   19  144 1    
    42   20   21 2    
    43   20   22 1    
    44   22   23 1    
    45   22   24 1    
    46   22  145 1    
    47   23  146 1    
    48   23  147 1    
    49   23  148 1    
    50   24   25 am   BACKBONE|DICT|INTERRES
    51   24  149 1    
    52   25   26 2    
    53   25   27 1    
    54   27   28 1    
    55   27   29 1    
    56   27  150 1    
    57   28  151 1    
    58   28  152 1    
    59   28  153 1    
    60   29   30 am   BACKBONE|DICT|INTERRES
    61   29  154 1    
    62   30   31 2    
    63   30   32 1    
    64   32   33 1    
    65   32   34 1    
    66   32  155 1    
    67   33  156 1    
    68   33  157 1    
    69   33  158 1    
    70   34   35 am   BACKBONE|DICT|INTERRES
    71   34  159 1    
    72   35   36 2    
    73   35   37 1    
    74   37   38 1    
    75   37   39 1    
    76   37  160 1    
    77   38  161 1    
    78   38  162 1    
    79   38  163 1    
    80   39   40 am   BACKBONE|DICT|INTERRES
    81   39  164 1    
    82   40   41 2    
    83   40   42 1    
    84   42   43 1    
    85   42   44 1    
    86   42  165 1    
    87   43  166 1    
    88   43  167 1    
    89   43  168 1    
    90   44   45 am   BACKBONE|DICT|INTERRES
    91   44  169 1    
    92   45   46 2    
    93   45   47 1    
    94   47   48 1    
    95   47   49 1    
    96   47  170 1    
    97   48  171 1    
    98   48  172 1    
    99   48  173 1    
   100   49   50 am   BACKBONE|DICT|INTERRES
   101   49  174 1    
   102   50   51 2    
   103   50   52 1    
   104   52   53 1    
   105   52   54 1    
   106   52  175 1    
   107   53  176 1    
   108   53  177 1    
   109   53  178 1    
   110   54   55 am   BACKBONE|DICT|INTERRES
   111   54  179 1    
   112   55   56 2    
   113   55   57 1    
   114   57   58 1    
   115   57   59 1    
   116   57  180 1    
   117   58  181 1    
   118   58  182 1    
   119   58  183 1    
   120   59   60 am   BACKBONE|DICT|INTERRES
   121   59  184 1    
   122   60   61 2    
   123   60   62 1    
   124   62   63 1    
   125   62   64 1    
   126   62  185 1    
   127   63  186 1    
   128   63  187 1    
   129   63  188 1    
   130   64   65 am   BACKBONE|DICT|INTERRES
   131   64  189 1    
   132   65   66 2    
   133   67   68 2    
   134   67   69 am   BACKBONE|DICT|INTERRES
   135   69   70 1    
   136   69  190 1    
   137   70   71 1    
   138   70   72 1    
   139   70  191 1    
   140   71  192 1    
   141   71  193 1    
   142   71  194 1    
   143   72   73 2    
   144   72   74 am   BACKBONE|DICT|INTERRES
   145   74   75 1    
   146   74  195 1    
   147   75   76 1    
   148   75   77 1    
   149   75  196 1    
   150   76  197 1    
   151   76  198 1    
   152   76  199 1    
   153   77   78 2    
   154   77   79 am   BACKBONE|DICT|INTERRES
   155   79   80 1    
   156   79  200 1    
   157   80   81 1    
   158   80   82 1    
   159   80  201 1    
   160   81  202 1    
   161   81  203 1    
   162   81  204 1    
   163   82   83 2    
   164   82   84 am   BACKBONE|DICT|INTERRES
   165   84   85 1    
   166   84  205 1    
   167   85   86 1    
   168   85   87 1    
   169   85  206 1    
   170   86  207 1    
   171   86  208 1    
   172   86  209 1    
   173   87   88 2    
   174   87   89 am   BACKBONE|DICT|INTERRES
   175   89   90 1    
   176   89  210 1    
   177   90   91 1    
   178   90   92 1    
   179   90  211 1    
   180   91  212 1    
   181   91  213 1    
   182   91  214 1    
   183   92   93 2    
   184   92   94 am   BACKBONE|DICT|INTERRES
   185   94   95 1    
   186   94  215 1    
   187   95   96 1    
   188   95   97 1    
   189   95  216 1    
   190   96  217 1    
   191   96  218 1    
   192   96  219 1    
   193   97   98 2    
   194   97   99 am   BACKBONE|DICT|INTERRES
   195   99  100 1    
   196   99  220 1    
   197  100  101 1    
   198  100  102 1    
   199  100  221 1    
   200  101  222 1    
   201  101  223 1    
   202  101  224 1    
   203  102  103 2    
   204  102  104 am   BACKBONE|DICT|INTERRES
   205  104  105 1    
   206  104  225 1    
   207  105  106 1    
   208  105  107 1    
   209  105  226 1    
   210  106  227 1    
   211  106  228 1    
   212  106  229 1    
   213  107  108 2    
   214  107  109 am   BACKBONE|DICT|INTERRES
   215  109  110 1    
   216  109  230 1    
   217  110  111 1    
   218  110  112 1    
   219  110  231 1    
   220  111  232 1    
   221  111  233 1    
   222  111  234 1    
   223  112  113 2    
   224  112  114 am   BACKBONE|DICT|INTERRES
   225  114  115 1    
   226  114  235 1    
   227  115  116 1    
   228  115  117 1    
   229  115  236 1    
   230  116  237 1    
   231  116  238 1    
   232  116  239 1    
   233  117  118 2    
   234  117  119 am   BACKBONE|DICT|INTERRES
   235  119  120 1    
   236  119  240 1    
   237  120  121 1    
   238  120  124 1    
   239  120  241 1    
   240  121  122 am   BACKBONE|DICT|INTERRES
   241  121  123 2    
   242  122  242 1    
   243  122  243 1    
   244  124  125 1    
   245  124  244 1    
   246  124  245 1    
   247  125  126 1    
   248  126  246 1    
   249  126  247 1    
@<TRIPOS>SUBSTRUCTURE
     1 UNK         1 GROUP             0       ****    0 ROOT    
