@<TRIPOS>MOLECULE
3R540
247   249    1
SMALL
USER_CHARGES


@<TRIPOS>ATOM
      1 CA         -2.2882  -12.1376  -51.5913 C.3       0 UNK        -0.1800 
      2 C          -2.3320  -12.8076  -50.2267 C.2       0 UNK         0.5000 
      3 O          -1.3156  -13.3167  -49.7596 O.2       0 UNK        -0.5000 
      4 N          -3.5004  -12.8012  -49.5726 N.am      1 UNK        -0.5000 
      5 CA         -3.7690  -13.4820  -48.2941 C.3       1 UNK         0.1400 
      6 C6         -5.2855  -13.5444  -47.9771 C.3       23 UNK        -0.0398 
      7 S7         -6.2938  -14.2045  -49.3550 S.3       23 UNK        -0.2404 
      8 C8         -7.1559  -15.6200  -48.5990 C.3       23 UNK        -0.0205 
      9 C9         -6.3420  -16.9034  -48.6773 C.ar      23 UNK        -0.0193 
     10 C10        -6.4153  -17.7140  -49.8154 C.ar      23 UNK        -0.1150 
     11 C11        -5.6905  -18.9089  -49.8893 C.ar      23 UNK        -0.0193 
     12 C12        -4.8965  -19.2950  -48.8060 C.ar      23 UNK        -0.1150 
     13 C13        -4.8100  -18.4890  -47.6678 C.ar      23 UNK        -0.0193 
     14 C14        -5.5349  -17.2956  -47.6068 C.ar      23 UNK        -0.1150 
     15 C15        -3.8995  -18.8868  -46.5225 C.3       23 UNK        -0.0205 
     16 S16        -4.7085  -19.9926  -45.3359 S.3       23 UNK        -0.2404 
     17 C17        -3.2582  -20.4989  -44.3432 C.3       23 UNK        -0.0398 
     18 CA         -2.6117  -21.8019  -44.8737 C.3       11 UNK         0.1400 
     19 N          -1.1938  -21.9287  -44.5029 N.am      11 UNK        -0.5000 
     20 C          -0.3594  -22.8768  -44.9652 C.2       10 UNK         0.5000 
     21 O          -0.7229  -23.7823  -45.7205 O.2       10 UNK        -0.5000 
     22 CA          1.1130  -22.8435  -44.5171 C.3       10 UNK         0.1400 
     23 CB          2.0480  -22.6988  -45.7264 C.3       10 UNK        -0.1800 
     24 N           1.4049  -21.7625  -43.5805 N.am      10 UNK        -0.5000 
     25 C           1.4316  -21.8831  -42.2473 C.2       9 UNK         0.5000 
     26 O           1.1420  -22.9196  -41.6478 O.2       9 UNK        -0.5000 
     27 CA          1.8631  -20.6410  -41.4381 C.3       9 UNK         0.1400 
     28 CB          2.7300  -19.6506  -42.2465 C.3       9 UNK        -0.1800 
     29 N           0.7419  -19.9253  -40.8229 N.am      9 UNK        -0.5000 
     30 C          -0.3562  -19.4679  -41.4396 C.2       8 UNK         0.5000 
     31 O          -0.6436  -19.7202  -42.6099 O.2       8 UNK        -0.5000 
     32 CA         -1.2877  -18.5322  -40.6458 C.3       8 UNK         0.1400 
     33 CB         -0.9730  -18.4151  -39.1367 C.3       8 UNK        -0.1800 
     34 N          -1.3173  -17.2241  -41.3044 N.am      8 UNK        -0.5000 
     35 C          -0.2993  -16.3637  -41.4551 C.2       7 UNK         0.5000 
     36 O           0.7796  -16.4546  -40.8669 O.2       7 UNK        -0.5000 
     37 CA         -0.5194  -15.2490  -42.4988 C.3       7 UNK         0.1400 
     38 CB          0.4677  -14.0795  -42.3358 C.3       7 UNK        -0.1800 
     39 N          -0.3843  -15.7800  -43.8536 N.am      7 UNK        -0.5000 
     40 C          -1.2460  -16.5971  -44.4707 C.2       6 UNK         0.5000 
     41 O          -2.3256  -16.9341  -43.9828 O.2       6 UNK        -0.5000 
     42 CA         -0.8381  -17.1426  -45.8501 C.3       6 UNK         0.1400 
     43 CB         -1.4319  -16.2817  -46.9763 C.3       6 UNK        -0.1800 
     44 N           0.6095  -17.2110  -46.0277 N.am      6 UNK        -0.5000 
     45 C           1.3562  -18.3083  -45.8490 C.2       5 UNK         0.5000 
     46 O           0.9109  -19.3900  -45.4662 O.2       5 UNK        -0.5000 
     47 CA          2.8558  -18.1966  -46.1838 C.3       5 UNK         0.1400 
     48 CB          3.1182  -18.7437  -47.5959 C.3       5 UNK        -0.1800 
     49 N           3.3621  -16.8247  -46.1030 N.am      5 UNK        -0.5000 
     50 C           3.6429  -16.1906  -44.9564 C.2       4 UNK         0.5000 
     51 O           3.5713  -16.7205  -43.8485 O.2       4 UNK        -0.5000 
     52 CA          4.0483  -14.7054  -45.0585 C.3       4 UNK         0.1400 
     53 CB          5.5762  -14.5724  -45.1471 C.3       4 UNK        -0.1800 
     54 N           3.4372  -13.9720  -46.1750 N.am      4 UNK        -0.5000 
     55 C           2.1198  -13.8276  -46.3697 C.2       3 UNK         0.5000 
     56 O           1.2701  -14.4000  -45.6878 O.2       3 UNK        -0.5000 
     57 CA          1.6842  -12.9393  -47.5504 C.3       3 UNK         0.1400 
     58 CB          1.7198  -13.7510  -48.8543 C.3       3 UNK        -0.1800 
     59 N           0.3411  -12.3747  -47.3740 N.am      3 UNK        -0.5000 
     60 C          -0.0150  -11.5322  -46.3895 C.2       2 UNK         0.5000 
     61 O           0.7794  -11.1005  -45.5521 O.2       2 UNK        -0.5000 
     62 CA         -1.4825  -11.0536  -46.3271 C.3       2 UNK         0.1400 
     63 CB         -1.5671   -9.5382  -46.5742 C.3       2 UNK        -0.1800 
     64 N          -2.3557  -11.7232  -47.2898 N.am      2 UNK        -0.5000 
     65 C          -2.9832  -12.8909  -47.0959 C.2       1 UNK         0.5000 
     66 O          -2.9597  -13.5010  -46.0275 O.2       1 UNK        -0.5000 
     67 C          -3.4638  -23.0474  -44.5343 C.2       11 UNK         0.5000 
     68 O          -4.4528  -23.3027  -45.2207 O.2       11 UNK        -0.5000 
     69 N          -3.0228  -23.8529  -43.5564 N.am      12 UNK        -0.5000 
     70 CA         -3.6020  -25.1520  -43.1958 C.3       12 UNK         0.1400 
     71 CB         -2.8111  -25.7346  -42.0148 C.3       12 UNK        -0.1800 
     72 C          -3.6625  -26.1706  -44.3575 C.2       12 UNK         0.5000 
     73 O          -4.5341  -27.0405  -44.3467 O.2       12 UNK        -0.5000 
     74 N          -2.7626  -26.0299  -45.3407 N.am      13 UNK        -0.5000 
     75 CA         -2.7452  -26.7945  -46.5900 C.3       13 UNK         0.1400 
     76 CB         -1.4873  -27.6811  -46.5986 C.3       13 UNK        -0.1800 
     77 C          -2.7751  -25.8663  -47.8219 C.2       13 UNK         0.5000 
     78 O          -2.5163  -26.3307  -48.9332 O.2       13 UNK        -0.5000 
     79 N          -3.0180  -24.5620  -47.6091 N.am      14 UNK        -0.5000 
     80 CA         -2.9221  -23.4579  -48.5756 C.3       14 UNK         0.1400 
     81 CB         -4.0979  -23.5142  -49.5712 C.3       14 UNK        -0.1800 
     82 C          -1.5520  -23.3638  -49.2869 C.2       14 UNK         0.5000 
     83 O          -1.4850  -22.8531  -50.4051 O.2       14 UNK        -0.5000 
     84 N          -0.4905  -23.8856  -48.6523 N.am      15 UNK        -0.5000 
     85 CA          0.8457  -24.1447  -49.2098 C.3       15 UNK         0.1400 
     86 CB          1.6185  -22.8295  -49.4341 C.3       15 UNK        -0.1800 
     87 C           0.8163  -25.0322  -50.4766 C.2       15 UNK         0.5000 
     88 O           1.6008  -24.8087  -51.3988 O.2       15 UNK        -0.5000 
     89 N          -0.1070  -26.0067  -50.5023 N.am      16 UNK        -0.5000 
     90 CA         -0.4648  -26.8585  -51.6423 C.3       16 UNK         0.1400 
     91 CB          0.7183  -27.7429  -52.0906 C.3       16 UNK        -0.1800 
     92 C          -1.0992  -26.0389  -52.7863 C.2       16 UNK         0.5000 
     93 O          -0.7535  -26.2253  -53.9541 O.2       16 UNK        -0.5000 
     94 N          -2.0218  -25.1435  -52.4018 N.am      17 UNK        -0.5000 
     95 CA         -2.7506  -24.1817  -53.2336 C.3       17 UNK         0.1400 
     96 CB         -3.6988  -24.9025  -54.2138 C.3       17 UNK        -0.1800 
     97 C          -1.8073  -23.1746  -53.9213 C.2       17 UNK         0.5000 
     98 O          -1.7786  -23.0842  -55.1497 O.2       17 UNK        -0.5000 
     99 N          -1.0516  -22.4344  -53.1024 N.am      18 UNK        -0.5000 
    100 CA        -0.0838  -21.4336  -53.5482 C.3       18 UNK         0.1400 
    101 CB         1.2612  -22.1186  -53.8476 C.3       18 UNK        -0.1800 
    102 C          0.1130  -20.2661  -52.5635 C.2       18 UNK         0.5000 
    103 O          0.6901  -19.2606  -52.9776 O.2       18 UNK        -0.5000 
    104 N         -0.3461  -20.3859  -51.3049 N.am      19 UNK        -0.5000 
    105 CA        -0.0397  -19.4623  -50.1986 C.3       19 UNK         0.1400 
    106 CB        -0.7577  -19.9193  -48.9178 C.3       19 UNK        -0.1800 
    107 C         -0.3640  -17.9843  -50.4738 C.2       19 UNK         0.5000 
    108 O          0.4395  -17.1132  -50.1426 O.2       19 UNK        -0.5000 
    109 N         -1.5251  -17.7484  -51.0911 N.am      20 UNK        -0.5000 
    110 CA        -2.0162  -16.4311  -51.4911 C.3       20 UNK         0.1400 
    111 CB        -3.4152  -16.2455  -50.8822 C.3       20 UNK        -0.1800 
    112 C         -2.0575  -16.2937  -53.0257 C.2       20 UNK         0.5000 
    113 O         -2.8235  -15.4744  -53.5345 O.2       20 UNK        -0.5000 
    114 N         -1.2796  -17.1275  -53.7389 N.am      21 UNK        -0.5000 
    115 CA        -1.3594  -17.3827  -55.1847 C.3       21 UNK         0.1400 
    116 CB        -0.9508  -16.1389  -56.0014 C.3       21 UNK        -0.1800 
    117 C         -2.7435  -17.9520  -55.5711 C.2       21 UNK         0.5000 
    118 O         -3.3728  -17.4897  -56.5244 O.2       21 UNK        -0.5000 
    119 N         -3.1981  -18.9139  -54.7576 N.am      22 UNK        -0.5000 
    120 CA        -4.5306  -19.5329  -54.7592 C.3       22 UNK         0.1400 
    121 C         -4.9315  -20.1833  -56.1135 C.2       22 UNK         0.5000 
    122 N         -6.2038  -20.1224  -56.4830 N.am      22 UNK        -0.7600 
    123 O         -4.1133  -20.7813  -56.8077 O.2       22 UNK        -0.5000 
    124 C124       -4.6585  -20.5674  -53.6092 C.3       23 UNK        -0.0398 
    125 S125       -4.1581  -19.9034  -51.9798 S.3       23 UNK        -0.2404 
    126 C126       -5.7676  -19.7812  -51.1351 C.3       23 UNK        -0.0205 
    127 H127       -2.0106  -12.8650  -52.3542 H         1 UNK         0.0600 
    128 H128       -3.2535  -11.7106  -51.8642 H         1 UNK         0.0600 
    129 H129       -1.5473  -11.3383  -51.5938 H         1 UNK         0.0600 
    130 H130       -4.3058  -12.3714  -50.0056 H         1 UNK         0.3000 
    131 H131       -3.4188  -14.5089  -48.4055 H         1 UNK         0.0600 
    132 H132       -5.4560  -14.1489  -47.0848 H         1 UNK         0.0800 
    133 H133       -5.6636  -12.5480  -47.7416 H         1 UNK         0.0800 
    134 H134       -8.1020  -15.7647  -49.1226 H         1 UNK         0.0800 
    135 H135       -7.4220  -15.3928  -47.5657 H         1 UNK         0.0800 
    136 H136       -7.0348  -17.4081  -50.6466 H         1 UNK         0.1150 
    137 H137       -4.3351  -20.2171  -48.8575 H         1 UNK         0.1150 
    138 H138       -5.4696  -16.6726  -46.7259 H         1 UNK         0.1150 
    139 H139       -3.0014  -19.3618  -46.9179 H         1 UNK         0.0800 
    140 H140       -3.5855  -17.9954  -45.9850 H         1 UNK         0.0800 
    141 H141       -2.5354  -19.6834  -44.3697 H         1 UNK         0.0800 
    142 H142       -3.5501  -20.5989  -43.2964 H         1 UNK         0.0800 
    143 H143       -2.5998  -21.7284  -45.9609 H         1 UNK         0.0600 
    144 H144       -0.8210  -21.2049  -43.8927 H         1 UNK         0.3000 
    145 H145        1.3241  -23.8061  -44.0471 H         1 UNK         0.0600 
    146 H146        3.0937  -22.6984  -45.4190 H         1 UNK         0.0600 
    147 H147        1.9182  -23.5273  -46.4221 H         1 UNK         0.0600 
    148 H148        1.8592  -21.7732  -46.2697 H         1 UNK         0.0600 
    149 H149        1.5310  -20.8448  -43.9935 H         1 UNK         0.3000 
    150 H150        2.4783  -21.0152  -40.6186 H         1 UNK         0.0600 
    151 H151        3.5637  -20.1559  -42.7356 H         1 UNK         0.0600 
    152 H152        3.1553  -18.8865  -41.5956 H         1 UNK         0.0600 
    153 H153        2.1553  -19.1327  -43.0141 H         1 UNK         0.0600 
    154 H154        0.8687  -19.6762  -39.8525 H         1 UNK         0.3000 
    155 H155       -2.2916  -18.9481  -40.7412 H         1 UNK         0.0600 
    156 H156       -1.6853  -17.7533  -38.6440 H         1 UNK         0.0600 
    157 H157        0.0256  -18.0245  -38.9413 H         1 UNK         0.0600 
    158 H158       -1.0490  -19.3868  -38.6472 H         1 UNK         0.0600 
    159 H159       -2.0904  -17.0994  -41.9501 H         1 UNK         0.3000 
    160 H160       -1.5309  -14.8575  -42.3728 H         1 UNK         0.0600 
    161 H161        1.4990  -14.3972  -42.4966 H         1 UNK         0.0600 
    162 H162        0.4051  -13.6506  -41.3351 H         1 UNK         0.0600 
    163 H163        0.2526  -13.2819  -43.0477 H         1 UNK         0.0600 
    164 H164        0.4350  -15.4788  -44.3722 H         1 UNK         0.3000 
    165 H165       -1.2512  -18.1477  -45.9305 H         1 UNK         0.0600 
    166 H166       -0.9782  -15.2908  -47.0068 H         1 UNK         0.0600 
    167 H167       -1.2831  -16.7443  -47.9503 H         1 UNK         0.0600 
    168 H168       -2.5049  -16.1436  -46.8459 H         1 UNK         0.0600 
    169 H169        1.0666  -16.3383  -46.2618 H         1 UNK         0.3000 
    170 H170        3.4012  -18.8181  -45.4702 H         1 UNK         0.0600 
    171 H171        2.7659  -19.7720  -47.6899 H         1 UNK         0.0600 
    172 H172        2.6080  -18.1522  -48.3575 H         1 UNK         0.0600 
    173 H173        4.1834  -18.7439  -47.8275 H         1 UNK         0.0600 
    174 H174        3.4564  -16.3179  -46.9707 H         1 UNK         0.3000 
    175 H175        3.7190  -14.2212  -44.1367 H         1 UNK         0.0600 
    176 H176        5.9643  -15.0026  -46.0712 H         1 UNK         0.0600 
    177 H177        5.8852  -13.5277  -45.1059 H         1 UNK         0.0600 
    178 H178        6.0625  -15.0857  -44.3164 H         1 UNK         0.0600 
    179 H179        4.0756  -13.4912  -46.7924 H         1 UNK         0.3000 
    180 H180        2.3875  -12.1084  -47.6336 H         1 UNK         0.0600 
    181 H181        2.7114  -14.1662  -49.0375 H         1 UNK         0.0600 
    182 H182        1.0154  -14.5841  -48.8276 H         1 UNK         0.0600 
    183 H183        1.4675  -13.1288  -49.7131 H         1 UNK         0.0600 
    184 H184       -0.3633  -12.6912  -48.0314 H         1 UNK         0.3000 
    185 H185       -1.8441  -11.2527  -45.3161 H         1 UNK         0.0600 
    186 H186       -0.9681   -8.9871  -45.8479 H         1 UNK         0.0600 
    187 H187       -1.2049   -9.2718  -47.5680 H         1 UNK         0.0600 
    188 H188       -2.5928   -9.1803  -46.4831 H         1 UNK         0.0600 
    189 H189       -2.4272  -11.2992  -48.2032 H         1 UNK         0.3000 
    190 H190       -2.1897  -23.5785  -43.0562 H         1 UNK         0.3000 
    191 H191       -4.6280  -24.9733  -42.8679 H         1 UNK         0.0600 
    192 H192       -3.2279  -26.6918  -41.6984 H         1 UNK         0.0600 
    193 H193       -2.8405  -25.0686  -41.1521 H         1 UNK         0.0600 
    194 H194       -1.7652  -25.9018  -42.2756 H         1 UNK         0.0600 
    195 H195       -2.0677  -25.2940  -45.2658 H         1 UNK         0.3000 
    196 H196       -3.6244  -27.4371  -46.6641 H         1 UNK         0.0600 
    197 H197       -1.4504  -28.3087  -47.4899 H         1 UNK         0.0600 
    198 H198       -1.4706  -28.3469  -45.7356 H         1 UNK         0.0600 
    199 H199       -0.5754  -27.0828  -46.5774 H         1 UNK         0.0600 
    200 H200       -3.2900  -24.2898  -46.6726 H         1 UNK         0.3000 
    201 H201       -3.0256  -22.5333  -48.0102 H         1 UNK         0.0600 
    202 H202       -5.0532  -23.5172  -49.0463 H         1 UNK         0.0600 
    203 H203       -4.0588  -24.4062  -50.1963 H         1 UNK         0.0600 
    204 H204       -4.1000  -22.6462  -50.2319 H         1 UNK         0.0600 
    205 H205       -0.6310  -24.1929  -47.6951 H         1 UNK         0.3000 
    206 H206        1.3818  -24.7190  -48.4537 H         1 UNK         0.0600 
    207 H207        1.5760  -22.1813  -48.5616 H         1 UNK         0.0600 
    208 H208        2.6713  -23.0284  -49.6367 H         1 UNK         0.0600 
    209 H209        1.2278  -22.2760  -50.2851 H         1 UNK         0.0600 
    210 H210       -0.7398  -26.0856  -49.7118 H         1 UNK         0.3000 
    211 H211       -1.2478  -27.5274  -51.2819 H         1 UNK         0.0600 
    212 H212        1.5191  -27.1591  -52.5445 H         1 UNK         0.0600 
    213 H213        0.3943  -28.4760  -52.8300 H         1 UNK         0.0600 
    214 H214        1.1388  -28.2945  -51.2498 H         1 UNK         0.0600 
    215 H215       -2.1868  -25.0599  -51.4089 H         1 UNK         0.3000 
    216 H216       -3.3734  -23.5989  -52.5538 H         1 UNK         0.0600 
    217 H217       -3.1540  -25.4973  -54.9473 H         1 UNK         0.0600 
    218 H218       -4.3069  -24.1837  -54.7644 H         1 UNK         0.0600 
    219 H219       -4.3815  -25.5667  -53.6839 H         1 UNK         0.0600 
    220 H220       -1.1337  -22.5947  -52.0999 H         1 UNK         0.3000 
    221 H221       -0.4497  -20.9810  -54.4725 H         1 UNK         0.0600 
    222 H222        1.6787  -22.5823  -52.9536 H         1 UNK         0.0600 
    223 H223        1.1526  -22.8939  -54.6062 H         1 UNK         0.0600 
    224 H224        1.9947  -21.4022  -54.2197 H         1 UNK         0.0600 
    225 H225       -0.8277  -21.2380  -51.0358 H         1 UNK         0.3000 
    226 H226        1.0355  -19.5236  -50.0198 H         1 UNK         0.0600 
    227 H227       -0.3594  -20.8626  -48.5515 H         1 UNK         0.0600 
    228 H228       -0.6265  -19.1957  -48.1134 H         1 UNK         0.0600 
    229 H229       -1.8288  -20.0417  -49.0803 H         1 UNK         0.0600 
    230 H230       -2.1221  -18.5336  -51.3138 H         1 UNK         0.3000 
    231 H231       -1.3633  -15.6438  -51.1116 H         1 UNK         0.0600 
    232 H232       -4.1331  -16.9342  -51.3256 H         1 UNK         0.0600 
    233 H233       -3.4077  -16.4173  -49.8062 H         1 UNK         0.0600 
    234 H234       -3.7940  -15.2385  -51.0523 H         1 UNK         0.0600 
    235 H235       -0.6405  -17.7307  -53.2308 H         1 UNK         0.3000 
    236 H236       -0.6329  -18.1678  -55.3994 H         1 UNK         0.0600 
    237 H237        0.0267  -15.7690  -55.6922 H         1 UNK         0.0600 
    238 H238       -0.8867  -16.3774  -57.0636 H         1 UNK         0.0600 
    239 H239       -1.6670  -15.3240  -55.8951 H         1 UNK         0.0600 
    240 H240       -2.6054  -19.2017  -53.9962 H         1 UNK         0.3000 
    241 H241       -5.2365  -18.7242  -54.5607 H         1 UNK         0.0600 
    242 H242       -6.4804  -20.5533  -57.3518 H         1 UNK         0.3800 
    243 H243       -6.8971  -19.6432  -55.9291 H         1 UNK         0.3800 
    244 H244       -4.0364  -21.4359  -53.8184 H         1 UNK         0.0800 
    245 H245       -5.6807  -20.9448  -53.5483 H         1 UNK         0.0800 
    246 H246       -6.1072  -20.7802  -50.8582 H         1 UNK         0.0800 
    247 H247       -6.5076  -19.3804  -51.8295 H         1 UNK         0.0800 
@<TRIPOS>BOND
     1    1    2 1    
     2    1  127 1    
     3    1  128 1    
     4    1  129 1    
     5    2    3 2    
     6    2    4 am   BACKBONE|DICT|INTERRES
     7    4    5 1    
     8    4  130 1    
     9    5    6 1    
    10    5   65 1    
    11    5  131 1    
    12    6    7 1    
    13    6  132 1    
    14    6  133 1    
    15    7    8 1    
    16    8    9 1    
    17    8  134 1    
    18    8  135 1    
    19    9   10 ar   
    20    9   14 ar   
    21   10   11 ar   
    22   10  136 1    
    23   11   12 ar   
    24   11  126 1    
    25   12   13 ar   
    26   12  137 1    
    27   13   14 ar   
    28   13   15 1    
    29   14  138 1    
    30   15   16 1    
    31   15  139 1    
    32   15  140 1    
    33   16   17 1    
    34   17   18 1    
    35   17  141 1    
    36   17  142 1    
    37   18   19 1    
    38   18   67 1    
    39   18  143 1    
    40   19   20 am   BACKBONE|DICT|INTERRES
    41   19  144 1    
    42   20   21 2    
    43   20   22 1    
    44   22   23 1    
    45   22   24 1    
    46   22  145 1    
    47   23  146 1    
    48   23  147 1    
    49   23  148 1    
    50   24   25 am   BACKBONE|DICT|INTERRES
    51   24  149 1    
    52   25   26 2    
    53   25   27 1    
    54   27   28 1    
    55   27   29 1    
    56   27  150 1    
    57   28  151 1    
    58   28  152 1    
    59   28  153 1    
    60   29   30 am   BACKBONE|DICT|INTERRES
    61   29  154 1    
    62   30   31 2    
    63   30   32 1    
    64   32   33 1    
    65   32   34 1    
    66   32  155 1    
    67   33  156 1    
    68   33  157 1    
    69   33  158 1    
    70   34   35 am   BACKBONE|DICT|INTERRES
    71   34  159 1    
    72   35   36 2    
    73   35   37 1    
    74   37   38 1    
    75   37   39 1    
    76   37  160 1    
    77   38  161 1    
    78   38  162 1    
    79   38  163 1    
    80   39   40 am   BACKBONE|DICT|INTERRES
    81   39  164 1    
    82   40   41 2    
    83   40   42 1    
    84   42   43 1    
    85   42   44 1    
    86   42  165 1    
    87   43  166 1    
    88   43  167 1    
    89   43  168 1    
    90   44   45 am   BACKBONE|DICT|INTERRES
    91   44  169 1    
    92   45   46 2    
    93   45   47 1    
    94   47   48 1    
    95   47   49 1    
    96   47  170 1    
    97   48  171 1    
    98   48  172 1    
    99   48  173 1    
   100   49   50 am   BACKBONE|DICT|INTERRES
   101   49  174 1    
   102   50   51 2    
   103   50   52 1    
   104   52   53 1    
   105   52   54 1    
   106   52  175 1    
   107   53  176 1    
   108   53  177 1    
   109   53  178 1    
   110   54   55 am   BACKBONE|DICT|INTERRES
   111   54  179 1    
   112   55   56 2    
   113   55   57 1    
   114   57   58 1    
   115   57   59 1    
   116   57  180 1    
   117   58  181 1    
   118   58  182 1    
   119   58  183 1    
   120   59   60 am   BACKBONE|DICT|INTERRES
   121   59  184 1    
   122   60   61 2    
   123   60   62 1    
   124   62   63 1    
   125   62   64 1    
   126   62  185 1    
   127   63  186 1    
   128   63  187 1    
   129   63  188 1    
   130   64   65 am   BACKBONE|DICT|INTERRES
   131   64  189 1    
   132   65   66 2    
   133   67   68 2    
   134   67   69 am   BACKBONE|DICT|INTERRES
   135   69   70 1    
   136   69  190 1    
   137   70   71 1    
   138   70   72 1    
   139   70  191 1    
   140   71  192 1    
   141   71  193 1    
   142   71  194 1    
   143   72   73 2    
   144   72   74 am   BACKBONE|DICT|INTERRES
   145   74   75 1    
   146   74  195 1    
   147   75   76 1    
   148   75   77 1    
   149   75  196 1    
   150   76  197 1    
   151   76  198 1    
   152   76  199 1    
   153   77   78 2    
   154   77   79 am   BACKBONE|DICT|INTERRES
   155   79   80 1    
   156   79  200 1    
   157   80   81 1    
   158   80   82 1    
   159   80  201 1    
   160   81  202 1    
   161   81  203 1    
   162   81  204 1    
   163   82   83 2    
   164   82   84 am   BACKBONE|DICT|INTERRES
   165   84   85 1    
   166   84  205 1    
   167   85   86 1    
   168   85   87 1    
   169   85  206 1    
   170   86  207 1    
   171   86  208 1    
   172   86  209 1    
   173   87   88 2    
   174   87   89 am   BACKBONE|DICT|INTERRES
   175   89   90 1    
   176   89  210 1    
   177   90   91 1    
   178   90   92 1    
   179   90  211 1    
   180   91  212 1    
   181   91  213 1    
   182   91  214 1    
   183   92   93 2    
   184   92   94 am   BACKBONE|DICT|INTERRES
   185   94   95 1    
   186   94  215 1    
   187   95   96 1    
   188   95   97 1    
   189   95  216 1    
   190   96  217 1    
   191   96  218 1    
   192   96  219 1    
   193   97   98 2    
   194   97   99 am   BACKBONE|DICT|INTERRES
   195   99  100 1    
   196   99  220 1    
   197  100  101 1    
   198  100  102 1    
   199  100  221 1    
   200  101  222 1    
   201  101  223 1    
   202  101  224 1    
   203  102  103 2    
   204  102  104 am   BACKBONE|DICT|INTERRES
   205  104  105 1    
   206  104  225 1    
   207  105  106 1    
   208  105  107 1    
   209  105  226 1    
   210  106  227 1    
   211  106  228 1    
   212  106  229 1    
   213  107  108 2    
   214  107  109 am   BACKBONE|DICT|INTERRES
   215  109  110 1    
   216  109  230 1    
   217  110  111 1    
   218  110  112 1    
   219  110  231 1    
   220  111  232 1    
   221  111  233 1    
   222  111  234 1    
   223  112  113 2    
   224  112  114 am   BACKBONE|DICT|INTERRES
   225  114  115 1    
   226  114  235 1    
   227  115  116 1    
   228  115  117 1    
   229  115  236 1    
   230  116  237 1    
   231  116  238 1    
   232  116  239 1    
   233  117  118 2    
   234  117  119 am   BACKBONE|DICT|INTERRES
   235  119  120 1    
   236  119  240 1    
   237  120  121 1    
   238  120  124 1    
   239  120  241 1    
   240  121  122 am   BACKBONE|DICT|INTERRES
   241  121  123 2    
   242  122  242 1    
   243  122  243 1    
   244  124  125 1    
   245  124  244 1    
   246  124  245 1    
   247  125  126 1    
   248  126  246 1    
   249  126  247 1    
@<TRIPOS>SUBSTRUCTURE
     1 UNK         1 GROUP             0       ****    0 ROOT    
