@<TRIPOS>MOLECULE
3R540
247   249    1
SMALL
USER_CHARGES


@<TRIPOS>ATOM
      1 CA          2.5193  -10.9668  -51.1847 C.3       0 UNK        -0.1800 
      2 C           2.8993  -11.1267  -49.7195 C.2       0 UNK         0.5000 
      3 O           3.1217  -10.1309  -49.0308 O.2       0 UNK        -0.5000 
      4 N           2.9736  -12.3753  -49.2426 N.am      1 UNK        -0.5000 
      5 CA          3.2990  -12.7317  -47.8547 C.3       1 UNK         0.1400 
      6 C6          3.8231  -14.1849  -47.7421 C.3       23 UNK        -0.0398 
      7 S7          2.6874  -15.4462  -48.4215 S.3       23 UNK        -0.2404 
      8 C8          3.6085  -16.0241  -49.8818 C.3       23 UNK        -0.0205 
      9 C9          2.8916  -17.1818  -50.5605 C.ar      23 UNK        -0.0193 
     10 C10         1.7717  -16.9420  -51.3619 C.ar      23 UNK        -0.1150 
     11 C11         1.0865  -18.0031  -51.9609 C.ar      23 UNK        -0.0193 
     12 C12         1.5449  -19.3120  -51.7745 C.ar      23 UNK        -0.1150 
     13 C13         2.6726  -19.5647  -50.9875 C.ar      23 UNK        -0.0193 
     14 C14         3.3388  -18.4945  -50.3810 C.ar      23 UNK        -0.1150 
     15 C15         3.2046  -20.9826  -50.8253 C.3       23 UNK        -0.0205 
     16 S16         3.0450  -21.5977  -49.1164 S.3       23 UNK        -0.2404 
     17 C17         1.6832  -22.8198  -49.2243 C.3       23 UNK        -0.0398 
     18 CA          0.6244  -22.7133  -48.0895 C.3       11 UNK         0.1400 
     19 N           1.2047  -22.6276  -46.7489 N.am      11 UNK        -0.5000 
     20 C           1.7460  -23.6777  -46.1166 C.2       10 UNK         0.5000 
     21 O           1.6966  -24.8317  -46.5451 O.2       10 UNK        -0.5000 
     22 CA          2.4840  -23.4051  -44.7942 C.3       10 UNK         0.1400 
     23 CB          3.8890  -22.8480  -45.0686 C.3       10 UNK        -0.1800 
     24 N           1.7524  -22.4939  -43.9178 N.am      10 UNK        -0.5000 
     25 C           0.6561  -22.8318  -43.2250 C.2       9 UNK         0.5000 
     26 O           0.1870  -23.9696  -43.2020 O.2       9 UNK        -0.5000 
     27 CA         -0.0399  -21.7126  -42.4261 C.3       9 UNK         0.1400 
     28 CB          0.5307  -21.6222  -41.0028 C.3       9 UNK        -0.1800 
     29 N           0.0725  -20.4052  -43.0694 N.am      9 UNK        -0.5000 
     30 C          -0.5048  -20.0753  -44.2317 C.2       8 UNK         0.5000 
     31 O          -1.2637  -20.8040  -44.8742 O.2       8 UNK        -0.5000 
     32 CA         -0.1132  -18.7126  -44.8096 C.3       8 UNK         0.1400 
     33 CB         -0.9357  -17.5752  -44.1899 C.3       8 UNK        -0.1800 
     34 N           1.3198  -18.4496  -44.6718 N.am      8 UNK        -0.5000 
     35 C           2.2678  -19.0762  -45.3850 C.2       7 UNK         0.5000 
     36 O           2.0159  -19.9164  -46.2465 O.2       7 UNK        -0.5000 
     37 CA          3.7389  -18.7451  -45.0694 C.3       7 UNK         0.1400 
     38 CB          4.2340  -17.6077  -45.9711 C.3       7 UNK        -0.1800 
     39 N           3.9587  -18.3789  -43.6713 N.am      7 UNK        -0.5000 
     40 C           3.8151  -19.2101  -42.6289 C.2       6 UNK         0.5000 
     41 O           3.5425  -20.4044  -42.7398 O.2       6 UNK        -0.5000 
     42 CA          3.9144  -18.5717  -41.2281 C.3       6 UNK         0.1400 
     43 CB          5.3720  -18.5438  -40.7457 C.3       6 UNK        -0.1800 
     44 N           3.3583  -17.2130  -41.1901 N.am      6 UNK        -0.5000 
     45 C           2.0823  -16.9226  -41.4768 C.2       5 UNK         0.5000 
     46 O           1.2366  -17.7864  -41.7249 O.2       5 UNK        -0.5000 
     47 CA          1.7268  -15.4292  -41.6031 C.3       5 UNK         0.1400 
     48 CB          2.3220  -14.8496  -42.8984 C.3       5 UNK        -0.1800 
     49 N           0.2808  -15.2304  -41.6440 N.am      5 UNK        -0.5000 
     50 C          -0.5402  -15.2917  -40.5893 C.2       4 UNK         0.5000 
     51 O          -0.1403  -15.4163  -39.4303 O.2       4 UNK        -0.5000 
     52 CA         -2.0606  -15.2429  -40.8649 C.3       4 UNK         0.1400 
     53 CB         -2.7822  -14.2287  -39.9530 C.3       4 UNK        -0.1800 
     54 N          -2.4360  -15.0511  -42.2759 N.am      4 UNK        -0.5000 
     55 C          -2.2613  -13.9603  -43.0358 C.2       3 UNK         0.5000 
     56 O          -1.7360  -12.9170  -42.6413 O.2       3 UNK        -0.5000 
     57 CA         -2.7883  -14.0631  -44.4803 C.3       3 UNK         0.1400 
     58 CB         -4.3006  -13.7932  -44.5218 C.3       3 UNK        -0.1800 
     59 N          -2.1193  -13.1245  -45.3802 N.am      3 UNK        -0.5000 
     60 C          -0.8553  -13.2363  -45.8078 C.2       2 UNK         0.5000 
     61 O          -0.1300  -14.1961  -45.5389 O.2       2 UNK        -0.5000 
     62 CA         -0.3624  -12.0848  -46.7098 C.3       2 UNK         0.1400 
     63 CB         -0.3090  -10.7438  -45.9470 C.3       2 UNK        -0.1800 
     64 N           0.9096  -12.3560  -47.3902 N.am      2 UNK        -0.5000 
     65 C           2.1421  -12.4519  -46.8649 C.2       1 UNK         0.5000 
     66 O           2.4043  -12.3013  -45.6705 O.2       1 UNK        -0.5000 
     67 C          -0.4038  -21.6083  -48.3719 C.2       11 UNK         0.5000 
     68 O          -1.5062  -21.9383  -48.8063 O.2       11 UNK        -0.5000 
     69 N          -0.0372  -20.3349  -48.1579 N.am      12 UNK        -0.5000 
     70 CA         -0.7036  -19.1590  -48.7416 C.3       12 UNK         0.1400 
     71 CB          0.0983  -17.8824  -48.4411 C.3       12 UNK        -0.1800 
     72 C          -2.1899  -18.9688  -48.3876 C.2       12 UNK         0.5000 
     73 O          -2.8893  -18.2845  -49.1323 O.2       12 UNK        -0.5000 
     74 N          -2.6463  -19.5811  -47.2900 N.am      13 UNK        -0.5000 
     75 CA         -4.0584  -19.7150  -46.9420 C.3       13 UNK         0.1400 
     76 CB         -4.3481  -18.9493  -45.6423 C.3       13 UNK        -0.1800 
     77 C          -4.4323  -21.1977  -46.7968 C.2       13 UNK         0.5000 
     78 O          -5.5138  -21.5897  -47.2342 O.2       13 UNK        -0.5000 
     79 N          -3.5357  -21.9956  -46.1974 N.am      14 UNK        -0.5000 
     80 CA         -3.7314  -23.4107  -45.8807 C.3       14 UNK         0.1400 
     81 CB         -2.4868  -23.9298  -45.1490 C.3       14 UNK        -0.1800 
     82 C          -4.0617  -24.3188  -47.0797 C.2       14 UNK         0.5000 
     83 O          -4.8298  -25.2685  -46.9131 O.2       14 UNK        -0.5000 
     84 N          -3.4997  -24.0267  -48.2608 N.am      15 UNK        -0.5000 
     85 CA         -3.7601  -24.7770  -49.4871 C.3       15 UNK         0.1400 
     86 CB         -2.5514  -24.6759  -50.4304 C.3       15 UNK        -0.1800 
     87 C          -5.0882  -24.3298  -50.1292 C.2       15 UNK         0.5000 
     88 O          -5.0997  -23.5036  -51.0466 O.2       15 UNK        -0.5000 
     89 N          -6.1822  -24.9064  -49.6120 N.am      16 UNK        -0.5000 
     90 CA         -7.5638  -24.8238  -50.0951 C.3       16 UNK         0.1400 
     91 CB         -7.6925  -25.5264  -51.4633 C.3       16 UNK        -0.1800 
     92 C          -8.1275  -23.3902  -50.1078 C.2       16 UNK         0.5000 
     93 O          -8.6971  -22.9641  -51.1119 O.2       16 UNK        -0.5000 
     94 N          -7.9413  -22.6582  -48.9990 N.am      17 UNK        -0.5000 
     95 CA         -8.3577  -21.2601  -48.8075 C.3       17 UNK         0.1400 
     96 CB         -9.8962  -21.1448  -48.7606 C.3       17 UNK        -0.1800 
     97 C          -7.7085  -20.3182  -49.8449 C.2       17 UNK         0.5000 
     98 O          -8.3767  -19.4517  -50.4100 O.2       17 UNK        -0.5000 
     99 N          -6.4146  -20.5609  -50.0944 N.am      18 UNK        -0.5000 
    100 CA        -5.5250  -19.9302  -51.0740 C.3       18 UNK         0.1400 
    101 CB        -5.5376  -18.3931  -50.9582 C.3       18 UNK        -0.1800 
    102 C         -5.7475  -20.3731  -52.5353 C.2       18 UNK         0.5000 
    103 O         -4.9241  -20.0248  -53.3866 O.2       18 UNK        -0.5000 
    104 N         -6.8138  -21.1338  -52.8268 N.am      19 UNK        -0.5000 
    105 CA        -7.2002  -21.5210  -54.1874 C.3       19 UNK         0.1400 
    106 CB        -8.6248  -22.0935  -54.1874 C.3       19 UNK        -0.1800 
    107 C         -6.2257  -22.5091  -54.8510 C.2       19 UNK         0.5000 
    108 O         -6.0559  -22.4522  -56.0691 O.2       19 UNK        -0.5000 
    109 N         -5.5912  -23.3753  -54.0496 N.am      20 UNK        -0.5000 
    110 CA        -4.5330  -24.2787  -54.5066 C.3       20 UNK         0.1400 
    111 CB        -4.6873  -25.6408  -53.8116 C.3       20 UNK        -0.1800 
    112 C         -3.1326  -23.6820  -54.2690 C.2       20 UNK         0.5000 
    113 O         -2.1629  -24.1874  -54.8350 O.2       20 UNK        -0.5000 
    114 N         -3.0457  -22.6264  -53.4468 N.am      21 UNK        -0.5000 
    115 CA        -1.8172  -21.8959  -53.1488 C.3       21 UNK         0.1400 
    116 CB        -2.0100  -21.0562  -51.8732 C.3       21 UNK        -0.1800 
    117 C         -1.4034  -21.0116  -54.3358 C.2       21 UNK         0.5000 
    118 O         -0.3361  -21.2238  -54.9117 O.2       21 UNK        -0.5000 
    119 N         -2.2682  -20.0461  -54.6698 N.am      22 UNK        -0.5000 
    120 CA        -2.0874  -19.0676  -55.7535 C.3       22 UNK         0.1400 
    121 C         -3.3861  -18.8364  -56.5768 C.2       22 UNK         0.5000 
    122 N         -4.5704  -19.1943  -56.0933 N.am      22 UNK        -0.7600 
    123 O         -3.3167  -18.3297  -57.6933 O.2       22 UNK        -0.5000 
    124 C124       -1.5213  -17.7111  -55.2457 C.3       23 UNK        -0.0398 
    125 S125        0.1724  -17.8150  -54.5685 S.3       23 UNK        -0.2404 
    126 C126       -0.1648  -17.7387  -52.7837 C.3       23 UNK        -0.0205 
    127 H127        2.3562  -11.9299  -51.6691 H         1 UNK         0.0600 
    128 H128        3.3111  -10.4457  -51.7228 H         1 UNK         0.0600 
    129 H129        1.6036  -10.3823  -51.2732 H         1 UNK         0.0600 
    130 H130        2.7751  -13.1556  -49.8522 H         1 UNK         0.3000 
    131 H131        4.1188  -12.0817  -47.5402 H         1 UNK         0.0600 
    132 H132        4.7850  -14.2587  -48.2508 H         1 UNK         0.0800 
    133 H133        4.0313  -14.4334  -46.7002 H         1 UNK         0.0800 
    134 H134        4.6116  -16.3283  -49.5791 H         1 UNK         0.0800 
    135 H135        3.7323  -15.2028  -50.5888 H         1 UNK         0.0800 
    136 H136        1.4200  -15.9290  -51.4972 H         1 UNK         0.1150 
    137 H137        1.0293  -20.1310  -52.2546 H         1 UNK         0.1150 
    138 H138        4.2066  -18.6879  -49.7660 H         1 UNK         0.1150 
    139 H139        2.7232  -21.6650  -51.5268 H         1 UNK         0.0800 
    140 H140        4.2626  -20.9853  -51.0906 H         1 UNK         0.0800 
    141 H141        2.1418  -23.8087  -49.1895 H         1 UNK         0.0800 
    142 H142        1.2009  -22.7634  -50.2017 H         1 UNK         0.0800 
    143 H143        0.0418  -23.6374  -48.1206 H         1 UNK         0.0600 
    144 H144        1.3304  -21.6947  -46.3675 H         1 UNK         0.3000 
    145 H145        2.6011  -24.3579  -44.2733 H         1 UNK         0.0600 
    146 H146        4.4342  -22.6708  -44.1414 H         1 UNK         0.0600 
    147 H147        4.4755  -23.5501  -45.6623 H         1 UNK         0.0600 
    148 H148        3.8496  -21.9105  -45.6221 H         1 UNK         0.0600 
    149 H149        2.1307  -21.5611  -43.8063 H         1 UNK         0.3000 
    150 H150       -1.1002  -21.9644  -42.3558 H         1 UNK         0.0600 
    151 H151        0.4308  -22.5748  -40.4811 H         1 UNK         0.0600 
    152 H152        0.0040  -20.8711  -40.4138 H         1 UNK         0.0600 
    153 H153        1.5893  -21.3602  -41.0091 H         1 UNK         0.0600 
    154 H154        0.6608  -19.7179  -42.6128 H         1 UNK         0.3000 
    155 H155       -0.3489  -18.7524  -45.8667 H         1 UNK         0.0600 
    156 H156       -1.9843  -17.6616  -44.4707 H         1 UNK         0.0600 
    157 H157       -0.5855  -16.6046  -44.5379 H         1 UNK         0.0600 
    158 H158       -0.8928  -17.5813  -43.1017 H         1 UNK         0.0600 
    159 H159        1.5947  -17.8313  -43.9225 H         1 UNK         0.3000 
    160 H160        4.3353  -19.6331  -45.2852 H         1 UNK         0.0600 
    161 H161        5.2959  -17.4139  -45.8200 H         1 UNK         0.0600 
    162 H162        4.0961  -17.8574  -47.0244 H         1 UNK         0.0600 
    163 H163        3.6907  -16.6826  -45.7775 H         1 UNK         0.0600 
    164 H164        4.1902  -17.4147  -43.4861 H         1 UNK         0.3000 
    165 H165        3.3361  -19.1923  -40.5402 H         1 UNK         0.0600 
    166 H166        5.4428  -18.1641  -39.7263 H         1 UNK         0.0600 
    167 H167        5.8024  -19.5463  -40.7484 H         1 UNK         0.0600 
    168 H168        5.9968  -17.9165  -41.3827 H         1 UNK         0.0600 
    169 H169        4.0060  -16.4630  -40.9949 H         1 UNK         0.3000 
    170 H170        2.1400  -14.8941  -40.7458 H         1 UNK         0.0600 
    171 H171        3.4103  -14.9164  -42.9031 H         1 UNK         0.0600 
    172 H172        1.9556  -15.3726  -43.7833 H         1 UNK         0.0600 
    173 H173        2.0658  -13.7957  -43.0123 H         1 UNK         0.0600 
    174 H174       -0.1314  -15.1305  -42.5590 H         1 UNK         0.3000 
    175 H175       -2.4325  -16.2336  -40.5996 H         1 UNK         0.0600 
    176 H176       -3.8558  -14.2225  -40.1410 H         1 UNK         0.0600 
    177 H177       -2.6405  -14.4792  -38.9010 H         1 UNK         0.0600 
    178 H178       -2.4094  -13.2144  -40.0962 H         1 UNK         0.0600 
    179 H179       -2.8888  -15.8494  -42.6982 H         1 UNK         0.3000 
    180 H180       -2.6072  -15.0754  -44.8474 H         1 UNK         0.0600 
    181 H181       -4.5398  -12.7885  -44.1704 H         1 UNK         0.0600 
    182 H182       -4.8440  -14.4983  -43.8915 H         1 UNK         0.0600 
    183 H183       -4.6927  -13.8976  -45.5337 H         1 UNK         0.0600 
    184 H184       -2.6417  -12.2953  -45.6212 H         1 UNK         0.3000 
    185 H185       -1.0979  -11.9809  -47.5089 H         1 UNK         0.0600 
    186 H186       -1.3014  -10.4386  -45.6145 H         1 UNK         0.0600 
    187 H187        0.3216  -10.8053  -45.0596 H         1 UNK         0.0600 
    188 H188        0.0778   -9.9445  -46.5793 H         1 UNK         0.0600 
    189 H189        0.8327  -12.5281  -48.3818 H         1 UNK         0.3000 
    190 H190        0.8703  -20.1628  -47.7325 H         1 UNK         0.3000 
    191 H191       -0.6616  -19.3034  -49.8205 H         1 UNK         0.0600 
    192 H192       -0.1680  -17.4130  -47.4964 H         1 UNK         0.0600 
    193 H193       -0.0898  -17.1329  -49.2098 H         1 UNK         0.0600 
    194 H194        1.1703  -18.0754  -48.4305 H         1 UNK         0.0600 
    195 H195       -1.9957  -20.1431  -46.7567 H         1 UNK         0.3000 
    196 H196       -4.6913  -19.3015  -47.7302 H         1 UNK         0.0600 
    197 H197       -5.4008  -19.0312  -45.3692 H         1 UNK         0.0600 
    198 H198       -4.1234  -17.8886  -45.7544 H         1 UNK         0.0600 
    199 H199       -3.7616  -19.3336  -44.8071 H         1 UNK         0.0600 
    200 H200       -2.6909  -21.5825  -45.8141 H         1 UNK         0.3000 
    201 H201       -4.5770  -23.4706  -45.1928 H         1 UNK         0.0600 
    202 H202       -2.3342  -23.3924  -44.2134 H         1 UNK         0.0600 
    203 H203       -1.5858  -23.8129  -45.7529 H         1 UNK         0.0600 
    204 H204       -2.5835  -24.9876  -44.9012 H         1 UNK         0.0600 
    205 H205       -2.8998  -23.2103  -48.3444 H         1 UNK         0.3000 
    206 H206       -3.8586  -25.8364  -49.2395 H         1 UNK         0.0600 
    207 H207       -1.6559  -25.0844  -49.9622 H         1 UNK         0.0600 
    208 H208       -2.7197  -25.2361  -51.3498 H         1 UNK         0.0600 
    209 H209       -2.3342  -23.6508  -50.7084 H         1 UNK         0.0600 
    210 H210       -6.0438  -25.4925  -48.7973 H         1 UNK         0.3000 
    211 H211       -8.1719  -25.3820  -49.3820 H         1 UNK         0.0600 
    212 H212       -7.1625  -24.9857  -52.2467 H         1 UNK         0.0600 
    213 H213       -8.7370  -25.5982  -51.7687 H         1 UNK         0.0600 
    214 H214       -7.2950  -26.5406  -51.4276 H         1 UNK         0.0600 
    215 H215       -7.4097  -23.0615  -48.2391 H         1 UNK         0.3000 
    216 H216       -7.9822  -20.9495  -47.8322 H         1 UNK         0.0600 
    217 H217      -10.2024  -20.1326  -48.4942 H         1 UNK         0.0600 
    218 H218      -10.3189  -21.8176  -48.0146 H         1 UNK         0.0600 
    219 H219      -10.3532  -21.3803  -49.7222 H         1 UNK         0.0600 
    220 H220       -5.9976  -21.3238  -49.5759 H         1 UNK         0.3000 
    221 H221       -4.5279  -20.2665  -50.7949 H         1 UNK         0.0600 
    222 H222       -6.4468  -17.9590  -51.3747 H         1 UNK         0.0600 
    223 H223       -5.4568  -18.0702  -49.9206 H         1 UNK         0.0600 
    224 H224       -4.6958  -17.9594  -51.4992 H         1 UNK         0.0600 
    225 H225       -7.4309  -21.4295  -52.0799 H         1 UNK         0.3000 
    226 H226       -7.2089  -20.6125  -54.7934 H         1 UNK         0.0600 
    227 H227       -8.9869  -22.2288  -55.2072 H         1 UNK         0.0600 
    228 H228       -8.6680  -23.0671  -53.6986 H         1 UNK         0.0600 
    229 H229       -9.3226  -21.4281  -53.6787 H         1 UNK         0.0600 
    230 H230       -5.7632  -23.3478  -53.0500 H         1 UNK         0.3000 
    231 H231       -4.6251  -24.4524  -55.5807 H         1 UNK         0.0600 
    232 H232       -5.6486  -26.0954  -54.0513 H         1 UNK         0.0600 
    233 H233       -4.6202  -25.5578  -52.7291 H         1 UNK         0.0600 
    234 H234       -3.9113  -26.3355  -54.1353 H         1 UNK         0.0600 
    235 H235       -3.8962  -22.2777  -53.0311 H         1 UNK         0.3000 
    236 H236       -1.0265  -22.6250  -52.9584 H         1 UNK         0.0600 
    237 H237       -2.5086  -20.1051  -52.0551 H         1 UNK         0.0600 
    238 H238       -2.6054  -21.5739  -51.1261 H         1 UNK         0.0600 
    239 H239       -1.0437  -20.8389  -51.4236 H         1 UNK         0.0600 
    240 H240       -3.1419  -19.9825  -54.1584 H         1 UNK         0.3000 
    241 H241       -1.3736  -19.4774  -56.4706 H         1 UNK         0.0600 
    242 H242       -4.6807  -19.5651  -55.1549 H         1 UNK         0.3800 
    243 H243       -5.3878  -19.0436  -56.6620 H         1 UNK         0.3800 
    244 H244       -1.4815  -16.9897  -56.0639 H         1 UNK         0.0800 
    245 H245       -2.1903  -17.2773  -54.5006 H         1 UNK         0.0800 
    246 H246       -0.5833  -16.7612  -52.5387 H         1 UNK         0.0800 
    247 H247       -0.9283  -18.4694  -52.5235 H         1 UNK         0.0800 
@<TRIPOS>BOND
     1    1    2 1    
     2    1  127 1    
     3    1  128 1    
     4    1  129 1    
     5    2    3 2    
     6    2    4 am   BACKBONE|DICT|INTERRES
     7    4    5 1    
     8    4  130 1    
     9    5    6 1    
    10    5   65 1    
    11    5  131 1    
    12    6    7 1    
    13    6  132 1    
    14    6  133 1    
    15    7    8 1    
    16    8    9 1    
    17    8  134 1    
    18    8  135 1    
    19    9   10 ar   
    20    9   14 ar   
    21   10   11 ar   
    22   10  136 1    
    23   11   12 ar   
    24   11  126 1    
    25   12   13 ar   
    26   12  137 1    
    27   13   14 ar   
    28   13   15 1    
    29   14  138 1    
    30   15   16 1    
    31   15  139 1    
    32   15  140 1    
    33   16   17 1    
    34   17   18 1    
    35   17  141 1    
    36   17  142 1    
    37   18   19 1    
    38   18   67 1    
    39   18  143 1    
    40   19   20 am   BACKBONE|DICT|INTERRES
    41   19  144 1    
    42   20   21 2    
    43   20   22 1    
    44   22   23 1    
    45   22   24 1    
    46   22  145 1    
    47   23  146 1    
    48   23  147 1    
    49   23  148 1    
    50   24   25 am   BACKBONE|DICT|INTERRES
    51   24  149 1    
    52   25   26 2    
    53   25   27 1    
    54   27   28 1    
    55   27   29 1    
    56   27  150 1    
    57   28  151 1    
    58   28  152 1    
    59   28  153 1    
    60   29   30 am   BACKBONE|DICT|INTERRES
    61   29  154 1    
    62   30   31 2    
    63   30   32 1    
    64   32   33 1    
    65   32   34 1    
    66   32  155 1    
    67   33  156 1    
    68   33  157 1    
    69   33  158 1    
    70   34   35 am   BACKBONE|DICT|INTERRES
    71   34  159 1    
    72   35   36 2    
    73   35   37 1    
    74   37   38 1    
    75   37   39 1    
    76   37  160 1    
    77   38  161 1    
    78   38  162 1    
    79   38  163 1    
    80   39   40 am   BACKBONE|DICT|INTERRES
    81   39  164 1    
    82   40   41 2    
    83   40   42 1    
    84   42   43 1    
    85   42   44 1    
    86   42  165 1    
    87   43  166 1    
    88   43  167 1    
    89   43  168 1    
    90   44   45 am   BACKBONE|DICT|INTERRES
    91   44  169 1    
    92   45   46 2    
    93   45   47 1    
    94   47   48 1    
    95   47   49 1    
    96   47  170 1    
    97   48  171 1    
    98   48  172 1    
    99   48  173 1    
   100   49   50 am   BACKBONE|DICT|INTERRES
   101   49  174 1    
   102   50   51 2    
   103   50   52 1    
   104   52   53 1    
   105   52   54 1    
   106   52  175 1    
   107   53  176 1    
   108   53  177 1    
   109   53  178 1    
   110   54   55 am   BACKBONE|DICT|INTERRES
   111   54  179 1    
   112   55   56 2    
   113   55   57 1    
   114   57   58 1    
   115   57   59 1    
   116   57  180 1    
   117   58  181 1    
   118   58  182 1    
   119   58  183 1    
   120   59   60 am   BACKBONE|DICT|INTERRES
   121   59  184 1    
   122   60   61 2    
   123   60   62 1    
   124   62   63 1    
   125   62   64 1    
   126   62  185 1    
   127   63  186 1    
   128   63  187 1    
   129   63  188 1    
   130   64   65 am   BACKBONE|DICT|INTERRES
   131   64  189 1    
   132   65   66 2    
   133   67   68 2    
   134   67   69 am   BACKBONE|DICT|INTERRES
   135   69   70 1    
   136   69  190 1    
   137   70   71 1    
   138   70   72 1    
   139   70  191 1    
   140   71  192 1    
   141   71  193 1    
   142   71  194 1    
   143   72   73 2    
   144   72   74 am   BACKBONE|DICT|INTERRES
   145   74   75 1    
   146   74  195 1    
   147   75   76 1    
   148   75   77 1    
   149   75  196 1    
   150   76  197 1    
   151   76  198 1    
   152   76  199 1    
   153   77   78 2    
   154   77   79 am   BACKBONE|DICT|INTERRES
   155   79   80 1    
   156   79  200 1    
   157   80   81 1    
   158   80   82 1    
   159   80  201 1    
   160   81  202 1    
   161   81  203 1    
   162   81  204 1    
   163   82   83 2    
   164   82   84 am   BACKBONE|DICT|INTERRES
   165   84   85 1    
   166   84  205 1    
   167   85   86 1    
   168   85   87 1    
   169   85  206 1    
   170   86  207 1    
   171   86  208 1    
   172   86  209 1    
   173   87   88 2    
   174   87   89 am   BACKBONE|DICT|INTERRES
   175   89   90 1    
   176   89  210 1    
   177   90   91 1    
   178   90   92 1    
   179   90  211 1    
   180   91  212 1    
   181   91  213 1    
   182   91  214 1    
   183   92   93 2    
   184   92   94 am   BACKBONE|DICT|INTERRES
   185   94   95 1    
   186   94  215 1    
   187   95   96 1    
   188   95   97 1    
   189   95  216 1    
   190   96  217 1    
   191   96  218 1    
   192   96  219 1    
   193   97   98 2    
   194   97   99 am   BACKBONE|DICT|INTERRES
   195   99  100 1    
   196   99  220 1    
   197  100  101 1    
   198  100  102 1    
   199  100  221 1    
   200  101  222 1    
   201  101  223 1    
   202  101  224 1    
   203  102  103 2    
   204  102  104 am   BACKBONE|DICT|INTERRES
   205  104  105 1    
   206  104  225 1    
   207  105  106 1    
   208  105  107 1    
   209  105  226 1    
   210  106  227 1    
   211  106  228 1    
   212  106  229 1    
   213  107  108 2    
   214  107  109 am   BACKBONE|DICT|INTERRES
   215  109  110 1    
   216  109  230 1    
   217  110  111 1    
   218  110  112 1    
   219  110  231 1    
   220  111  232 1    
   221  111  233 1    
   222  111  234 1    
   223  112  113 2    
   224  112  114 am   BACKBONE|DICT|INTERRES
   225  114  115 1    
   226  114  235 1    
   227  115  116 1    
   228  115  117 1    
   229  115  236 1    
   230  116  237 1    
   231  116  238 1    
   232  116  239 1    
   233  117  118 2    
   234  117  119 am   BACKBONE|DICT|INTERRES
   235  119  120 1    
   236  119  240 1    
   237  120  121 1    
   238  120  124 1    
   239  120  241 1    
   240  121  122 am   BACKBONE|DICT|INTERRES
   241  121  123 2    
   242  122  242 1    
   243  122  243 1    
   244  124  125 1    
   245  124  244 1    
   246  124  245 1    
   247  125  126 1    
   248  126  246 1    
   249  126  247 1    
@<TRIPOS>SUBSTRUCTURE
     1 UNK         1 GROUP             0       ****    0 ROOT    
