@<TRIPOS>MOLECULE
3R540
247   249    1
SMALL
USER_CHARGES


@<TRIPOS>ATOM
      1 CA         -0.0066  -12.1377  -51.6454 C.3       0 UNK        -0.1800 
      2 C           0.0639  -12.8074  -50.2802 C.2       0 UNK         0.5000 
      3 O           0.2759  -12.1295  -49.2744 O.2       0 UNK        -0.5000 
      4 N          -0.1025  -14.1341  -50.2444 N.am      1 UNK        -0.5000 
      5 CA         -0.1585  -14.9460  -49.0265 C.3       1 UNK         0.1400 
      6 C6          0.0914  -16.4530  -49.3061 C.3       23 UNK        -0.0398 
      7 S7         -0.7791  -17.1329  -50.7690 S.3       23 UNK        -0.2404 
      8 C8          0.5772  -17.3113  -51.9820 C.3       23 UNK        -0.0205 
      9 C9          1.4126  -18.5570  -51.7193 C.ar      23 UNK        -0.0193 
     10 C10         1.0338  -19.7860  -52.2644 C.ar      23 UNK        -0.1150 
     11 C11         1.7378  -20.9536  -51.9543 C.ar      23 UNK        -0.0193 
     12 C12         2.8528  -20.8794  -51.1140 C.ar      23 UNK        -0.1150 
     13 C13         3.2550  -19.6524  -50.5800 C.ar      23 UNK        -0.0193 
     14 C14         2.5472  -18.4927  -50.9077 C.ar      23 UNK        -0.1150 
     15 C15         4.4181  -19.5766  -49.6009 C.3       23 UNK        -0.0205 
     16 S16         4.0458  -20.3546  -47.9892 S.3       23 UNK        -0.2404 
     17 C17         2.3867  -19.7114  -47.5676 C.3       23 UNK        -0.0398 
     18 CA          1.3699  -20.8680  -47.3747 C.3       11 UNK         0.1400 
     19 N           1.2761  -21.2725  -45.9694 N.am      11 UNK        -0.5000 
     20 C           0.5947  -22.3309  -45.5111 C.2       10 UNK         0.5000 
     21 O           0.0308  -23.1504  -46.2361 O.2       10 UNK        -0.5000 
     22 CA          0.4674  -22.4543  -43.9807 C.3       10 UNK         0.1400 
     23 CB          1.7242  -23.0896  -43.3681 C.3       10 UNK        -0.1800 
     24 N           0.1977  -21.1642  -43.3403 N.am      10 UNK        -0.5000 
     25 C          -0.9124  -20.4405  -43.5484 C.2       9 UNK         0.5000 
     26 O          -1.8500  -20.8189  -44.2470 O.2       9 UNK        -0.5000 
     27 CA         -0.9741  -19.0440  -42.9105 C.3       9 UNK         0.1400 
     28 CB         -1.3926  -19.1468  -41.4350 C.3       9 UNK        -0.1800 
     29 N           0.2936  -18.3243  -43.0195 N.am      9 UNK        -0.5000 
     30 C           0.8732  -17.9351  -44.1645 C.2       8 UNK         0.5000 
     31 O           0.3661  -18.0889  -45.2750 O.2       8 UNK        -0.5000 
     32 CA          2.2924  -17.3439  -44.0554 C.3       8 UNK         0.1400 
     33 CB          2.2709  -15.8450  -43.7258 C.3       8 UNK        -0.1800 
     34 N           3.0965  -18.0456  -43.0570 N.am      8 UNK        -0.5000 
     35 C           3.5395  -19.3028  -43.1906 C.2       7 UNK         0.5000 
     36 O           3.3304  -19.9987  -44.1840 O.2       7 UNK        -0.5000 
     37 CA          4.3106  -19.8862  -41.9929 C.3       7 UNK         0.1400 
     38 CB          5.7913  -19.4831  -42.0535 C.3       7 UNK        -0.1800 
     39 N           3.7437  -19.4657  -40.7093 N.am      7 UNK        -0.5000 
     40 C           2.5546  -19.8754  -40.2462 C.2       6 UNK         0.5000 
     41 O           1.8307  -20.6743  -40.8412 O.2       6 UNK        -0.5000 
     42 CA          2.0753  -19.2486  -38.9217 C.3       6 UNK         0.1400 
     43 CB          2.7068  -19.9696  -37.7214 C.3       6 UNK        -0.1800 
     44 N           2.3365  -17.8068  -38.8198 N.am      6 UNK        -0.5000 
     45 C           1.8366  -16.8901  -39.6580 C.2       5 UNK         0.5000 
     46 O           1.1443  -17.1754  -40.6378 O.2       5 UNK        -0.5000 
     47 CA          2.1787  -15.4178  -39.3883 C.3       5 UNK         0.1400 
     48 CB          3.6498  -15.1197  -39.7300 C.3       5 UNK        -0.1800 
     49 N           1.3020  -14.6133  -40.2304 N.am      5 UNK        -0.5000 
     50 C           0.9759  -13.3267  -40.0823 C.2       4 UNK         0.5000 
     51 O           1.4080  -12.6109  -39.1781 O.2       4 UNK        -0.5000 
     52 CA          0.0046  -12.7379  -41.1273 C.3       4 UNK         0.1400 
     53 CB          0.7770  -11.9119  -42.1675 C.3       4 UNK        -0.1800 
     54 N          -0.7693  -13.7631  -41.8333 N.am      4 UNK        -0.5000 
     55 C          -1.8366  -14.4058  -41.3461 C.2       3 UNK         0.5000 
     56 O          -2.3325  -14.1538  -40.2469 O.2       3 UNK        -0.5000 
     57 CA         -2.4366  -15.5163  -42.2402 C.3       3 UNK         0.1400 
     58 CB         -3.6776  -16.1822  -41.6195 C.3       3 UNK        -0.1800 
     59 N          -2.7693  -15.0738  -43.5989 N.am      3 UNK        -0.5000 
     60 C          -1.8817  -14.8515  -44.5744 C.2       2 UNK         0.5000 
     61 O          -0.6626  -14.9317  -44.4078 O.2       2 UNK        -0.5000 
     62 CA         -2.4297  -14.4530  -45.9516 C.3       2 UNK         0.1400 
     63 CB         -2.8776  -12.9795  -45.9577 C.3       2 UNK        -0.1800 
     64 N          -1.3584  -14.6634  -46.9187 N.am      2 UNK        -0.5000 
     65 C          -1.4690  -14.6989  -48.2491 C.2       1 UNK         0.5000 
     66 O          -2.5320  -14.5507  -48.8546 O.2       1 UNK        -0.5000 
     67 C          -0.0171  -20.5360  -47.9671 C.2       11 UNK         0.5000 
     68 O          -0.3579  -21.0583  -49.0265 O.2       11 UNK        -0.5000 
     69 N          -0.8177  -19.7300  -47.2548 N.am      12 UNK        -0.5000 
     70 CA         -2.1892  -19.3821  -47.6350 C.3       12 UNK         0.1400 
     71 CB         -2.7333  -18.3040  -46.6876 C.3       12 UNK        -0.1800 
     72 C          -3.1366  -20.5965  -47.6839 C.2       12 UNK         0.5000 
     73 O          -3.9741  -20.6704  -48.5833 O.2       12 UNK        -0.5000 
     74 N          -2.9770  -21.5386  -46.7450 N.am      13 UNK        -0.5000 
     75 CA         -3.7044  -22.8075  -46.7056 C.3       13 UNK         0.1400 
     76 CB         -3.4563  -23.5138  -45.3647 C.3       13 UNK        -0.1800 
     77 C          -3.3450  -23.7237  -47.8885 C.2       13 UNK         0.5000 
     78 O          -4.2485  -24.2718  -48.5209 O.2       13 UNK        -0.5000 
     79 N          -2.0453  -23.8260  -48.2084 N.am      14 UNK        -0.5000 
     80 CA         -1.5288  -24.5341  -49.3858 C.3       14 UNK         0.1400 
     81 CB          0.0061  -24.5729  -49.3362 C.3       14 UNK        -0.1800 
     82 C          -2.0111  -23.9180  -50.7134 C.2       14 UNK         0.5000 
     83 O          -2.2154  -24.6444  -51.6860 O.2       14 UNK        -0.5000 
     84 N          -2.2308  -22.5978  -50.7068 N.am      15 UNK        -0.5000 
     85 CA         -2.8231  -21.8037  -51.7815 C.3       15 UNK         0.1400 
     86 CB         -2.4031  -20.3390  -51.5852 C.3       15 UNK        -0.1800 
     87 C          -4.3609  -21.9050  -51.8521 C.2       15 UNK         0.5000 
     88 O          -4.9671  -21.0894  -52.5455 O.2       15 UNK        -0.5000 
     89 N          -4.9700  -22.8509  -51.1208 N.am      16 UNK        -0.5000 
     90 CA         -6.4083  -23.1227  -51.0437 C.3       16 UNK         0.1400 
     91 CB         -6.9365  -23.6528  -52.3932 C.3       16 UNK        -0.1800 
     92 C          -7.2056  -21.9195  -50.5011 C.2       16 UNK         0.5000 
     93 O          -8.1969  -21.5059  -51.1038 O.2       16 UNK        -0.5000 
     94 N          -6.7294  -21.3790  -49.3704 N.am      17 UNK        -0.5000 
     95 CA         -7.2195  -20.1840  -48.6762 C.3       17 UNK         0.1400 
     96 CB         -8.6826  -20.3498  -48.2127 C.3       17 UNK        -0.1800 
     97 C          -6.9687  -18.9080  -49.5032 C.2       17 UNK         0.5000 
     98 O          -7.8816  -18.1068  -49.7109 O.2       17 UNK        -0.5000 
     99 N          -5.7142  -18.7604  -49.9552 N.am      18 UNK        -0.5000 
    100 CA        -5.1729  -17.6366  -50.7305 C.3       18 UNK         0.1400 
    101 CB        -5.1674  -16.3480  -49.8835 C.3       18 UNK        -0.1800 
    102 C         -5.8359  -17.4440  -52.1136 C.2       18 UNK         0.5000 
    103 O         -5.8809  -16.3236  -52.6248 O.2       18 UNK        -0.5000 
    104 N         -6.3199  -18.5407  -52.7102 N.am      19 UNK        -0.5000 
    105 CA        -6.8804  -18.5789  -54.0623 C.3       19 UNK         0.1400 
    106 CB        -7.8695  -19.7506  -54.1526 C.3       19 UNK        -0.1800 
    107 C         -5.7922  -18.7066  -55.1480 C.2       19 UNK         0.5000 
    108 O         -6.0665  -18.3966  -56.3083 O.2       19 UNK        -0.5000 
    109 N         -4.5935  -19.1553  -54.7449 N.am      20 UNK        -0.5000 
    110 CA        -3.4253  -19.5053  -55.5596 C.3       20 UNK         0.1400 
    111 CB        -3.0037  -18.3539  -56.4989 C.3       20 UNK        -0.1800 
    112 C         -3.6111  -20.8540  -56.2851 C.2       20 UNK         0.5000 
    113 O         -4.6000  -21.5506  -56.0468 O.2       20 UNK        -0.5000 
    114 N         -2.6208  -21.2185  -57.1158 N.am      21 UNK        -0.5000 
    115 CA        -2.4482  -22.5259  -57.7645 C.3       21 UNK         0.1400 
    116 CB        -3.5839  -22.8142  -58.7698 C.3       21 UNK        -0.1800 
    117 C         -2.2667  -23.6323  -56.7049 C.2       21 UNK         0.5000 
    118 O         -3.1623  -24.4536  -56.5013 O.2       21 UNK        -0.5000 
    119 N         -1.1203  -23.5578  -56.0136 N.am      22 UNK        -0.5000 
    120 CA        -0.7140  -24.3425  -54.8347 C.3       22 UNK         0.1400 
    121 C         -1.0285  -25.8637  -54.9022 C.2       22 UNK         0.5000 
    122 N         -1.6230  -26.4202  -53.8560 N.am      22 UNK        -0.7600 
    123 O         -0.6871  -26.5445  -55.8670 O.2       22 UNK        -0.5000 
    124 C124        0.7923  -24.1449  -54.5251 C.3       23 UNK        -0.0398 
    125 S125        1.2677  -22.3990  -54.2824 S.3       23 UNK        -0.2404 
    126 C126        1.2525  -22.3011  -52.4664 C.3       23 UNK        -0.0205 
    127 H127        0.9287  -11.6203  -51.8588 H         1 UNK         0.0600 
    128 H128       -0.8143  -11.4059  -51.6626 H         1 UNK         0.0600 
    129 H129       -0.1852  -12.8599  -52.4426 H         1 UNK         0.0600 
    130 H130       -0.3234  -14.6325  -51.0945 H         1 UNK         0.3000 
    131 H131        0.6583  -14.6077  -48.3844 H         1 UNK         0.0600 
    132 H132       -0.1681  -17.0600  -48.4370 H         1 UNK         0.0800 
    133 H133        1.1611  -16.5986  -49.4340 H         1 UNK         0.0800 
    134 H134        1.2056  -16.4195  -51.9739 H         1 UNK         0.0800 
    135 H135        0.1447  -17.3682  -52.9820 H         1 UNK         0.0800 
    136 H136        0.1670  -19.8418  -52.9069 H         1 UNK         0.1150 
    137 H137        3.3899  -21.7782  -50.8455 H         1 UNK         0.1150 
    138 H138        2.8599  -17.5448  -50.4950 H         1 UNK         0.1150 
    139 H139        5.2891  -20.0665  -50.0380 H         1 UNK         0.0800 
    140 H140        4.7080  -18.5390  -49.4283 H         1 UNK         0.0800 
    141 H141        2.0575  -19.0021  -48.3249 H         1 UNK         0.0800 
    142 H142        2.4763  -19.1167  -46.6601 H         1 UNK         0.0800 
    143 H143        1.7199  -21.7404  -47.9313 H         1 UNK         0.0600 
    144 H144        1.7601  -20.6852  -45.2986 H         1 UNK         0.3000 
    145 H145       -0.3784  -23.1121  -43.7707 H         1 UNK         0.0600 
    146 H146        1.6120  -23.2257  -42.2923 H         1 UNK         0.0600 
    147 H147        2.6112  -22.4796  -43.5363 H         1 UNK         0.0600 
    148 H148        1.9147  -24.0715  -43.8030 H         1 UNK         0.0600 
    149 H149        0.9013  -20.8110  -42.7011 H         1 UNK         0.3000 
    150 H150       -1.7308  -18.4648  -43.4430 H         1 UNK         0.0600 
    151 H151       -2.3807  -19.5992  -41.3430 H         1 UNK         0.0600 
    152 H152       -1.4374  -18.1690  -40.9577 H         1 UNK         0.0600 
    153 H153       -0.6983  -19.7591  -40.8601 H         1 UNK         0.0600 
    154 H154        0.7577  -18.0983  -42.1427 H         1 UNK         0.3000 
    155 H155        2.7845  -17.4617  -45.0223 H         1 UNK         0.0600 
    156 H156        1.8797  -15.2741  -44.5675 H         1 UNK         0.0600 
    157 H157        3.2725  -15.4654  -43.5237 H         1 UNK         0.0600 
    158 H158        1.6474  -15.6276  -42.8598 H         1 UNK         0.0600 
    159 H159        3.2708  -17.5618  -42.1898 H         1 UNK         0.3000 
    160 H160        4.2504  -20.9750  -42.0561 H         1 UNK         0.0600 
    161 H161        5.9206  -18.4031  -41.9727 H         1 UNK         0.0600 
    162 H162        6.2425  -19.7984  -42.9953 H         1 UNK         0.0600 
    163 H163        6.3600  -19.9506  -41.2495 H         1 UNK         0.0600 
    164 H164        4.2784  -18.8084  -40.1608 H         1 UNK         0.3000 
    165 H165        0.9938  -19.3905  -38.8693 H         1 UNK         0.0600 
    166 H166        2.2944  -19.6046  -36.7806 H         1 UNK         0.0600 
    167 H167        2.5136  -21.0424  -37.7644 H         1 UNK         0.0600 
    168 H168        3.7883  -19.8316  -37.6904 H         1 UNK         0.0600 
    169 H169        2.9042  -17.5046  -38.0410 H         1 UNK         0.3000 
    170 H170        1.9805  -15.1971  -38.3378 H         1 UNK         0.0600 
    171 H171        3.8707  -15.3354  -40.7762 H         1 UNK         0.0600 
    172 H172        3.8936  -14.0730  -39.5481 H         1 UNK         0.0600 
    173 H173        4.3270  -15.7176  -39.1192 H         1 UNK         0.0600 
    174 H174        0.8507  -15.1504  -40.9598 H         1 UNK         0.3000 
    175 H175       -0.6853  -12.0734  -40.6030 H         1 UNK         0.0600 
    176 H176        1.4773  -12.5300  -42.7312 H         1 UNK         0.0600 
    177 H177        0.0987  -11.4403  -42.8789 H         1 UNK         0.0600 
    178 H178        1.3505  -11.1167  -41.6894 H         1 UNK         0.0600 
    179 H179       -0.4505  -14.0286  -42.7617 H         1 UNK         0.3000 
    180 H180       -1.6622  -16.2793  -42.3199 H         1 UNK         0.0600 
    181 H181       -4.5053  -15.4787  -41.5230 H         1 UNK         0.0600 
    182 H182       -3.4592  -16.5727  -40.6247 H         1 UNK         0.0600 
    183 H183       -4.0179  -17.0222  -42.2255 H         1 UNK         0.0600 
    184 H184       -3.7514  -14.9408  -43.7928 H         1 UNK         0.3000 
    185 H185       -3.2710  -15.1034  -46.1990 H         1 UNK         0.0600 
    186 H186       -2.0490  -12.3088  -45.7266 H         1 UNK         0.0600 
    187 H187       -3.2809  -12.6889  -46.9278 H         1 UNK         0.0600 
    188 H188       -3.6602  -12.8022  -45.2193 H         1 UNK         0.0600 
    189 H189       -0.4615  -14.8202  -46.4729 H         1 UNK         0.3000 
    190 H190       -0.4550  -19.2994  -46.4072 H         1 UNK         0.3000 
    191 H191       -2.1507  -18.9566  -48.6394 H         1 UNK         0.0600 
    192 H192       -2.0821  -17.4313  -46.6726 H         1 UNK         0.0600 
    193 H193       -2.8209  -18.6715  -45.6653 H         1 UNK         0.0600 
    194 H194       -3.7222  -17.9696  -47.0035 H         1 UNK         0.0600 
    195 H195       -2.3256  -21.3629  -45.9843 H         1 UNK         0.3000 
    196 H196       -4.7707  -22.5818  -46.7729 H         1 UNK         0.0600 
    197 H197       -3.7779  -22.8932  -44.5282 H         1 UNK         0.0600 
    198 H198       -2.4021  -23.7487  -45.2196 H         1 UNK         0.0600 
    199 H199       -4.0124  -24.4502  -45.3081 H         1 UNK         0.0600 
    200 H200       -1.3570  -23.3726  -47.6135 H         1 UNK         0.3000 
    201 H201       -1.8983  -25.5606  -49.3455 H         1 UNK         0.0600 
    202 H202        0.3587  -25.0612  -48.4276 H         1 UNK         0.0600 
    203 H203        0.4377  -23.5724  -49.3658 H         1 UNK         0.0600 
    204 H204        0.4103  -25.1287  -50.1832 H         1 UNK         0.0600 
    205 H205       -1.9540  -22.0810  -49.8787 H         1 UNK         0.3000 
    206 H206       -2.4214  -22.1539  -52.7338 H         1 UNK         0.0600 
    207 H207       -1.3561  -20.2599  -51.3112 H         1 UNK         0.0600 
    208 H208       -2.9681  -19.8619  -50.7886 H         1 UNK         0.0600 
    209 H209       -2.5556  -19.7516  -52.4894 H         1 UNK         0.0600 
    210 H210       -4.3933  -23.4303  -50.5235 H         1 UNK         0.3000 
    211 H211       -6.5294  -23.9216  -50.3107 H         1 UNK         0.0600 
    212 H212       -6.8606  -22.9061  -53.1834 H         1 UNK         0.0600 
    213 H213       -7.9851  -23.9422  -52.3162 H         1 UNK         0.0600 
    214 H214       -6.3797  -24.5334  -52.7134 H         1 UNK         0.0600 
    215 H215       -5.8522  -21.7407  -49.0168 H         1 UNK         0.3000 
    216 H216       -6.6092  -20.0861  -47.7771 H         1 UNK         0.0600 
    217 H217       -8.9831  -19.5161  -47.5773 H         1 UNK         0.0600 
    218 H218       -8.8110  -21.2631  -47.6320 H         1 UNK         0.0600 
    219 H219       -9.3786  -20.3835  -49.0510 H         1 UNK         0.0600 
    220 H220       -5.0494  -19.4860  -49.7023 H         1 UNK         0.3000 
    221 H221       -4.1315  -17.8817  -50.9380 H         1 UNK         0.0600 
    222 H222       -4.6618  -16.5046  -48.9307 H         1 UNK         0.0600 
    223 H223       -4.6378  -15.5449  -50.3972 H         1 UNK         0.0600 
    224 H224       -6.1766  -15.9924  -49.6757 H         1 UNK         0.0600 
    225 H225       -6.1958  -19.4391  -52.2567 H         1 UNK         0.3000 
    226 H226       -7.4315  -17.6549  -54.2487 H         1 UNK         0.0600 
    227 H227       -8.6590  -19.6603  -53.4063 H         1 UNK         0.0600 
    228 H228       -8.3471  -19.7855  -55.1324 H         1 UNK         0.0600 
    229 H229       -7.3700  -20.7071  -53.9967 H         1 UNK         0.0600 
    230 H230       -4.5643  -19.5056  -53.7942 H         1 UNK         0.3000 
    231 H231       -2.6117  -19.6570  -54.8499 H         1 UNK         0.0600 
    232 H232       -1.9988  -18.5116  -56.8911 H         1 UNK         0.0600 
    233 H233       -2.9932  -17.3994  -55.9724 H         1 UNK         0.0600 
    234 H234       -3.6734  -18.2585  -57.3540 H         1 UNK         0.0600 
    235 H235       -1.8536  -20.5738  -57.2433 H         1 UNK         0.3000 
    236 H236       -1.5195  -22.4742  -58.3351 H         1 UNK         0.0600 
    237 H237       -4.5539  -22.9155  -58.2828 H         1 UNK         0.0600 
    238 H238       -3.6638  -22.0190  -59.5108 H         1 UNK         0.0600 
    239 H239       -3.3946  -23.7433  -59.3084 H         1 UNK         0.0600 
    240 H240       -0.4649  -22.8344  -56.2708 H         1 UNK         0.3000 
    241 H241       -1.2797  -23.9223  -54.0034 H         1 UNK         0.0600 
    242 H242       -1.8245  -27.4074  -53.8652 H         1 UNK         0.3800 
    243 H243       -1.8973  -25.8569  -53.0527 H         1 UNK         0.3800 
    244 H244        1.3973  -24.5416  -55.3425 H         1 UNK         0.0800 
    245 H245        1.0790  -24.7162  -53.6402 H         1 UNK         0.0800 
    246 H246        0.2380  -22.4685  -52.1063 H         1 UNK         0.0800 
    247 H247        1.8648  -23.1055  -52.0561 H         1 UNK         0.0800 
@<TRIPOS>BOND
     1    1    2 1    
     2    1  127 1    
     3    1  128 1    
     4    1  129 1    
     5    2    3 2    
     6    2    4 am   BACKBONE|DICT|INTERRES
     7    4    5 1    
     8    4  130 1    
     9    5    6 1    
    10    5   65 1    
    11    5  131 1    
    12    6    7 1    
    13    6  132 1    
    14    6  133 1    
    15    7    8 1    
    16    8    9 1    
    17    8  134 1    
    18    8  135 1    
    19    9   10 ar   
    20    9   14 ar   
    21   10   11 ar   
    22   10  136 1    
    23   11   12 ar   
    24   11  126 1    
    25   12   13 ar   
    26   12  137 1    
    27   13   14 ar   
    28   13   15 1    
    29   14  138 1    
    30   15   16 1    
    31   15  139 1    
    32   15  140 1    
    33   16   17 1    
    34   17   18 1    
    35   17  141 1    
    36   17  142 1    
    37   18   19 1    
    38   18   67 1    
    39   18  143 1    
    40   19   20 am   BACKBONE|DICT|INTERRES
    41   19  144 1    
    42   20   21 2    
    43   20   22 1    
    44   22   23 1    
    45   22   24 1    
    46   22  145 1    
    47   23  146 1    
    48   23  147 1    
    49   23  148 1    
    50   24   25 am   BACKBONE|DICT|INTERRES
    51   24  149 1    
    52   25   26 2    
    53   25   27 1    
    54   27   28 1    
    55   27   29 1    
    56   27  150 1    
    57   28  151 1    
    58   28  152 1    
    59   28  153 1    
    60   29   30 am   BACKBONE|DICT|INTERRES
    61   29  154 1    
    62   30   31 2    
    63   30   32 1    
    64   32   33 1    
    65   32   34 1    
    66   32  155 1    
    67   33  156 1    
    68   33  157 1    
    69   33  158 1    
    70   34   35 am   BACKBONE|DICT|INTERRES
    71   34  159 1    
    72   35   36 2    
    73   35   37 1    
    74   37   38 1    
    75   37   39 1    
    76   37  160 1    
    77   38  161 1    
    78   38  162 1    
    79   38  163 1    
    80   39   40 am   BACKBONE|DICT|INTERRES
    81   39  164 1    
    82   40   41 2    
    83   40   42 1    
    84   42   43 1    
    85   42   44 1    
    86   42  165 1    
    87   43  166 1    
    88   43  167 1    
    89   43  168 1    
    90   44   45 am   BACKBONE|DICT|INTERRES
    91   44  169 1    
    92   45   46 2    
    93   45   47 1    
    94   47   48 1    
    95   47   49 1    
    96   47  170 1    
    97   48  171 1    
    98   48  172 1    
    99   48  173 1    
   100   49   50 am   BACKBONE|DICT|INTERRES
   101   49  174 1    
   102   50   51 2    
   103   50   52 1    
   104   52   53 1    
   105   52   54 1    
   106   52  175 1    
   107   53  176 1    
   108   53  177 1    
   109   53  178 1    
   110   54   55 am   BACKBONE|DICT|INTERRES
   111   54  179 1    
   112   55   56 2    
   113   55   57 1    
   114   57   58 1    
   115   57   59 1    
   116   57  180 1    
   117   58  181 1    
   118   58  182 1    
   119   58  183 1    
   120   59   60 am   BACKBONE|DICT|INTERRES
   121   59  184 1    
   122   60   61 2    
   123   60   62 1    
   124   62   63 1    
   125   62   64 1    
   126   62  185 1    
   127   63  186 1    
   128   63  187 1    
   129   63  188 1    
   130   64   65 am   BACKBONE|DICT|INTERRES
   131   64  189 1    
   132   65   66 2    
   133   67   68 2    
   134   67   69 am   BACKBONE|DICT|INTERRES
   135   69   70 1    
   136   69  190 1    
   137   70   71 1    
   138   70   72 1    
   139   70  191 1    
   140   71  192 1    
   141   71  193 1    
   142   71  194 1    
   143   72   73 2    
   144   72   74 am   BACKBONE|DICT|INTERRES
   145   74   75 1    
   146   74  195 1    
   147   75   76 1    
   148   75   77 1    
   149   75  196 1    
   150   76  197 1    
   151   76  198 1    
   152   76  199 1    
   153   77   78 2    
   154   77   79 am   BACKBONE|DICT|INTERRES
   155   79   80 1    
   156   79  200 1    
   157   80   81 1    
   158   80   82 1    
   159   80  201 1    
   160   81  202 1    
   161   81  203 1    
   162   81  204 1    
   163   82   83 2    
   164   82   84 am   BACKBONE|DICT|INTERRES
   165   84   85 1    
   166   84  205 1    
   167   85   86 1    
   168   85   87 1    
   169   85  206 1    
   170   86  207 1    
   171   86  208 1    
   172   86  209 1    
   173   87   88 2    
   174   87   89 am   BACKBONE|DICT|INTERRES
   175   89   90 1    
   176   89  210 1    
   177   90   91 1    
   178   90   92 1    
   179   90  211 1    
   180   91  212 1    
   181   91  213 1    
   182   91  214 1    
   183   92   93 2    
   184   92   94 am   BACKBONE|DICT|INTERRES
   185   94   95 1    
   186   94  215 1    
   187   95   96 1    
   188   95   97 1    
   189   95  216 1    
   190   96  217 1    
   191   96  218 1    
   192   96  219 1    
   193   97   98 2    
   194   97   99 am   BACKBONE|DICT|INTERRES
   195   99  100 1    
   196   99  220 1    
   197  100  101 1    
   198  100  102 1    
   199  100  221 1    
   200  101  222 1    
   201  101  223 1    
   202  101  224 1    
   203  102  103 2    
   204  102  104 am   BACKBONE|DICT|INTERRES
   205  104  105 1    
   206  104  225 1    
   207  105  106 1    
   208  105  107 1    
   209  105  226 1    
   210  106  227 1    
   211  106  228 1    
   212  106  229 1    
   213  107  108 2    
   214  107  109 am   BACKBONE|DICT|INTERRES
   215  109  110 1    
   216  109  230 1    
   217  110  111 1    
   218  110  112 1    
   219  110  231 1    
   220  111  232 1    
   221  111  233 1    
   222  111  234 1    
   223  112  113 2    
   224  112  114 am   BACKBONE|DICT|INTERRES
   225  114  115 1    
   226  114  235 1    
   227  115  116 1    
   228  115  117 1    
   229  115  236 1    
   230  116  237 1    
   231  116  238 1    
   232  116  239 1    
   233  117  118 2    
   234  117  119 am   BACKBONE|DICT|INTERRES
   235  119  120 1    
   236  119  240 1    
   237  120  121 1    
   238  120  124 1    
   239  120  241 1    
   240  121  122 am   BACKBONE|DICT|INTERRES
   241  121  123 2    
   242  122  242 1    
   243  122  243 1    
   244  124  125 1    
   245  124  244 1    
   246  124  245 1    
   247  125  126 1    
   248  126  246 1    
   249  126  247 1    
@<TRIPOS>SUBSTRUCTURE
     1 UNK         1 GROUP             0       ****    0 ROOT    
