@<TRIPOS>MOLECULE
3R540
247   249    1
SMALL
USER_CHARGES


@<TRIPOS>ATOM
      1 CA          5.3131  -13.1091  -47.4277 C.3       0 UNK        -0.1800 
      2 C           3.8014  -13.2067  -47.2874 C.2       0 UNK         0.5000 
      3 O           3.3005  -13.4044  -46.1819 O.2       0 UNK        -0.5000 
      4 N           3.0695  -13.0480  -48.3982 N.am      1 UNK        -0.5000 
      5 CA          1.6056  -13.1690  -48.4946 C.3       1 UNK         0.1400 
      6 C6          1.1242  -13.0876  -49.9613 C.3       23 UNK        -0.0398 
      7 S7          1.6652  -14.5519  -50.9021 S.3       23 UNK        -0.2404 
      8 C8          0.1293  -15.5214  -50.8593 C.3       23 UNK        -0.0205 
      9 C9          0.3734  -16.9825  -51.1925 C.ar      23 UNK        -0.0193 
     10 C10         0.5759  -17.3782  -52.5183 C.ar      23 UNK        -0.1150 
     11 C11         0.7261  -18.7306  -52.8392 C.ar      23 UNK        -0.0193 
     12 C12         0.6906  -19.6843  -51.8189 C.ar      23 UNK        -0.1150 
     13 C13         0.4972  -19.3001  -50.4890 C.ar      23 UNK        -0.0193 
     14 C14         0.3469  -17.9461  -50.1793 C.ar      23 UNK        -0.1150 
     15 C15         0.3911  -20.3566  -49.4025 C.3       23 UNK        -0.0205 
     16 S16         1.9990  -21.1081  -49.0119 S.3       23 UNK        -0.2404 
     17 C17         1.4032  -22.6106  -48.1750 C.3       23 UNK        -0.0398 
     18 CA          2.4392  -23.2566  -47.2244 C.3       11 UNK         0.1400 
     19 N           2.7544  -22.3924  -46.0791 N.am      11 UNK        -0.5000 
     20 C           3.7917  -22.5761  -45.2502 C.2       10 UNK         0.5000 
     21 O           4.6579  -23.4346  -45.4216 O.2       10 UNK        -0.5000 
     22 CA          3.8475  -21.6862  -43.9932 C.3       10 UNK         0.1400 
     23 CB          4.5341  -20.3462  -44.2975 C.3       10 UNK        -0.1800 
     24 N           2.5258  -21.4496  -43.4045 N.am      10 UNK        -0.5000 
     25 C           1.7687  -22.3992  -42.8338 C.2       9 UNK         0.5000 
     26 O           2.1271  -23.5693  -42.7042 O.2       9 UNK        -0.5000 
     27 CA          0.3583  -21.9954  -42.3635 C.3       9 UNK         0.1400 
     28 CB          0.4102  -21.4009  -40.9490 C.3       9 UNK        -0.1800 
     29 N          -0.3091  -21.0598  -43.2695 N.am      9 UNK        -0.5000 
     30 C          -0.6374  -21.3334  -44.5407 C.2       8 UNK         0.5000 
     31 O          -0.4306  -22.4172  -45.0849 O.2       8 UNK        -0.5000 
     32 CA         -1.2324  -20.1783  -45.3650 C.3       8 UNK         0.1400 
     33 CB         -2.7053  -19.9520  -44.9993 C.3       8 UNK        -0.1800 
     34 N          -0.4813  -18.9329  -45.1967 N.am      8 UNK        -0.5000 
     35 C           0.8226  -18.7826  -45.4756 C.2       7 UNK         0.5000 
     36 O           1.5183  -19.6623  -45.9798 O.2       7 UNK        -0.5000 
     37 CA          1.4699  -17.4549  -45.0463 C.3       7 UNK         0.1400 
     38 CB          1.1922  -16.3439  -46.0726 C.3       7 UNK        -0.1800 
     39 N           1.0066  -17.0573  -43.7134 N.am      7 UNK        -0.5000 
     40 C           1.3787  -17.6785  -42.5823 C.2       6 UNK         0.5000 
     41 O           2.2242  -18.5717  -42.5499 O.2       6 UNK        -0.5000 
     42 CA          0.6528  -17.2937  -41.2783 C.3       6 UNK         0.1400 
     43 CB          1.4446  -16.2670  -40.4595 C.3       6 UNK        -0.1800 
     44 N          -0.7025  -16.7994  -41.5162 N.am      6 UNK        -0.5000 
     45 C          -1.7342  -17.6016  -41.8122 C.2       5 UNK         0.5000 
     46 O          -1.6449  -18.8281  -41.8560 O.2       5 UNK        -0.5000 
     47 CA         -3.0726  -16.9268  -42.1687 C.3       5 UNK         0.1400 
     48 CB         -3.9273  -16.7258  -40.9091 C.3       5 UNK        -0.1800 
     49 N          -2.9119  -15.6423  -42.8535 N.am      5 UNK        -0.5000 
     50 C          -2.3044  -15.4752  -44.0358 C.2       4 UNK         0.5000 
     51 O          -1.8347  -16.4070  -44.6883 O.2       4 UNK        -0.5000 
     52 CA         -2.1673  -14.0354  -44.5695 C.3       4 UNK         0.1400 
     53 CB         -3.2194  -13.0629  -43.9946 C.3       4 UNK        -0.1800 
     54 N          -0.8217  -13.4791  -44.3878 N.am      4 UNK        -0.5000 
     55 C          -0.1217  -13.3633  -43.2454 C.2       3 UNK         0.5000 
     56 O          -0.4820  -13.8520  -42.1737 O.2       3 UNK        -0.5000 
     57 CA          1.1965  -12.5558  -43.2882 C.3       3 UNK         0.1400 
     58 CB          2.4201  -13.4630  -43.0856 C.3       3 UNK        -0.1800 
     59 N           1.3755  -11.8031  -44.5299 N.am      3 UNK        -0.5000 
     60 C           0.7309  -10.6676  -44.8407 C.2       2 UNK         0.5000 
     61 O          -0.0388  -10.0921  -44.0710 O.2       2 UNK        -0.5000 
     62 CA          0.9584  -10.0848  -46.2533 C.3       2 UNK         0.1400 
     63 CB          1.9310   -8.8970  -46.1939 C.3       2 UNK        -0.1800 
     64 N           1.4631  -11.0592  -47.2246 N.am      2 UNK        -0.5000 
     65 C           0.8265  -12.1758  -47.6064 C.2       1 UNK         0.5000 
     66 O          -0.3113  -12.4674  -47.2352 O.2       1 UNK        -0.5000 
     67 C           1.9100  -24.6441  -46.7929 C.2       11 UNK         0.5000 
     68 O           1.9613  -25.5782  -47.5939 O.2       11 UNK        -0.5000 
     69 N           1.3679  -24.7335  -45.5687 N.am      12 UNK        -0.5000 
     70 CA          0.5543  -25.8262  -45.0248 C.3       12 UNK         0.1400 
     71 CB          1.3672  -27.1316  -44.9012 C.3       12 UNK        -0.1800 
     72 C          -0.7684  -25.9898  -45.8064 C.2       12 UNK         0.5000 
     73 O          -1.2113  -27.1113  -46.0619 O.2       12 UNK        -0.5000 
     74 N          -1.3593  -24.8510  -46.1861 N.am      13 UNK        -0.5000 
     75 CA         -2.5999  -24.7361  -46.9431 C.3       13 UNK         0.1400 
     76 CB         -2.4002  -23.6674  -48.0298 C.3       13 UNK        -0.1800 
     77 C          -3.7608  -24.3376  -46.0184 C.2       13 UNK         0.5000 
     78 O          -3.5370  -23.8307  -44.9164 O.2       13 UNK        -0.5000 
     79 N          -4.9907  -24.5471  -46.5047 N.am      14 UNK        -0.5000 
     80 CA         -6.2301  -24.1855  -45.8109 C.3       14 UNK         0.1400 
     81 CB         -7.4105  -24.8828  -46.5053 C.3       14 UNK        -0.1800 
     82 C          -6.4738  -22.6644  -45.7417 C.2       14 UNK         0.5000 
     83 O          -7.1477  -22.2016  -44.8206 O.2       14 UNK        -0.5000 
     84 N          -5.9259  -21.9201  -46.7087 N.am      15 UNK        -0.5000 
     85 CA         -5.9994  -20.4689  -46.8218 C.3       15 UNK         0.1400 
     86 CB         -7.3877  -20.0416  -47.3366 C.3       15 UNK        -0.1800 
     87 C          -4.8809  -19.9912  -47.7587 C.2       15 UNK         0.5000 
     88 O          -4.2540  -20.8095  -48.4419 O.2       15 UNK        -0.5000 
     89 N          -4.6510  -18.6720  -47.7732 N.am      16 UNK        -0.5000 
     90 CA         -3.6903  -17.9986  -48.6489 C.3       16 UNK         0.1400 
     91 CB         -3.6133  -16.5131  -48.2629 C.3       16 UNK        -0.1800 
     92 C          -4.0389  -18.1723  -50.1414 C.2       16 UNK         0.5000 
     93 O          -5.1900  -18.4570  -50.4782 O.2       16 UNK        -0.5000 
     94 N          -3.0184  -18.0276  -50.9967 N.am      17 UNK        -0.5000 
     95 CA         -3.0184  -18.3803  -52.4232 C.3       17 UNK         0.1400 
     96 CB         -4.0751  -17.5909  -53.2247 C.3       17 UNK        -0.1800 
     97 C          -3.0978  -19.9059  -52.6546 C.2       17 UNK         0.5000 
     98 O          -3.5680  -20.3419  -53.7068 O.2       17 UNK        -0.5000 
     99 N          -2.6279  -20.6833  -51.6616 N.am      18 UNK        -0.5000 
    100 CA        -2.6555  -22.1482  -51.5853 C.3       18 UNK         0.1400 
    101 CB        -1.6557  -22.7635  -52.5838 C.3       18 UNK        -0.1800 
    102 C         -4.0911  -22.6821  -51.7440 C.2       18 UNK         0.5000 
    103 O         -4.3679  -23.4826  -52.6410 O.2       18 UNK        -0.5000 
    104 N         -4.9975  -22.1203  -50.9308 N.am      19 UNK        -0.5000 
    105 CA        -6.4611  -22.1434  -51.0326 C.3       19 UNK         0.1400 
    106 CB        -7.0267  -23.5702  -50.8999 C.3       19 UNK        -0.1800 
    107 C         -6.9800  -21.4211  -52.2941 C.2       19 UNK         0.5000 
    108 O         -7.7584  -20.4745  -52.1770 O.2       19 UNK        -0.5000 
    109 N         -6.5099  -21.8634  -53.4641 N.am      20 UNK        -0.5000 
    110 CA        -6.6956  -21.2445  -54.7749 C.3       20 UNK         0.1400 
    111 CB        -8.1442  -21.4588  -55.2605 C.3       20 UNK        -0.1800 
    112 C         -5.6857  -21.7625  -55.8231 C.2       20 UNK         0.5000 
    113 O         -5.7547  -21.3238  -56.9728 O.2       20 UNK        -0.5000 
    114 N         -4.7897  -22.6958  -55.4564 N.am      21 UNK        -0.5000 
    115 CA        -3.9606  -23.4653  -56.3891 C.3       21 UNK         0.1400 
    116 CB        -3.2632  -24.6066  -55.6339 C.3       21 UNK        -0.1800 
    117 C         -2.9428  -22.6491  -57.2098 C.2       21 UNK         0.5000 
    118 O         -2.6090  -23.0768  -58.3163 O.2       21 UNK        -0.5000 
    119 N         -2.4844  -21.5022  -56.6894 N.am      22 UNK        -0.5000 
    120 CA        -1.6422  -20.5438  -57.4325 C.3       22 UNK         0.1400 
    121 C         -2.4384  -19.3460  -58.0339 C.2       22 UNK         0.5000 
    122 N         -3.7656  -19.3228  -57.9724 N.am      22 UNK        -0.7600 
    123 O         -1.8449  -18.4294  -58.5966 O.2       22 UNK        -0.5000 
    124 C124       -0.3782  -20.1149  -56.6378 C.3       23 UNK        -0.0398 
    125 S125       -0.7317  -19.1593  -55.1301 S.3       23 UNK        -0.2404 
    126 C126        0.8803  -19.1672  -54.2883 C.3       23 UNK        -0.0205 
    127 H127        5.7791  -14.0385  -47.1008 H         1 UNK         0.0600 
    128 H128        5.6950  -12.2983  -46.8075 H         1 UNK         0.0600 
    129 H129        5.6136  -12.9212  -48.4586 H         1 UNK         0.0600 
    130 H130        3.5448  -12.8928  -49.2761 H         1 UNK         0.3000 
    131 H131        1.3492  -14.1593  -48.1124 H         1 UNK         0.0600 
    132 H132        1.5144  -12.1913  -50.4463 H         1 UNK         0.0800 
    133 H133        0.0365  -13.0104  -50.0215 H         1 UNK         0.0800 
    134 H134       -0.3270  -15.4370  -49.8714 H         1 UNK         0.0800 
    135 H135       -0.5858  -15.0969  -51.5659 H         1 UNK         0.0800 
    136 H136        0.5856  -16.6362  -53.3046 H         1 UNK         0.1150 
    137 H137        0.7998  -20.7314  -52.0602 H         1 UNK         0.1150 
    138 H138        0.1906  -17.6450  -49.1525 H         1 UNK         0.1150 
    139 H139       -0.0311  -19.9328  -48.4905 H         1 UNK         0.0800 
    140 H140       -0.3002  -21.1324  -49.7333 H         1 UNK         0.0800 
    141 H141        0.4915  -22.3727  -47.6244 H         1 UNK         0.0800 
    142 H142        1.1098  -23.3095  -48.9613 H         1 UNK         0.0800 
    143 H143        3.3602  -23.4253  -47.7864 H         1 UNK         0.0600 
    144 H144        2.1325  -21.6059  -45.9172 H         1 UNK         0.3000 
    145 H145        4.4519  -22.2082  -43.2485 H         1 UNK         0.0600 
    146 H146        4.6342  -19.7408  -43.3966 H         1 UNK         0.0600 
    147 H147        3.9800  -19.7635  -45.0328 H         1 UNK         0.0600 
    148 H148        5.5371  -20.5047  -44.6954 H         1 UNK         0.0600 
    149 H149        2.1829  -20.4962  -43.4282 H         1 UNK         0.3000 
    150 H150       -0.2496  -22.9019  -42.3267 H         1 UNK         0.0600 
    151 H151        1.0297  -20.5054  -40.9129 H         1 UNK         0.0600 
    152 H152       -0.5857  -21.1376  -40.5921 H         1 UNK         0.0600 
    153 H153        0.8307  -22.1168  -40.2418 H         1 UNK         0.0600 
    154 H154       -0.5724  -20.1595  -42.8816 H         1 UNK         0.3000 
    155 H155       -1.1825  -20.4544  -46.4196 H         1 UNK         0.0600 
    156 H156       -3.3065  -20.8178  -45.2790 H         1 UNK         0.0600 
    157 H157       -3.1093  -19.0799  -45.5113 H         1 UNK         0.0600 
    158 H158       -2.8443  -19.7978  -43.9305 H         1 UNK         0.0600 
    159 H159       -0.9898  -18.1331  -44.8309 H         1 UNK         0.3000 
    160 H160        2.5510  -17.6030  -45.0014 H         1 UNK         0.0600 
    161 H161        0.1300  -16.2208  -46.2790 H         1 UNK         0.0600 
    162 H162        1.6788  -16.5699  -47.0222 H         1 UNK         0.0600 
    163 H163        1.5774  -15.3844  -45.7320 H         1 UNK         0.0600 
    164 H164        0.2514  -16.3878  -43.6764 H         1 UNK         0.3000 
    165 H165        0.5890  -18.1995  -40.6725 H         1 UNK         0.0600 
    166 H166        1.0501  -16.1922  -39.4461 H         1 UNK         0.0600 
    167 H167        2.4961  -16.5461  -40.3796 H         1 UNK         0.0600 
    168 H168        1.3933  -15.2765  -40.9021 H         1 UNK         0.0600 
    169 H169       -0.8296  -15.7924  -41.5415 H         1 UNK         0.3000 
    170 H170       -3.6090  -17.5975  -42.8429 H         1 UNK         0.0600 
    171 H171       -4.0831  -17.6716  -40.3882 H         1 UNK         0.0600 
    172 H172       -3.4540  -16.0380  -40.2072 H         1 UNK         0.0600 
    173 H173       -4.9110  -16.3279  -41.1589 H         1 UNK         0.0600 
    174 H174       -3.2374  -14.8225  -42.3624 H         1 UNK         0.3000 
    175 H175       -2.3308  -14.0963  -45.6466 H         1 UNK         0.0600 
    176 H176       -3.0737  -12.8755  -42.9303 H         1 UNK         0.0600 
    177 H177       -3.1724  -12.1000  -44.5039 H         1 UNK         0.0600 
    178 H178       -4.2305  -13.4486  -44.1318 H         1 UNK         0.0600 
    179 H179       -0.4249  -13.0673  -45.2249 H         1 UNK         0.3000 
    180 H180        1.1692  -11.8420  -42.4623 H         1 UNK         0.0600 
    181 H181        2.4919  -13.7941  -42.0522 H         1 UNK         0.0600 
    182 H182        3.3480  -12.9347  -43.3063 H         1 UNK         0.0600 
    183 H183        2.3833  -14.3484  -43.7205 H         1 UNK         0.0600 
    184 H184        2.0033  -12.2186  -45.2120 H         1 UNK         0.3000 
    185 H185       -0.0062   -9.7229  -46.6147 H         1 UNK         0.0600 
    186 H186        1.5739   -8.1328  -45.5022 H         1 UNK         0.0600 
    187 H187        2.9220   -9.2059  -45.8587 H         1 UNK         0.0600 
    188 H188        2.0377   -8.4241  -47.1704 H         1 UNK         0.0600 
    189 H189        2.4026  -10.9118  -47.5637 H         1 UNK         0.3000 
    190 H190        1.3664  -23.8892  -45.0114 H         1 UNK         0.3000 
    191 H191        0.2738  -25.5184  -44.0164 H         1 UNK         0.0600 
    192 H192        0.8027  -27.8898  -44.3575 H         1 UNK         0.0600 
    193 H193        2.2961  -26.9655  -44.3556 H         1 UNK         0.0600 
    194 H194        1.6191  -27.5512  -45.8752 H         1 UNK         0.0600 
    195 H195       -0.9794  -23.9734  -45.8350 H         1 UNK         0.3000 
    196 H196       -2.8424  -25.6869  -47.4223 H         1 UNK         0.0600 
    197 H197       -2.1818  -22.6889  -47.5992 H         1 UNK         0.0600 
    198 H198       -1.5774  -23.9329  -48.6937 H         1 UNK         0.0600 
    199 H199       -3.2945  -23.5627  -48.6447 H         1 UNK         0.0600 
    200 H200       -5.0944  -24.9741  -47.4137 H         1 UNK         0.3000 
    201 H201       -6.1693  -24.5565  -44.7855 H         1 UNK         0.0600 
    202 H202       -8.3492  -24.6618  -45.9953 H         1 UNK         0.0600 
    203 H203       -7.2879  -25.9660  -46.5010 H         1 UNK         0.0600 
    204 H204       -7.5170  -24.5595  -47.5415 H         1 UNK         0.0600 
    205 H205       -5.3384  -22.3582  -47.4060 H         1 UNK         0.3000 
    206 H206       -5.8236  -20.0287  -45.8380 H         1 UNK         0.0600 
    207 H207       -8.1766  -20.3390  -46.6459 H         1 UNK         0.0600 
    208 H208       -7.4538  -18.9589  -47.4483 H         1 UNK         0.0600 
    209 H209       -7.6128  -20.4839  -48.3063 H         1 UNK         0.0600 
    210 H210       -5.2320  -18.0704  -47.2087 H         1 UNK         0.3000 
    211 H211       -2.7124  -18.4523  -48.4725 H         1 UNK         0.0600 
    212 H212       -4.5733  -16.0131  -48.3973 H         1 UNK         0.0600 
    213 H213       -2.8795  -15.9842  -48.8723 H         1 UNK         0.0600 
    214 H214       -3.3129  -16.3922  -47.2215 H         1 UNK         0.0600 
    215 H215       -2.1167  -17.7567  -50.6305 H         1 UNK         0.3000 
    216 H216       -2.0478  -18.0681  -52.7994 H         1 UNK         0.0600 
    217 H217       -4.0252  -16.5249  -53.0038 H         1 UNK         0.0600 
    218 H218       -5.0886  -17.9343  -53.0162 H         1 UNK         0.0600 
    219 H219       -3.9108  -17.7086  -54.2966 H         1 UNK         0.0600 
    220 H220       -2.2804  -20.2130  -50.8408 H         1 UNK         0.3000 
    221 H221       -2.3313  -22.4209  -50.5820 H         1 UNK         0.0600 
    222 H222       -1.6998  -23.8529  -52.5647 H         1 UNK         0.0600 
    223 H223       -1.8507  -22.4390  -53.6058 H         1 UNK         0.0600 
    224 H224       -0.6334  -22.4826  -52.3372 H         1 UNK         0.0600 
    225 H225       -4.6460  -21.4758  -50.2278 H         1 UNK         0.3000 
    226 H226       -6.8190  -21.5725  -50.1764 H         1 UNK         0.0600 
    227 H227       -6.6855  -24.0428  -49.9791 H         1 UNK         0.0600 
    228 H228       -8.1167  -23.5516  -50.8718 H         1 UNK         0.0600 
    229 H229       -6.7355  -24.2108  -51.7324 H         1 UNK         0.0600 
    230 H230       -5.8518  -22.6331  -53.4135 H         1 UNK         0.3000 
    231 H231       -6.5118  -20.1731  -54.6717 H         1 UNK         0.0600 
    232 H232       -8.3047  -21.0059  -56.2396 H         1 UNK         0.0600 
    233 H233       -8.8680  -21.0080  -54.5820 H         1 UNK         0.0600 
    234 H234       -8.3814  -22.5197  -55.3460 H         1 UNK         0.0600 
    235 H235       -4.6882  -22.9522  -54.4817 H         1 UNK         0.3000 
    236 H236       -4.6434  -23.9224  -57.1085 H         1 UNK         0.0600 
    237 H237       -3.9847  -25.2352  -55.1116 H         1 UNK         0.0600 
    238 H238       -2.7104  -25.2488  -56.3208 H         1 UNK         0.0600 
    239 H239       -2.5540  -24.2301  -54.8992 H         1 UNK         0.0600 
    240 H240       -2.8194  -21.1970  -55.7828 H         1 UNK         0.3000 
    241 H241       -1.2493  -21.0458  -58.3180 H         1 UNK         0.0600 
    242 H242       -4.2906  -20.0874  -57.5618 H         1 UNK         0.3800 
    243 H243       -4.2613  -18.5448  -58.3773 H         1 UNK         0.3800 
    244 H244        0.2871  -19.5253  -57.2707 H         1 UNK         0.0800 
    245 H245        0.1877  -21.0050  -56.3601 H         1 UNK         0.0800 
    246 H246        1.5685  -18.5004  -54.8096 H         1 UNK         0.0800 
    247 H247        1.3156  -20.1665  -54.3359 H         1 UNK         0.0800 
@<TRIPOS>BOND
     1    1    2 1    
     2    1  127 1    
     3    1  128 1    
     4    1  129 1    
     5    2    3 2    
     6    2    4 am   BACKBONE|DICT|INTERRES
     7    4    5 1    
     8    4  130 1    
     9    5    6 1    
    10    5   65 1    
    11    5  131 1    
    12    6    7 1    
    13    6  132 1    
    14    6  133 1    
    15    7    8 1    
    16    8    9 1    
    17    8  134 1    
    18    8  135 1    
    19    9   10 ar   
    20    9   14 ar   
    21   10   11 ar   
    22   10  136 1    
    23   11   12 ar   
    24   11  126 1    
    25   12   13 ar   
    26   12  137 1    
    27   13   14 ar   
    28   13   15 1    
    29   14  138 1    
    30   15   16 1    
    31   15  139 1    
    32   15  140 1    
    33   16   17 1    
    34   17   18 1    
    35   17  141 1    
    36   17  142 1    
    37   18   19 1    
    38   18   67 1    
    39   18  143 1    
    40   19   20 am   BACKBONE|DICT|INTERRES
    41   19  144 1    
    42   20   21 2    
    43   20   22 1    
    44   22   23 1    
    45   22   24 1    
    46   22  145 1    
    47   23  146 1    
    48   23  147 1    
    49   23  148 1    
    50   24   25 am   BACKBONE|DICT|INTERRES
    51   24  149 1    
    52   25   26 2    
    53   25   27 1    
    54   27   28 1    
    55   27   29 1    
    56   27  150 1    
    57   28  151 1    
    58   28  152 1    
    59   28  153 1    
    60   29   30 am   BACKBONE|DICT|INTERRES
    61   29  154 1    
    62   30   31 2    
    63   30   32 1    
    64   32   33 1    
    65   32   34 1    
    66   32  155 1    
    67   33  156 1    
    68   33  157 1    
    69   33  158 1    
    70   34   35 am   BACKBONE|DICT|INTERRES
    71   34  159 1    
    72   35   36 2    
    73   35   37 1    
    74   37   38 1    
    75   37   39 1    
    76   37  160 1    
    77   38  161 1    
    78   38  162 1    
    79   38  163 1    
    80   39   40 am   BACKBONE|DICT|INTERRES
    81   39  164 1    
    82   40   41 2    
    83   40   42 1    
    84   42   43 1    
    85   42   44 1    
    86   42  165 1    
    87   43  166 1    
    88   43  167 1    
    89   43  168 1    
    90   44   45 am   BACKBONE|DICT|INTERRES
    91   44  169 1    
    92   45   46 2    
    93   45   47 1    
    94   47   48 1    
    95   47   49 1    
    96   47  170 1    
    97   48  171 1    
    98   48  172 1    
    99   48  173 1    
   100   49   50 am   BACKBONE|DICT|INTERRES
   101   49  174 1    
   102   50   51 2    
   103   50   52 1    
   104   52   53 1    
   105   52   54 1    
   106   52  175 1    
   107   53  176 1    
   108   53  177 1    
   109   53  178 1    
   110   54   55 am   BACKBONE|DICT|INTERRES
   111   54  179 1    
   112   55   56 2    
   113   55   57 1    
   114   57   58 1    
   115   57   59 1    
   116   57  180 1    
   117   58  181 1    
   118   58  182 1    
   119   58  183 1    
   120   59   60 am   BACKBONE|DICT|INTERRES
   121   59  184 1    
   122   60   61 2    
   123   60   62 1    
   124   62   63 1    
   125   62   64 1    
   126   62  185 1    
   127   63  186 1    
   128   63  187 1    
   129   63  188 1    
   130   64   65 am   BACKBONE|DICT|INTERRES
   131   64  189 1    
   132   65   66 2    
   133   67   68 2    
   134   67   69 am   BACKBONE|DICT|INTERRES
   135   69   70 1    
   136   69  190 1    
   137   70   71 1    
   138   70   72 1    
   139   70  191 1    
   140   71  192 1    
   141   71  193 1    
   142   71  194 1    
   143   72   73 2    
   144   72   74 am   BACKBONE|DICT|INTERRES
   145   74   75 1    
   146   74  195 1    
   147   75   76 1    
   148   75   77 1    
   149   75  196 1    
   150   76  197 1    
   151   76  198 1    
   152   76  199 1    
   153   77   78 2    
   154   77   79 am   BACKBONE|DICT|INTERRES
   155   79   80 1    
   156   79  200 1    
   157   80   81 1    
   158   80   82 1    
   159   80  201 1    
   160   81  202 1    
   161   81  203 1    
   162   81  204 1    
   163   82   83 2    
   164   82   84 am   BACKBONE|DICT|INTERRES
   165   84   85 1    
   166   84  205 1    
   167   85   86 1    
   168   85   87 1    
   169   85  206 1    
   170   86  207 1    
   171   86  208 1    
   172   86  209 1    
   173   87   88 2    
   174   87   89 am   BACKBONE|DICT|INTERRES
   175   89   90 1    
   176   89  210 1    
   177   90   91 1    
   178   90   92 1    
   179   90  211 1    
   180   91  212 1    
   181   91  213 1    
   182   91  214 1    
   183   92   93 2    
   184   92   94 am   BACKBONE|DICT|INTERRES
   185   94   95 1    
   186   94  215 1    
   187   95   96 1    
   188   95   97 1    
   189   95  216 1    
   190   96  217 1    
   191   96  218 1    
   192   96  219 1    
   193   97   98 2    
   194   97   99 am   BACKBONE|DICT|INTERRES
   195   99  100 1    
   196   99  220 1    
   197  100  101 1    
   198  100  102 1    
   199  100  221 1    
   200  101  222 1    
   201  101  223 1    
   202  101  224 1    
   203  102  103 2    
   204  102  104 am   BACKBONE|DICT|INTERRES
   205  104  105 1    
   206  104  225 1    
   207  105  106 1    
   208  105  107 1    
   209  105  226 1    
   210  106  227 1    
   211  106  228 1    
   212  106  229 1    
   213  107  108 2    
   214  107  109 am   BACKBONE|DICT|INTERRES
   215  109  110 1    
   216  109  230 1    
   217  110  111 1    
   218  110  112 1    
   219  110  231 1    
   220  111  232 1    
   221  111  233 1    
   222  111  234 1    
   223  112  113 2    
   224  112  114 am   BACKBONE|DICT|INTERRES
   225  114  115 1    
   226  114  235 1    
   227  115  116 1    
   228  115  117 1    
   229  115  236 1    
   230  116  237 1    
   231  116  238 1    
   232  116  239 1    
   233  117  118 2    
   234  117  119 am   BACKBONE|DICT|INTERRES
   235  119  120 1    
   236  119  240 1    
   237  120  121 1    
   238  120  124 1    
   239  120  241 1    
   240  121  122 am   BACKBONE|DICT|INTERRES
   241  121  123 2    
   242  122  242 1    
   243  122  243 1    
   244  124  125 1    
   245  124  244 1    
   246  124  245 1    
   247  125  126 1    
   248  126  246 1    
   249  126  247 1    
@<TRIPOS>SUBSTRUCTURE
     1 UNK         1 GROUP             0       ****    0 ROOT    
