@<TRIPOS>MOLECULE
3R540
247   249    1
SMALL
USER_CHARGES


@<TRIPOS>ATOM
      1 CA          1.2603  -15.2056  -48.2412 C.3       0 UNK        -0.1800 
      2 C           1.4552  -13.7058  -48.4096 C.2       0 UNK         0.5000 
      3 O           2.5304  -13.2734  -48.8238 O.2       0 UNK        -0.5000 
      4 N           0.4162  -12.9203  -48.0924 N.am      1 UNK        -0.5000 
      5 CA          0.3546  -11.4561  -48.2222 C.3       1 UNK         0.1400 
      6 C6          0.4742  -10.9547  -49.6924 C.3       23 UNK        -0.0398 
      7 S7         -1.0015  -11.3066  -50.7103 S.3       23 UNK        -0.2404 
      8 C8         -0.5785  -12.8825  -51.5386 C.3       23 UNK        -0.0205 
      9 C9         -1.2483  -14.1381  -50.9716 C.ar      23 UNK        -0.0193 
     10 C10        -1.0535  -15.3524  -51.6389 C.ar      23 UNK        -0.1150 
     11 C11        -1.6339  -16.5340  -51.1670 C.ar      23 UNK        -0.0193 
     12 C12        -2.4101  -16.5014  -50.0064 C.ar      23 UNK        -0.1150 
     13 C13        -2.6072  -15.3007  -49.3192 C.ar      23 UNK        -0.0193 
     14 C14        -2.0404  -14.1256  -49.8153 C.ar      23 UNK        -0.1150 
     15 C15        -3.4114  -15.2615  -48.0297 C.3       23 UNK        -0.0205 
     16 S16        -2.3250  -15.5134  -46.5891 S.3       23 UNK        -0.2404 
     17 C17        -3.1270  -16.9306  -45.7692 C.3       23 UNK        -0.0398 
     18 CA         -2.8648  -18.2683  -46.5012 C.3       11 UNK         0.1400 
     19 N          -1.4626  -18.6949  -46.4408 N.am      11 UNK        -0.5000 
     20 C          -0.9154  -19.6539  -47.2021 C.2       10 UNK         0.5000 
     21 O          -1.5478  -20.2950  -48.0419 O.2       10 UNK        -0.5000 
     22 CA          0.5560  -20.0110  -46.9162 C.3       10 UNK         0.1400 
     23 CB          1.5146  -19.0014  -47.5644 C.3       10 UNK        -0.1800 
     24 N           0.8305  -20.1001  -45.4801 N.am      10 UNK        -0.5000 
     25 C           0.3116  -21.0330  -44.6697 C.2       9 UNK         0.5000 
     26 O          -0.3907  -21.9598  -45.0697 O.2       9 UNK        -0.5000 
     27 CA          0.5840  -20.8943  -43.1594 C.3       9 UNK         0.1400 
     28 CB          1.9159  -21.5579  -42.7794 C.3       9 UNK        -0.1800 
     29 N           0.5798  -19.5033  -42.7050 N.am      9 UNK        -0.5000 
     30 C          -0.4986  -18.7055  -42.7024 C.2       8 UNK         0.5000 
     31 O          -1.6285  -19.0808  -43.0164 O.2       8 UNK        -0.5000 
     32 CA         -0.2625  -17.2243  -42.3461 C.3       8 UNK         0.1400 
     33 CB         -0.2167  -17.0204  -40.8248 C.3       8 UNK        -0.1800 
     34 N           0.9596  -16.6926  -42.9525 N.am      8 UNK        -0.5000 
     35 C           1.1724  -16.6160  -44.2730 C.2       7 UNK         0.5000 
     36 O           0.3302  -16.9256  -45.1112 O.2       7 UNK        -0.5000 
     37 CA          2.5765  -16.2006  -44.7394 C.3       7 UNK         0.1400 
     38 CB          2.7312  -14.6768  -44.7816 C.3       7 UNK        -0.1800 
     39 N           3.6228  -16.7831  -43.9026 N.am      7 UNK        -0.5000 
     40 C           3.9771  -18.0747  -43.9374 C.2       6 UNK         0.5000 
     41 O           3.4868  -18.8947  -44.7124 O.2       6 UNK        -0.5000 
     42 CA          5.0280  -18.5327  -42.9094 C.3       6 UNK         0.1400 
     43 CB          6.4476  -18.2850  -43.4406 C.3       6 UNK        -0.1800 
     44 N           4.8729  -17.8684  -41.6144 N.am      6 UNK        -0.5000 
     45 C           3.8302  -18.0502  -40.7918 C.2       5 UNK         0.5000 
     46 O           2.9107  -18.8359  -41.0191 O.2       5 UNK        -0.5000 
     47 CA          3.7825  -17.1647  -39.5315 C.3       5 UNK         0.1400 
     48 CB          4.5705  -17.8148  -38.3848 C.3       5 UNK        -0.1800 
     49 N           4.2818  -15.8032  -39.7564 N.am      5 UNK        -0.5000 
     50 C           3.7392  -14.9284  -40.6138 C.2       4 UNK         0.5000 
     51 O           2.7766  -15.1939  -41.3356 O.2       4 UNK        -0.5000 
     52 CA          4.4322  -13.5579  -40.7313 C.3       4 UNK         0.1400 
     53 CB          5.5902  -13.6413  -41.7388 C.3       4 UNK        -0.1800 
     54 N           3.5229  -12.4938  -41.1606 N.am      4 UNK        -0.5000 
     55 C           2.4548  -12.0550  -40.4791 C.2       3 UNK         0.5000 
     56 O           2.1332  -12.4844  -39.3698 O.2       3 UNK        -0.5000 
     57 CA          1.6209  -10.9228  -41.1172 C.3       3 UNK         0.1400 
     58 CB          1.6906   -9.6505  -40.2559 C.3       3 UNK        -0.1800 
     59 N           2.0398  -10.5805  -42.4808 N.am      3 UNK        -0.5000 
     60 C           1.6214  -11.2047  -43.5879 C.2       2 UNK         0.5000 
     61 O           0.8321  -12.1527  -43.5869 O.2       2 UNK        -0.5000 
     62 CA          2.1891  -10.6802  -44.9157 C.3       2 UNK         0.1400 
     63 CB          3.6863  -11.0133  -45.0650 C.3       2 UNK        -0.1800 
     64 N           1.4242  -11.2545  -46.0190 N.am      2 UNK        -0.5000 
     65 C           1.3334  -10.7464  -47.2538 C.2       1 UNK         0.5000 
     66 O           1.9646   -9.7527  -47.6198 O.2       1 UNK        -0.5000 
     67 C          -3.8718  -19.3498  -46.0558 C.2       11 UNK         0.5000 
     68 O          -5.0473  -19.2427  -46.4051 O.2       11 UNK        -0.5000 
     69 N          -3.4183  -20.4034  -45.3623 N.am      12 UNK        -0.5000 
     70 CA         -4.2244  -21.5968  -45.0870 C.3       12 UNK         0.1400 
     71 CB         -3.5479  -22.4372  -43.9938 C.3       12 UNK        -0.1800 
     72 C          -4.4908  -22.4450  -46.3517 C.2       12 UNK         0.5000 
     73 O          -5.4052  -23.2693  -46.3381 O.2       12 UNK        -0.5000 
     74 N          -3.7124  -22.2180  -47.4201 N.am      13 UNK        -0.5000 
     75 CA         -3.8294  -22.8628  -48.7254 C.3       13 UNK         0.1400 
     76 CB         -2.5302  -23.6358  -49.0084 C.3       13 UNK        -0.1800 
     77 C          -4.1601  -21.8410  -49.8336 C.2       13 UNK         0.5000 
     78 O          -3.8437  -22.0835  -51.0014 O.2       13 UNK        -0.5000 
     79 N          -4.8126  -20.7269  -49.4612 N.am      14 UNK        -0.5000 
     80 CA         -5.1818  -19.6081  -50.3392 C.3       14 UNK         0.1400 
     81 CB         -5.7743  -18.4703  -49.4953 C.3       14 UNK        -0.1800 
     82 C          -6.1500  -19.9615  -51.4848 C.2       14 UNK         0.5000 
     83 O          -6.2166  -19.2174  -52.4634 O.2       14 UNK        -0.5000 
     84 N          -6.8620  -21.0917  -51.3664 N.am      15 UNK        -0.5000 
     85 CA         -7.7309  -21.6469  -52.4097 C.3       15 UNK         0.1400 
     86 CB         -8.6904  -22.6650  -51.7757 C.3       15 UNK        -0.1800 
     87 C          -6.9540  -22.2666  -53.5949 C.2       15 UNK         0.5000 
     88 O          -7.5801  -22.7088  -54.5596 O.2       15 UNK        -0.5000 
     89 N          -5.6145  -22.2801  -53.5114 N.am      16 UNK        -0.5000 
     90 CA         -4.6597  -22.6717  -54.5439 C.3       16 UNK         0.1400 
     91 CB         -4.7045  -21.6915  -55.7368 C.3       16 UNK        -0.1800 
     92 C          -4.8252  -24.1517  -54.9275 C.2       16 UNK         0.5000 
     93 O          -4.5746  -25.0117  -54.0823 O.2       16 UNK        -0.5000 
     94 N          -5.2457  -24.4335  -56.1670 N.am      17 UNK        -0.5000 
     95 CA         -5.4550  -25.7818  -56.7034 C.3       17 UNK         0.1400 
     96 CB         -5.7982  -25.6749  -58.1969 C.3       17 UNK        -0.1800 
     97 C          -6.5311  -26.5991  -55.9591 C.2       17 UNK         0.5000 
     98 O          -6.4807  -27.8290  -55.9893 O.2       17 UNK        -0.5000 
     99 N          -7.4660  -25.9112  -55.2888 N.am      18 UNK        -0.5000 
    100 CA        -8.4875  -26.5173  -54.4339 C.3       18 UNK         0.1400 
    101 CB        -9.7103  -25.5883  -54.3927 C.3       18 UNK        -0.1800 
    102 C         -7.9802  -26.8354  -53.0100 C.2       18 UNK         0.5000 
    103 O         -8.7155  -27.4625  -52.2457 O.2       18 UNK        -0.5000 
    104 N         -6.7563  -26.4081  -52.6704 N.am      19 UNK        -0.5000 
    105 CA        -6.0942  -26.6649  -51.3966 C.3       19 UNK         0.1400 
    106 CB        -6.0534  -25.3695  -50.5629 C.3       19 UNK        -0.1800 
    107 C         -4.7119  -27.2817  -51.6689 C.2       19 UNK         0.5000 
    108 O         -4.6482  -28.4414  -52.0798 O.2       19 UNK        -0.5000 
    109 N         -3.6389  -26.5193  -51.4233 N.am      20 UNK        -0.5000 
    110 CA        -2.2504  -26.9737  -51.4988 C.3       20 UNK         0.1400 
    111 CB        -1.7728  -27.3947  -50.0956 C.3       20 UNK        -0.1800 
    112 C         -1.3391  -25.9209  -52.1556 C.2       20 UNK         0.5000 
    113 O         -0.1854  -25.7732  -51.7500 O.2       20 UNK        -0.5000 
    114 N         -1.8668  -25.2066  -53.1614 N.am      21 UNK        -0.5000 
    115 CA        -1.1428  -24.3100  -54.0753 C.3       21 UNK         0.1400 
    116 CB        -0.2434  -25.1395  -55.0157 C.3       21 UNK        -0.1800 
    117 C         -0.3775  -23.1641  -53.3761 C.2       21 UNK         0.5000 
    118 O          0.7295  -22.8238  -53.7971 O.2       21 UNK        -0.5000 
    119 N         -0.9700  -22.5982  -52.3135 N.am      22 UNK        -0.5000 
    120 CA        -0.3454  -21.5927  -51.4318 C.3       22 UNK         0.1400 
    121 C          0.8306  -22.1497  -50.5607 C.2       22 UNK         0.5000 
    122 N          1.0116  -23.4596  -50.4320 N.am      22 UNK        -0.7600 
    123 O          1.5938  -21.3923  -49.9715 O.2       22 UNK        -0.5000 
    124 C124        0.0137  -20.2810  -52.1947 C.3       23 UNK        -0.0398 
    125 S125       -0.0491  -18.7829  -51.1513 S.3       23 UNK        -0.2404 
    126 C126       -1.4143  -17.8483  -51.9008 C.3       23 UNK        -0.0205 
    127 H127        0.9075  -15.6475  -49.1732 H         1 UNK         0.0600 
    128 H128        0.5335  -15.4286  -47.4610 H         1 UNK         0.0600 
    129 H129        2.2017  -15.6837  -47.9724 H         1 UNK         0.0600 
    130 H130       -0.4306  -13.3588  -47.7584 H         1 UNK         0.3000 
    131 H131       -0.6365  -11.1708  -47.8660 H         1 UNK         0.0600 
    132 H132        0.5766   -9.8687  -49.7165 H         1 UNK         0.0800 
    133 H133        1.3723  -11.3385  -50.1764 H         1 UNK         0.0800 
    134 H134        0.5027  -13.0254  -51.5325 H         1 UNK         0.0800 
    135 H135       -0.8659  -12.7881  -52.5867 H         1 UNK         0.0800 
    136 H136       -0.4430  -15.3791  -52.5308 H         1 UNK         0.1150 
    137 H137       -2.8432  -17.4179  -49.6372 H         1 UNK         0.1150 
    138 H138       -2.2101  -13.2081  -49.2730 H         1 UNK         0.1150 
    139 H139       -3.9134  -14.2981  -47.9288 H         1 UNK         0.0800 
    140 H140       -4.2044  -16.0083  -48.0598 H         1 UNK         0.0800 
    141 H141       -4.1950  -16.7130  -45.7036 H         1 UNK         0.0800 
    142 H142       -2.7665  -16.9868  -44.7409 H         1 UNK         0.0800 
    143 H143       -3.0814  -18.1114  -47.5557 H         1 UNK         0.0600 
    144 H144       -0.8581  -18.1661  -45.8150 H         1 UNK         0.3000 
    145 H145        0.7524  -20.9914  -47.3548 H         1 UNK         0.0600 
    146 H146        1.3369  -17.9865  -47.2157 H         1 UNK         0.0600 
    147 H147        2.5546  -19.2532  -47.3574 H         1 UNK         0.0600 
    148 H148        1.3953  -18.9940  -48.6464 H         1 UNK         0.0600 
    149 H149        1.4494  -19.4000  -45.0891 H         1 UNK         0.3000 
    150 H150       -0.2159  -21.4184  -42.6320 H         1 UNK         0.0600 
    151 H151        1.9292  -22.6061  -43.0803 H         1 UNK         0.0600 
    152 H152        2.0786  -21.5262  -41.7020 H         1 UNK         0.0600 
    153 H153        2.7628  -21.0679  -43.2595 H         1 UNK         0.0600 
    154 H154        1.4617  -19.1318  -42.3661 H         1 UNK         0.3000 
    155 H155       -1.1026  -16.6489  -42.7402 H         1 UNK         0.0600 
    156 H156       -1.1486  -17.3456  -40.3610 H         1 UNK         0.0600 
    157 H157        0.5925  -17.5873  -40.3656 H         1 UNK         0.0600 
    158 H158       -0.0745  -15.9694  -40.5716 H         1 UNK         0.0600 
    159 H159        1.6794  -16.3487  -42.3218 H         1 UNK         0.3000 
    160 H160        2.7081  -16.5735  -45.7567 H         1 UNK         0.0600 
    161 H161        3.6849  -14.3997  -45.2297 H         1 UNK         0.0600 
    162 H162        1.9432  -14.2205  -45.3810 H         1 UNK         0.0600 
    163 H163        2.6817  -14.2343  -43.7872 H         1 UNK         0.0600 
    164 H164        4.0214  -16.1873  -43.1929 H         1 UNK         0.3000 
    165 H165        4.9011  -19.6070  -42.7592 H         1 UNK         0.0600 
    166 H166        7.1991  -18.6730  -42.7527 H         1 UNK         0.0600 
    167 H167        6.5974  -18.7839  -44.3991 H         1 UNK         0.0600 
    168 H168        6.6440  -17.2224  -43.5891 H         1 UNK         0.0600 
    169 H169        5.5873  -17.2069  -41.3490 H         1 UNK         0.3000 
    170 H170        2.7378  -17.0871  -39.2242 H         1 UNK         0.0600 
    171 H171        4.2058  -18.8231  -38.1834 H         1 UNK         0.0600 
    172 H172        5.6335  -17.8905  -38.6171 H         1 UNK         0.0600 
    173 H173        4.4676  -17.2438  -37.4619 H         1 UNK         0.0600 
    174 H174        5.0808  -15.5213  -39.2066 H         1 UNK         0.3000 
    175 H175        4.8316  -13.2852  -39.7524 H         1 UNK         0.0600 
    176 H176        5.2361  -13.8905  -42.7402 H         1 UNK         0.0600 
    177 H177        6.1280  -12.6950  -41.8005 H         1 UNK         0.0600 
    178 H178        6.3137  -14.4036  -41.4471 H         1 UNK         0.0600 
    179 H179        3.6964  -12.0928  -42.0686 H         1 UNK         0.3000 
    180 H180        0.5824  -11.2603  -41.1359 H         1 UNK         0.0600 
    181 H181        2.7094   -9.2677  -40.1848 H         1 UNK         0.0600 
    182 H182        1.3409   -9.8430  -39.2407 H         1 UNK         0.0600 
    183 H183        1.0623   -8.8606  -40.6678 H         1 UNK         0.0600 
    184 H184        2.6868   -9.8093  -42.5664 H         1 UNK         0.3000 
    185 H185        2.0583   -9.5960  -44.9248 H         1 UNK         0.0600 
    186 H186        4.0887  -10.6219  -45.9993 H         1 UNK         0.0600 
    187 H187        4.2731  -10.5745  -44.2575 H         1 UNK         0.0600 
    188 H188        3.8646  -12.0869  -45.0533 H         1 UNK         0.0600 
    189 H189        0.8546  -12.0493  -45.7561 H         1 UNK         0.3000 
    190 H190       -2.4455  -20.4293  -45.0869 H         1 UNK         0.3000 
    191 H191       -5.1922  -21.2683  -44.7021 H         1 UNK         0.0600 
    192 H192       -2.6448  -22.9247  -44.3586 H         1 UNK         0.0600 
    193 H193       -4.2173  -23.2236  -43.6434 H         1 UNK         0.0600 
    194 H194       -3.2797  -21.8282  -43.1300 H         1 UNK         0.0600 
    195 H195       -2.9837  -21.5126  -47.3584 H         1 UNK         0.3000 
    196 H196       -4.6533  -23.5756  -48.7178 H         1 UNK         0.0600 
    197 H197       -2.5526  -24.1198  -49.9837 H         1 UNK         0.0600 
    198 H198       -2.3723  -24.4153  -48.2632 H         1 UNK         0.0600 
    199 H199       -1.6616  -22.9782  -48.9837 H         1 UNK         0.0600 
    200 H200       -5.0398  -20.6156  -48.4824 H         1 UNK         0.3000 
    201 H201       -4.2637  -19.2451  -50.8027 H         1 UNK         0.0600 
    202 H202       -5.0497  -18.0928  -48.7790 H         1 UNK         0.0600 
    203 H203       -6.6556  -18.7963  -48.9418 H         1 UNK         0.0600 
    204 H204       -6.0702  -17.6263  -50.1201 H         1 UNK         0.0600 
    205 H205       -6.7542  -21.6383  -50.5252 H         1 UNK         0.3000 
    206 H206       -8.3324  -20.8300  -52.8137 H         1 UNK         0.0600 
    207 H207       -9.1434  -22.2756  -50.8638 H         1 UNK         0.0600 
    208 H208       -9.5061  -22.9003  -52.4588 H         1 UNK         0.0600 
    209 H209       -8.1870  -23.5990  -51.5333 H         1 UNK         0.0600 
    210 H210       -5.1953  -21.9728  -52.6414 H         1 UNK         0.3000 
    211 H211       -3.6780  -22.5764  -54.0812 H         1 UNK         0.0600 
    212 H212       -5.6729  -21.6881  -56.2381 H         1 UNK         0.0600 
    213 H213       -3.9442  -21.9390  -56.4788 H         1 UNK         0.0600 
    214 H214       -4.5061  -20.6721  -55.4050 H         1 UNK         0.0600 
    215 H215       -5.4554  -23.6654  -56.7880 H         1 UNK         0.3000 
    216 H216       -4.5127  -26.3252  -56.6064 H         1 UNK         0.0600 
    217 H217       -5.9326  -26.6629  -58.6395 H         1 UNK         0.0600 
    218 H218       -5.0012  -25.1786  -58.7510 H         1 UNK         0.0600 
    219 H219       -6.7202  -25.1148  -58.3579 H         1 UNK         0.0600 
    220 H220       -7.4330  -24.8988  -55.3045 H         1 UNK         0.3000 
    221 H221       -8.8064  -27.4634  -54.8764 H         1 UNK         0.0600 
    222 H222       -9.4560  -24.6114  -53.9859 H         1 UNK         0.0600 
    223 H223      -10.1224  -25.4367  -55.3904 H         1 UNK         0.0600 
    224 H224      -10.5051  -26.0069  -53.7741 H         1 UNK         0.0600 
    225 H225       -6.1822  -25.9468  -53.3687 H         1 UNK         0.3000 
    226 H226       -6.6443  -27.4119  -50.8208 H         1 UNK         0.0600 
    227 H227       -7.0572  -25.0814  -50.2544 H         1 UNK         0.0600 
    228 H228       -5.4807  -25.5168  -49.6469 H         1 UNK         0.0600 
    229 H229       -5.6173  -24.5360  -51.1155 H         1 UNK         0.0600 
    230 H230       -3.7825  -25.5622  -51.1379 H         1 UNK         0.3000 
    231 H231       -2.1866  -27.8491  -52.1481 H         1 UNK         0.0600 
    232 H232       -0.7609  -27.8004  -50.1284 H         1 UNK         0.0600 
    233 H233       -2.4152  -28.1692  -49.6766 H         1 UNK         0.0600 
    234 H234       -1.7679  -26.5532  -49.4031 H         1 UNK         0.0600 
    235 H235       -2.8445  -25.3642  -53.3949 H         1 UNK         0.3000 
    236 H236       -1.8885  -23.8295  -54.7054 H         1 UNK         0.0600 
    237 H237        0.2022  -24.5130  -55.7893 H         1 UNK         0.0600 
    238 H238       -0.8152  -25.9171  -55.5223 H         1 UNK         0.0600 
    239 H239        0.5714  -25.6213  -54.4741 H         1 UNK         0.0600 
    240 H240       -1.8882  -22.9138  -52.0309 H         1 UNK         0.3000 
    241 H241       -1.1260  -21.3421  -50.7134 H         1 UNK         0.0600 
    242 H242        0.4490  -24.1346  -50.9403 H         1 UNK         0.3800 
    243 H243        1.7744  -23.7881  -49.8629 H         1 UNK         0.3800 
    244 H244        1.0061  -20.3531  -52.6422 H         1 UNK         0.0800 
    245 H245       -0.6728  -20.1381  -53.0300 H         1 UNK         0.0800 
    246 H246       -2.3238  -18.4488  -51.8770 H         1 UNK         0.0800 
    247 H247       -1.1926  -17.6609  -52.9525 H         1 UNK         0.0800 
@<TRIPOS>BOND
     1    1    2 1    
     2    1  127 1    
     3    1  128 1    
     4    1  129 1    
     5    2    3 2    
     6    2    4 am   BACKBONE|DICT|INTERRES
     7    4    5 1    
     8    4  130 1    
     9    5    6 1    
    10    5   65 1    
    11    5  131 1    
    12    6    7 1    
    13    6  132 1    
    14    6  133 1    
    15    7    8 1    
    16    8    9 1    
    17    8  134 1    
    18    8  135 1    
    19    9   10 ar   
    20    9   14 ar   
    21   10   11 ar   
    22   10  136 1    
    23   11   12 ar   
    24   11  126 1    
    25   12   13 ar   
    26   12  137 1    
    27   13   14 ar   
    28   13   15 1    
    29   14  138 1    
    30   15   16 1    
    31   15  139 1    
    32   15  140 1    
    33   16   17 1    
    34   17   18 1    
    35   17  141 1    
    36   17  142 1    
    37   18   19 1    
    38   18   67 1    
    39   18  143 1    
    40   19   20 am   BACKBONE|DICT|INTERRES
    41   19  144 1    
    42   20   21 2    
    43   20   22 1    
    44   22   23 1    
    45   22   24 1    
    46   22  145 1    
    47   23  146 1    
    48   23  147 1    
    49   23  148 1    
    50   24   25 am   BACKBONE|DICT|INTERRES
    51   24  149 1    
    52   25   26 2    
    53   25   27 1    
    54   27   28 1    
    55   27   29 1    
    56   27  150 1    
    57   28  151 1    
    58   28  152 1    
    59   28  153 1    
    60   29   30 am   BACKBONE|DICT|INTERRES
    61   29  154 1    
    62   30   31 2    
    63   30   32 1    
    64   32   33 1    
    65   32   34 1    
    66   32  155 1    
    67   33  156 1    
    68   33  157 1    
    69   33  158 1    
    70   34   35 am   BACKBONE|DICT|INTERRES
    71   34  159 1    
    72   35   36 2    
    73   35   37 1    
    74   37   38 1    
    75   37   39 1    
    76   37  160 1    
    77   38  161 1    
    78   38  162 1    
    79   38  163 1    
    80   39   40 am   BACKBONE|DICT|INTERRES
    81   39  164 1    
    82   40   41 2    
    83   40   42 1    
    84   42   43 1    
    85   42   44 1    
    86   42  165 1    
    87   43  166 1    
    88   43  167 1    
    89   43  168 1    
    90   44   45 am   BACKBONE|DICT|INTERRES
    91   44  169 1    
    92   45   46 2    
    93   45   47 1    
    94   47   48 1    
    95   47   49 1    
    96   47  170 1    
    97   48  171 1    
    98   48  172 1    
    99   48  173 1    
   100   49   50 am   BACKBONE|DICT|INTERRES
   101   49  174 1    
   102   50   51 2    
   103   50   52 1    
   104   52   53 1    
   105   52   54 1    
   106   52  175 1    
   107   53  176 1    
   108   53  177 1    
   109   53  178 1    
   110   54   55 am   BACKBONE|DICT|INTERRES
   111   54  179 1    
   112   55   56 2    
   113   55   57 1    
   114   57   58 1    
   115   57   59 1    
   116   57  180 1    
   117   58  181 1    
   118   58  182 1    
   119   58  183 1    
   120   59   60 am   BACKBONE|DICT|INTERRES
   121   59  184 1    
   122   60   61 2    
   123   60   62 1    
   124   62   63 1    
   125   62   64 1    
   126   62  185 1    
   127   63  186 1    
   128   63  187 1    
   129   63  188 1    
   130   64   65 am   BACKBONE|DICT|INTERRES
   131   64  189 1    
   132   65   66 2    
   133   67   68 2    
   134   67   69 am   BACKBONE|DICT|INTERRES
   135   69   70 1    
   136   69  190 1    
   137   70   71 1    
   138   70   72 1    
   139   70  191 1    
   140   71  192 1    
   141   71  193 1    
   142   71  194 1    
   143   72   73 2    
   144   72   74 am   BACKBONE|DICT|INTERRES
   145   74   75 1    
   146   74  195 1    
   147   75   76 1    
   148   75   77 1    
   149   75  196 1    
   150   76  197 1    
   151   76  198 1    
   152   76  199 1    
   153   77   78 2    
   154   77   79 am   BACKBONE|DICT|INTERRES
   155   79   80 1    
   156   79  200 1    
   157   80   81 1    
   158   80   82 1    
   159   80  201 1    
   160   81  202 1    
   161   81  203 1    
   162   81  204 1    
   163   82   83 2    
   164   82   84 am   BACKBONE|DICT|INTERRES
   165   84   85 1    
   166   84  205 1    
   167   85   86 1    
   168   85   87 1    
   169   85  206 1    
   170   86  207 1    
   171   86  208 1    
   172   86  209 1    
   173   87   88 2    
   174   87   89 am   BACKBONE|DICT|INTERRES
   175   89   90 1    
   176   89  210 1    
   177   90   91 1    
   178   90   92 1    
   179   90  211 1    
   180   91  212 1    
   181   91  213 1    
   182   91  214 1    
   183   92   93 2    
   184   92   94 am   BACKBONE|DICT|INTERRES
   185   94   95 1    
   186   94  215 1    
   187   95   96 1    
   188   95   97 1    
   189   95  216 1    
   190   96  217 1    
   191   96  218 1    
   192   96  219 1    
   193   97   98 2    
   194   97   99 am   BACKBONE|DICT|INTERRES
   195   99  100 1    
   196   99  220 1    
   197  100  101 1    
   198  100  102 1    
   199  100  221 1    
   200  101  222 1    
   201  101  223 1    
   202  101  224 1    
   203  102  103 2    
   204  102  104 am   BACKBONE|DICT|INTERRES
   205  104  105 1    
   206  104  225 1    
   207  105  106 1    
   208  105  107 1    
   209  105  226 1    
   210  106  227 1    
   211  106  228 1    
   212  106  229 1    
   213  107  108 2    
   214  107  109 am   BACKBONE|DICT|INTERRES
   215  109  110 1    
   216  109  230 1    
   217  110  111 1    
   218  110  112 1    
   219  110  231 1    
   220  111  232 1    
   221  111  233 1    
   222  111  234 1    
   223  112  113 2    
   224  112  114 am   BACKBONE|DICT|INTERRES
   225  114  115 1    
   226  114  235 1    
   227  115  116 1    
   228  115  117 1    
   229  115  236 1    
   230  116  237 1    
   231  116  238 1    
   232  116  239 1    
   233  117  118 2    
   234  117  119 am   BACKBONE|DICT|INTERRES
   235  119  120 1    
   236  119  240 1    
   237  120  121 1    
   238  120  124 1    
   239  120  241 1    
   240  121  122 am   BACKBONE|DICT|INTERRES
   241  121  123 2    
   242  122  242 1    
   243  122  243 1    
   244  124  125 1    
   245  124  244 1    
   246  124  245 1    
   247  125  126 1    
   248  126  246 1    
   249  126  247 1    
@<TRIPOS>SUBSTRUCTURE
     1 UNK         1 GROUP             0       ****    0 ROOT    
