@<TRIPOS>MOLECULE
3R540
247   249    1
SMALL
USER_CHARGES


@<TRIPOS>ATOM
      1 CA         -1.6098   -7.3467  -47.2861 C.3       0 UNK        -0.1800 
      2 C          -1.1317   -8.7794  -47.4707 C.2       0 UNK         0.5000 
      3 O          -0.1510   -9.1827  -46.8471 O.2       0 UNK        -0.5000 
      4 N          -1.8288   -9.5572  -48.3107 N.am      1 UNK        -0.5000 
      5 CA         -1.5146  -10.9572  -48.6389 C.3       1 UNK         0.1400 
      6 C6         -2.4255  -11.4782  -49.7824 C.3       23 UNK        -0.0398 
      7 S7         -1.6025  -12.6997  -50.8572 S.3       23 UNK        -0.2404 
      8 C8         -2.3683  -14.2422  -50.2718 C.3       23 UNK        -0.0205 
      9 C9         -1.7765  -15.4630  -50.9598 C.ar      23 UNK        -0.0193 
     10 C10        -2.5563  -16.2491  -51.8124 C.ar      23 UNK        -0.1150 
     11 C11        -2.0226  -17.3968  -52.4070 C.ar      23 UNK        -0.0193 
     12 C12        -0.6954  -17.7540  -52.1413 C.ar      23 UNK        -0.1150 
     13 C13         0.0964  -16.9739  -51.2939 C.ar      23 UNK        -0.0193 
     14 C14        -0.4500  -15.8251  -50.7149 C.ar      23 UNK        -0.1150 
     15 C15         1.5436  -17.3605  -51.0140 C.3       23 UNK        -0.0205 
     16 S16         1.7021  -18.5948  -49.6789 S.3       23 UNK        -0.2404 
     17 C17         1.0294  -17.6892  -48.2457 C.3       23 UNK        -0.0398 
     18 CA         -0.3320  -18.2670  -47.7975 C.3       11 UNK         0.1400 
     19 N          -0.1573  -19.5313  -47.0804 N.am      11 UNK        -0.5000 
     20 C          -1.1295  -20.3904  -46.7575 C.2       10 UNK         0.5000 
     21 O          -2.3184  -20.1929  -47.0070 O.2       10 UNK        -0.5000 
     22 CA         -0.7063  -21.7070  -46.0752 C.3       10 UNK         0.1400 
     23 CB          0.7543  -21.7259  -45.5731 C.3       10 UNK        -0.1800 
     24 N          -1.5834  -22.1371  -44.9866 N.am      10 UNK        -0.5000 
     25 C          -2.0774  -21.4202  -43.9676 C.2       9 UNK         0.5000 
     26 O          -2.0686  -20.1908  -43.9019 O.2       9 UNK        -0.5000 
     27 CA         -2.5832  -22.2346  -42.7608 C.3       9 UNK         0.1400 
     28 CB         -3.9728  -22.8534  -43.0086 C.3       9 UNK        -0.1800 
     29 N          -1.5911  -23.2298  -42.3214 N.am      9 UNK        -0.5000 
     30 C          -1.2135  -24.3646  -42.9334 C.2       8 UNK         0.5000 
     31 O          -1.7604  -24.8152  -43.9411 O.2       8 UNK        -0.5000 
     32 CA          0.0622  -25.0250  -42.3893 C.3       8 UNK         0.1400 
     33 CB          0.5703  -26.1881  -43.2630 C.3       8 UNK        -0.1800 
     34 N           1.0960  -23.9978  -42.2858 N.am      8 UNK        -0.5000 
     35 C           2.0142  -23.9173  -41.3193 C.2       7 UNK         0.5000 
     36 O           2.1617  -24.7692  -40.4420 O.2       7 UNK        -0.5000 
     37 CA          2.9106  -22.6613  -41.3150 C.3       7 UNK         0.1400 
     38 CB          4.2126  -22.9370  -42.0830 C.3       7 UNK        -0.1800 
     39 N           2.3067  -21.4275  -41.8417 N.am      7 UNK        -0.5000 
     40 C           1.1509  -20.8661  -41.4524 C.2       6 UNK         0.5000 
     41 O           0.3362  -21.4239  -40.7154 O.2       6 UNK        -0.5000 
     42 CA          0.8612  -19.4339  -41.9465 C.3       6 UNK         0.1400 
     43 CB          0.2955  -18.5692  -40.8048 C.3       6 UNK        -0.1800 
     44 N           2.0573  -18.7734  -42.4789 N.am      6 UNK        -0.5000 
     45 C           2.1864  -18.2896  -43.7201 C.2       5 UNK         0.5000 
     46 O           1.3479  -18.4325  -44.6123 O.2       5 UNK        -0.5000 
     47 CA          3.4994  -17.5424  -44.0242 C.3       5 UNK         0.1400 
     48 CB          4.4798  -18.4769  -44.7493 C.3       5 UNK        -0.1800 
     49 N           3.3037  -16.3377  -44.8365 N.am      5 UNK        -0.5000 
     50 C           2.5528  -15.2809  -44.4931 C.2       4 UNK         0.5000 
     51 O           1.9412  -15.2049  -43.4254 O.2       4 UNK        -0.5000 
     52 CA          2.5045  -14.1192  -45.5148 C.3       4 UNK         0.1400 
     53 CB          1.9997  -14.5932  -46.8860 C.3       4 UNK        -0.1800 
     54 N           1.6559  -13.0061  -45.0878 N.am      4 UNK        -0.5000 
     55 C           1.9188  -12.1606  -44.0815 C.2       3 UNK         0.5000 
     56 O           2.9769  -12.1676  -43.4495 O.2       3 UNK        -0.5000 
     57 CA          0.8378  -11.1163  -43.7243 C.3       3 UNK         0.1400 
     58 CB          1.3702   -9.6889  -43.9304 C.3       3 UNK        -0.1800 
     59 N          -0.4082  -11.2735  -44.4821 N.am      3 UNK        -0.5000 
     60 C          -1.3499  -12.1940  -44.2225 C.2       2 UNK         0.5000 
     61 O          -1.2776  -12.9869  -43.2843 O.2       2 UNK        -0.5000 
     62 CA         -2.5780  -12.2557  -45.1568 C.3       2 UNK         0.1400 
     63 CB         -3.8227  -11.7025  -44.4460 C.3       2 UNK        -0.1800 
     64 N          -2.4125  -11.5497  -46.4283 N.am      2 UNK        -0.5000 
     65 C          -1.5572  -11.8892  -47.4037 C.2       1 UNK         0.5000 
     66 O          -0.7944  -12.8521  -47.3294 O.2       1 UNK        -0.5000 
     67 C          -1.1483  -17.2298  -47.0030 C.2       11 UNK         0.5000 
     68 O          -1.8635  -16.4432  -47.6197 O.2       11 UNK        -0.5000 
     69 N          -1.0672  -17.2596  -45.6658 N.am      12 UNK        -0.5000 
     70 CA         -1.8436  -16.3949  -44.7753 C.3       12 UNK         0.1400 
     71 CB         -1.4080  -16.6250  -43.3237 C.3       12 UNK        -0.1800 
     72 C          -3.3636  -16.6008  -44.9156 C.2       12 UNK         0.5000 
     73 O          -4.1104  -15.6225  -44.9512 O.2       12 UNK        -0.5000 
     74 N          -3.7858  -17.8680  -45.0133 N.am      13 UNK        -0.5000 
     75 CA         -5.1784  -18.2557  -45.2397 C.3       13 UNK         0.1400 
     76 CB         -5.4212  -19.6039  -44.5474 C.3       13 UNK        -0.1800 
     77 C          -5.5368  -18.3609  -46.7354 C.2       13 UNK         0.5000 
     78 O          -6.7232  -18.3676  -47.0648 O.2       13 UNK        -0.5000 
     79 N          -4.5154  -18.4845  -47.5965 N.am      14 UNK        -0.5000 
     80 CA         -4.5703  -18.8857  -49.0072 C.3       14 UNK         0.1400 
     81 CB         -5.2894  -17.8284  -49.8690 C.3       14 UNK        -0.1800 
     82 C          -5.1495  -20.3109  -49.1516 C.2       14 UNK         0.5000 
     83 O          -6.0387  -20.5477  -49.9707 O.2       14 UNK        -0.5000 
     84 N          -4.6500  -21.2191  -48.3052 N.am      15 UNK        -0.5000 
     85 CA         -5.1198  -22.5887  -48.1245 C.3       15 UNK         0.1400 
     86 CB         -5.6755  -22.7145  -46.6968 C.3       15 UNK        -0.1800 
     87 C          -3.9703  -23.5868  -48.3326 C.2       15 UNK         0.5000 
     88 O          -2.8032  -23.1914  -48.3807 O.2       15 UNK        -0.5000 
     89 N          -4.3244  -24.8756  -48.4328 N.am      16 UNK        -0.5000 
     90 CA         -3.4214  -26.0283  -48.5252 C.3       16 UNK         0.1400 
     91 CB         -2.7364  -26.2678  -47.1592 C.3       16 UNK        -0.1800 
     92 C          -2.4384  -25.9020  -49.7087 C.2       16 UNK         0.5000 
     93 O          -2.8811  -25.8643  -50.8580 O.2       16 UNK        -0.5000 
     94 N          -1.1352  -25.8008  -49.4155 N.am      17 UNK        -0.5000 
     95 CA         -0.0601  -25.6189  -50.3913 C.3       17 UNK         0.1400 
     96 CB          1.2909  -25.6688  -49.6625 C.3       17 UNK        -0.1800 
     97 C          -0.1803  -24.3200  -51.2109 C.2       17 UNK         0.5000 
     98 O           0.2110  -24.3077  -52.3776 O.2       17 UNK        -0.5000 
     99 N          -0.7441  -23.2624  -50.6095 N.am      18 UNK        -0.5000 
    100 CA        -1.0030  -21.9956  -51.2902 C.3       18 UNK         0.1400 
    101 CB        -1.2493  -20.8922  -50.2595 C.3       18 UNK        -0.1800 
    102 C         -2.1836  -22.1062  -52.2637 C.2       18 UNK         0.5000 
    103 O         -2.1006  -21.5815  -53.3715 O.2       18 UNK        -0.5000 
    104 N         -3.2390  -22.8294  -51.8642 N.am      19 UNK        -0.5000 
    105 CA        -4.3915  -23.1230  -52.7187 C.3       19 UNK         0.1400 
    106 CB        -5.5173  -23.7612  -51.8932 C.3       19 UNK        -0.1800 
    107 C         -4.0105  -24.0118  -53.9148 C.2       19 UNK         0.5000 
    108 O         -4.4738  -23.7620  -55.0272 O.2       19 UNK        -0.5000 
    109 N         -3.1288  -24.9929  -53.6772 N.am      20 UNK        -0.5000 
    110 CA        -2.5377  -25.8432  -54.7109 C.3       20 UNK         0.1400 
    111 CB        -1.7272  -26.9650  -54.0445 C.3       20 UNK        -0.1800 
    112 C         -1.6673  -25.0589  -55.7144 C.2       20 UNK         0.5000 
    113 O         -1.6691  -25.3914  -56.9002 O.2       20 UNK        -0.5000 
    114 N         -0.9554  -24.0310  -55.2305 N.am      21 UNK        -0.5000 
    115 CA        -0.1452  -23.1286  -56.0468 C.3       21 UNK         0.1400 
    116 CB         0.8577  -22.3789  -55.1548 C.3       21 UNK        -0.1800 
    117 C         -1.0039  -22.1448  -56.8629 C.2       21 UNK         0.5000 
    118 O         -0.7915  -22.0184  -58.0701 O.2       21 UNK        -0.5000 
    119 N         -1.9451  -21.4628  -56.1968 N.am      22 UNK        -0.5000 
    120 CA        -2.8399  -20.4693  -56.8141 C.3       22 UNK         0.1400 
    121 C         -3.9499  -21.0771  -57.7179 C.2       22 UNK         0.5000 
    122 N         -4.4191  -22.2941  -57.4765 N.am      22 UNK        -0.7600 
    123 O         -4.3898  -20.4312  -58.6653 O.2       22 UNK        -0.5000 
    124 C124       -3.4552  -19.5036  -55.7693 C.3       23 UNK        -0.0398 
    125 S125       -2.2015  -18.4364  -54.9808 S.3       23 UNK        -0.2404 
    126 C126       -2.8926  -18.2667  -53.3042 C.3       23 UNK        -0.0205 
    127 H127       -2.4925   -7.1323  -47.8889 H         1 UNK         0.0600 
    128 H128       -0.8230   -6.6496  -47.5745 H         1 UNK         0.0600 
    129 H129       -1.8593   -7.1670  -46.2404 H         1 UNK         0.0600 
    130 H130       -2.6286   -9.1637  -48.7864 H         1 UNK         0.3000 
    131 H131       -0.4817  -10.9545  -48.9944 H         1 UNK         0.0600 
    132 H132       -2.7032  -10.6537  -50.4407 H         1 UNK         0.0800 
    133 H133       -3.3702  -11.8721  -49.4023 H         1 UNK         0.0800 
    134 H134       -3.4463  -14.1941  -50.4323 H         1 UNK         0.0800 
    135 H135       -2.2189  -14.3361  -49.1958 H         1 UNK         0.0800 
    136 H136       -3.5844  -15.9743  -52.0016 H         1 UNK         0.1150 
    137 H137       -0.2813  -18.6448  -52.5930 H         1 UNK         0.1150 
    138 H138        0.1504  -15.2063  -50.0633 H         1 UNK         0.1150 
    139 H139        1.9917  -17.7679  -51.9214 H         1 UNK         0.0800 
    140 H140        2.1305  -16.4765  -50.7596 H         1 UNK         0.0800 
    141 H141        0.9450  -16.6382  -48.5128 H         1 UNK         0.0800 
    142 H142        1.7520  -17.7289  -47.4289 H         1 UNK         0.0800 
    143 H143       -0.9230  -18.4767  -48.6915 H         1 UNK         0.0600 
    144 H144        0.7851  -19.7417  -46.7859 H         1 UNK         0.3000 
    145 H145       -0.7893  -22.4719  -46.8474 H         1 UNK         0.0600 
    146 H146        1.0166  -22.7108  -45.1869 H         1 UNK         0.0600 
    147 H147        1.4643  -21.5079  -46.3717 H         1 UNK         0.0600 
    148 H148        0.9129  -21.0069  -44.7705 H         1 UNK         0.0600 
    149 H149       -1.7083  -23.1424  -44.9129 H         1 UNK         0.3000 
    150 H150       -2.6831  -21.5352  -41.9291 H         1 UNK         0.0600 
    151 H151       -4.7197  -22.0767  -43.1690 H         1 UNK         0.0600 
    152 H152       -4.2989  -23.4415  -42.1509 H         1 UNK         0.0600 
    153 H153       -3.9888  -23.5024  -43.8840 H         1 UNK         0.0600 
    154 H154       -1.0231  -22.9228  -41.5386 H         1 UNK         0.3000 
    155 H155       -0.1829  -25.4124  -41.3982 H         1 UNK         0.0600 
    156 H156        0.8206  -25.8536  -44.2705 H         1 UNK         0.0600 
    157 H157       -0.1847  -26.9702  -43.3519 H         1 UNK         0.0600 
    158 H158        1.4609  -26.6448  -42.8312 H         1 UNK         0.0600 
    159 H159        1.0375  -23.2410  -42.9514 H         1 UNK         0.3000 
    160 H160        3.1691  -22.4642  -40.2728 H         1 UNK         0.0600 
    161 H161        4.0259  -23.0892  -43.1468 H         1 UNK         0.0600 
    162 H162        4.7093  -23.8320  -41.7055 H         1 UNK         0.0600 
    163 H163        4.9163  -22.1107  -41.9795 H         1 UNK         0.0600 
    164 H164        2.8861  -20.8930  -42.4715 H         1 UNK         0.3000 
    165 H165        0.1009  -19.5150  -42.7223 H         1 UNK         0.0600 
    166 H166        0.1615  -17.5337  -41.1148 H         1 UNK         0.0600 
    167 H167       -0.6780  -18.9377  -40.4790 H         1 UNK         0.0600 
    168 H168        0.9558  -18.5686  -39.9367 H         1 UNK         0.0600 
    169 H169        2.8045  -18.6203  -41.8156 H         1 UNK         0.3000 
    170 H170        3.9514  -17.2297  -43.0807 H         1 UNK         0.0600 
    171 H171        4.0884  -18.7971  -45.7161 H         1 UNK         0.0600 
    172 H172        5.4393  -17.9884  -44.9202 H         1 UNK         0.0600 
    173 H173        4.6748  -19.3746  -44.1612 H         1 UNK         0.0600 
    174 H174        3.7705  -16.3302  -45.7307 H         1 UNK         0.3000 
    175 H175        3.5223  -13.7422  -45.6320 H         1 UNK         0.0600 
    176 H176        0.9956  -15.0114  -46.8098 H         1 UNK         0.0600 
    177 H177        1.9608  -13.7692  -47.5990 H         1 UNK         0.0600 
    178 H178        2.6544  -15.3517  -47.3145 H         1 UNK         0.0600 
    179 H179        0.7632  -12.9239  -45.5560 H         1 UNK         0.3000 
    180 H180        0.6126  -11.2383  -42.6628 H         1 UNK         0.0600 
    181 H181        0.6106   -8.9431  -43.6954 H         1 UNK         0.0600 
    182 H182        1.6957   -9.5266  -44.9583 H         1 UNK         0.0600 
    183 H183        2.2266   -9.4943  -43.2837 H         1 UNK         0.0600 
    184 H184       -0.5218  -10.6640  -45.2840 H         1 UNK         0.3000 
    185 H185       -2.7575  -13.3065  -45.3871 H         1 UNK         0.0600 
    186 H186       -4.7139  -11.8187  -45.0629 H         1 UNK         0.0600 
    187 H187       -4.0074  -12.2340  -43.5113 H         1 UNK         0.0600 
    188 H188       -3.7122  -10.6441  -44.2067 H         1 UNK         0.0600 
    189 H189       -2.9795  -10.7250  -46.5608 H         1 UNK         0.3000 
    190 H190       -0.4129  -17.9049  -45.2306 H         1 UNK         0.3000 
    191 H191       -1.6129  -15.3619  -45.0406 H         1 UNK         0.0600 
    192 H192       -1.9332  -15.9501  -42.6469 H         1 UNK         0.0600 
    193 H193       -0.3425  -16.4401  -43.2018 H         1 UNK         0.0600 
    194 H194       -1.6117  -17.6453  -42.9985 H         1 UNK         0.0600 
    195 H195       -3.1066  -18.6186  -44.9340 H         1 UNK         0.3000 
    196 H196       -5.8452  -17.5181  -44.7883 H         1 UNK         0.0600 
    197 H197       -4.7861  -20.3816  -44.9709 H         1 UNK         0.0600 
    198 H198       -5.2120  -19.5430  -43.4793 H         1 UNK         0.0600 
    199 H199       -6.4571  -19.9256  -44.6607 H         1 UNK         0.0600 
    200 H200       -3.5893  -18.5253  -47.1895 H         1 UNK         0.3000 
    201 H201       -3.5359  -18.9354  -49.3500 H         1 UNK         0.0600 
    202 H202       -6.3500  -17.7561  -49.6283 H         1 UNK         0.0600 
    203 H203       -5.2111  -18.0747  -50.9284 H         1 UNK         0.0600 
    204 H204       -4.8445  -16.8428  -49.7305 H         1 UNK         0.0600 
    205 H205       -3.8479  -20.9542  -47.7355 H         1 UNK         0.3000 
    206 H206       -5.9143  -22.8211  -48.8346 H         1 UNK         0.0600 
    207 H207       -6.1013  -23.7028  -46.5203 H         1 UNK         0.0600 
    208 H208       -4.8951  -22.5560  -45.9522 H         1 UNK         0.0600 
    209 H209       -6.4651  -21.9848  -46.5152 H         1 UNK         0.0600 
    210 H210       -5.3081  -25.1046  -48.4155 H         1 UNK         0.3000 
    211 H211       -4.0437  -26.8980  -48.7407 H         1 UNK         0.0600 
    212 H212       -2.1064  -27.1579  -47.1813 H         1 UNK         0.0600 
    213 H213       -3.4784  -26.4245  -46.3762 H         1 UNK         0.0600 
    214 H214       -2.1166  -25.4246  -46.8511 H         1 UNK         0.0600 
    215 H215       -0.8639  -25.8169  -48.4435 H         1 UNK         0.3000 
    216 H216       -0.1031  -26.4552  -51.0918 H         1 UNK         0.0600 
    217 H217        1.3798  -24.8706  -48.9244 H         1 UNK         0.0600 
    218 H218        2.1179  -25.5596  -50.3655 H         1 UNK         0.0600 
    219 H219        1.4274  -26.6201  -49.1479 H         1 UNK         0.0600 
    220 H220       -1.1102  -23.3604  -49.6692 H         1 UNK         0.3000 
    221 H221       -0.1166  -21.7208  -51.8663 H         1 UNK         0.0600 
    222 H222       -0.3854  -20.7812  -49.6070 H         1 UNK         0.0600 
    223 H223       -2.1200  -21.0968  -49.6410 H         1 UNK         0.0600 
    224 H224       -1.4213  -19.9333  -50.7433 H         1 UNK         0.0600 
    225 H225       -3.2039  -23.2796  -50.9615 H         1 UNK         0.3000 
    226 H226       -4.7632  -22.1768  -53.1180 H         1 UNK         0.0600 
    227 H227       -5.1928  -24.6732  -51.3929 H         1 UNK         0.0600 
    228 H228       -5.8845  -23.0695  -51.1373 H         1 UNK         0.0600 
    229 H229       -6.3659  -24.0203  -52.5276 H         1 UNK         0.0600 
    230 H230       -2.8476  -25.1707  -52.7177 H         1 UNK         0.3000 
    231 H231       -3.3559  -26.3018  -55.2700 H         1 UNK         0.0600 
    232 H232       -0.8849  -26.5702  -53.4769 H         1 UNK         0.0600 
    233 H233       -1.3261  -27.6517  -54.7908 H         1 UNK         0.0600 
    234 H234       -2.3462  -27.5489  -53.3629 H         1 UNK         0.0600 
    235 H235       -0.9731  -23.8509  -54.2350 H         1 UNK         0.3000 
    236 H236        0.4296  -23.7325  -56.7524 H         1 UNK         0.0600 
    237 H237        1.5103  -23.0740  -54.6264 H         1 UNK         0.0600 
    238 H238        1.4942  -21.7237  -55.7507 H         1 UNK         0.0600 
    239 H239        0.3582  -21.7595  -54.4102 H         1 UNK         0.0600 
    240 H240       -2.0342  -21.5877  -55.1903 H         1 UNK         0.3000 
    241 H241       -2.2252  -19.8607  -57.4809 H         1 UNK         0.0600 
    242 H242       -5.1319  -22.6723  -58.0791 H         1 UNK         0.3800 
    243 H243       -4.1506  -22.8122  -56.6446 H         1 UNK         0.3800 
    244 H244       -3.9914  -20.0716  -55.0071 H         1 UNK         0.0800 
    245 H245       -4.1901  -18.8439  -56.2345 H         1 UNK         0.0800 
    246 H246       -3.8985  -17.8517  -53.3831 H         1 UNK         0.0800 
    247 H247       -3.0023  -19.2464  -52.8425 H         1 UNK         0.0800 
@<TRIPOS>BOND
     1    1    2 1    
     2    1  127 1    
     3    1  128 1    
     4    1  129 1    
     5    2    3 2    
     6    2    4 am   BACKBONE|DICT|INTERRES
     7    4    5 1    
     8    4  130 1    
     9    5    6 1    
    10    5   65 1    
    11    5  131 1    
    12    6    7 1    
    13    6  132 1    
    14    6  133 1    
    15    7    8 1    
    16    8    9 1    
    17    8  134 1    
    18    8  135 1    
    19    9   10 ar   
    20    9   14 ar   
    21   10   11 ar   
    22   10  136 1    
    23   11   12 ar   
    24   11  126 1    
    25   12   13 ar   
    26   12  137 1    
    27   13   14 ar   
    28   13   15 1    
    29   14  138 1    
    30   15   16 1    
    31   15  139 1    
    32   15  140 1    
    33   16   17 1    
    34   17   18 1    
    35   17  141 1    
    36   17  142 1    
    37   18   19 1    
    38   18   67 1    
    39   18  143 1    
    40   19   20 am   BACKBONE|DICT|INTERRES
    41   19  144 1    
    42   20   21 2    
    43   20   22 1    
    44   22   23 1    
    45   22   24 1    
    46   22  145 1    
    47   23  146 1    
    48   23  147 1    
    49   23  148 1    
    50   24   25 am   BACKBONE|DICT|INTERRES
    51   24  149 1    
    52   25   26 2    
    53   25   27 1    
    54   27   28 1    
    55   27   29 1    
    56   27  150 1    
    57   28  151 1    
    58   28  152 1    
    59   28  153 1    
    60   29   30 am   BACKBONE|DICT|INTERRES
    61   29  154 1    
    62   30   31 2    
    63   30   32 1    
    64   32   33 1    
    65   32   34 1    
    66   32  155 1    
    67   33  156 1    
    68   33  157 1    
    69   33  158 1    
    70   34   35 am   BACKBONE|DICT|INTERRES
    71   34  159 1    
    72   35   36 2    
    73   35   37 1    
    74   37   38 1    
    75   37   39 1    
    76   37  160 1    
    77   38  161 1    
    78   38  162 1    
    79   38  163 1    
    80   39   40 am   BACKBONE|DICT|INTERRES
    81   39  164 1    
    82   40   41 2    
    83   40   42 1    
    84   42   43 1    
    85   42   44 1    
    86   42  165 1    
    87   43  166 1    
    88   43  167 1    
    89   43  168 1    
    90   44   45 am   BACKBONE|DICT|INTERRES
    91   44  169 1    
    92   45   46 2    
    93   45   47 1    
    94   47   48 1    
    95   47   49 1    
    96   47  170 1    
    97   48  171 1    
    98   48  172 1    
    99   48  173 1    
   100   49   50 am   BACKBONE|DICT|INTERRES
   101   49  174 1    
   102   50   51 2    
   103   50   52 1    
   104   52   53 1    
   105   52   54 1    
   106   52  175 1    
   107   53  176 1    
   108   53  177 1    
   109   53  178 1    
   110   54   55 am   BACKBONE|DICT|INTERRES
   111   54  179 1    
   112   55   56 2    
   113   55   57 1    
   114   57   58 1    
   115   57   59 1    
   116   57  180 1    
   117   58  181 1    
   118   58  182 1    
   119   58  183 1    
   120   59   60 am   BACKBONE|DICT|INTERRES
   121   59  184 1    
   122   60   61 2    
   123   60   62 1    
   124   62   63 1    
   125   62   64 1    
   126   62  185 1    
   127   63  186 1    
   128   63  187 1    
   129   63  188 1    
   130   64   65 am   BACKBONE|DICT|INTERRES
   131   64  189 1    
   132   65   66 2    
   133   67   68 2    
   134   67   69 am   BACKBONE|DICT|INTERRES
   135   69   70 1    
   136   69  190 1    
   137   70   71 1    
   138   70   72 1    
   139   70  191 1    
   140   71  192 1    
   141   71  193 1    
   142   71  194 1    
   143   72   73 2    
   144   72   74 am   BACKBONE|DICT|INTERRES
   145   74   75 1    
   146   74  195 1    
   147   75   76 1    
   148   75   77 1    
   149   75  196 1    
   150   76  197 1    
   151   76  198 1    
   152   76  199 1    
   153   77   78 2    
   154   77   79 am   BACKBONE|DICT|INTERRES
   155   79   80 1    
   156   79  200 1    
   157   80   81 1    
   158   80   82 1    
   159   80  201 1    
   160   81  202 1    
   161   81  203 1    
   162   81  204 1    
   163   82   83 2    
   164   82   84 am   BACKBONE|DICT|INTERRES
   165   84   85 1    
   166   84  205 1    
   167   85   86 1    
   168   85   87 1    
   169   85  206 1    
   170   86  207 1    
   171   86  208 1    
   172   86  209 1    
   173   87   88 2    
   174   87   89 am   BACKBONE|DICT|INTERRES
   175   89   90 1    
   176   89  210 1    
   177   90   91 1    
   178   90   92 1    
   179   90  211 1    
   180   91  212 1    
   181   91  213 1    
   182   91  214 1    
   183   92   93 2    
   184   92   94 am   BACKBONE|DICT|INTERRES
   185   94   95 1    
   186   94  215 1    
   187   95   96 1    
   188   95   97 1    
   189   95  216 1    
   190   96  217 1    
   191   96  218 1    
   192   96  219 1    
   193   97   98 2    
   194   97   99 am   BACKBONE|DICT|INTERRES
   195   99  100 1    
   196   99  220 1    
   197  100  101 1    
   198  100  102 1    
   199  100  221 1    
   200  101  222 1    
   201  101  223 1    
   202  101  224 1    
   203  102  103 2    
   204  102  104 am   BACKBONE|DICT|INTERRES
   205  104  105 1    
   206  104  225 1    
   207  105  106 1    
   208  105  107 1    
   209  105  226 1    
   210  106  227 1    
   211  106  228 1    
   212  106  229 1    
   213  107  108 2    
   214  107  109 am   BACKBONE|DICT|INTERRES
   215  109  110 1    
   216  109  230 1    
   217  110  111 1    
   218  110  112 1    
   219  110  231 1    
   220  111  232 1    
   221  111  233 1    
   222  111  234 1    
   223  112  113 2    
   224  112  114 am   BACKBONE|DICT|INTERRES
   225  114  115 1    
   226  114  235 1    
   227  115  116 1    
   228  115  117 1    
   229  115  236 1    
   230  116  237 1    
   231  116  238 1    
   232  116  239 1    
   233  117  118 2    
   234  117  119 am   BACKBONE|DICT|INTERRES
   235  119  120 1    
   236  119  240 1    
   237  120  121 1    
   238  120  124 1    
   239  120  241 1    
   240  121  122 am   BACKBONE|DICT|INTERRES
   241  121  123 2    
   242  122  242 1    
   243  122  243 1    
   244  124  125 1    
   245  124  244 1    
   246  124  245 1    
   247  125  126 1    
   248  126  246 1    
   249  126  247 1    
@<TRIPOS>SUBSTRUCTURE
     1 UNK         1 GROUP             0       ****    0 ROOT    
