@<TRIPOS>MOLECULE
3R540
247   249    1
SMALL
USER_CHARGES


@<TRIPOS>ATOM
      1 CA          3.0656  -18.8293  -44.9993 C.3       0 UNK        -0.1800 
      2 C           1.8551  -18.5180  -45.8649 C.2       0 UNK         0.5000 
      3 O           1.0828  -19.4219  -46.1844 O.2       0 UNK        -0.5000 
      4 N           1.7022  -17.2487  -46.2516 N.am      1 UNK        -0.5000 
      5 CA          0.7376  -16.7732  -47.2494 C.3       1 UNK         0.1400 
      6 C6          1.2472  -15.4950  -47.9693 C.3       23 UNK        -0.0398 
      7 S7          2.9516  -15.6344  -48.6092 S.3       23 UNK        -0.2404 
      8 C8          2.6597  -15.9944  -50.3678 C.3       23 UNK        -0.0205 
      9 C9          2.1645  -17.4162  -50.5824 C.ar      23 UNK        -0.0193 
     10 C10         0.8135  -17.6678  -50.8340 C.ar      23 UNK        -0.1150 
     11 C11         0.3673  -18.9702  -51.0751 C.ar      23 UNK        -0.0193 
     12 C12         1.2833  -20.0262  -51.0552 C.ar      23 UNK        -0.1150 
     13 C13         2.6363  -19.7903  -50.7873 C.ar      23 UNK        -0.0193 
     14 C14         3.0680  -18.4814  -50.5544 C.ar      23 UNK        -0.1150 
     15 C15         3.6507  -20.9297  -50.7752 C.3       23 UNK        -0.0205 
     16 S16         3.1145  -22.3931  -49.8291 S.3       23 UNK        -0.2404 
     17 C17         2.8601  -21.6950  -48.1608 C.3       23 UNK        -0.0398 
     18 CA          1.9549  -22.5917  -47.2832 C.3       11 UNK         0.1400 
     19 N           1.9900  -22.1864  -45.8788 N.am      11 UNK        -0.5000 
     20 C           2.1750  -23.0207  -44.8481 C.2       10 UNK         0.5000 
     21 O           2.4580  -24.2125  -44.9750 O.2       10 UNK        -0.5000 
     22 CA          1.9992  -22.4455  -43.4262 C.3       10 UNK         0.1400 
     23 CB          3.3614  -22.0661  -42.8258 C.3       10 UNK        -0.1800 
     24 N           1.0925  -21.2975  -43.3143 N.am      10 UNK        -0.5000 
     25 C          -0.1920  -21.2755  -43.6988 C.2       9 UNK         0.5000 
     26 O          -0.7351  -22.2113  -44.2829 O.2       9 UNK        -0.5000 
     27 CA         -1.0054  -20.0090  -43.3712 C.3       9 UNK         0.1400 
     28 CB         -2.5098  -20.3063  -43.2368 C.3       9 UNK        -0.1800 
     29 N          -0.5351  -19.3788  -42.1356 N.am      9 UNK        -0.5000 
     30 C           0.2230  -18.2792  -42.0672 C.2       8 UNK         0.5000 
     31 O           0.5845  -17.6479  -43.0611 O.2       8 UNK        -0.5000 
     32 CA          0.6334  -17.7879  -40.6629 C.3       8 UNK         0.1400 
     33 CB          0.5654  -18.8752  -39.5669 C.3       8 UNK        -0.1800 
     34 N           1.9491  -17.1481  -40.6830 N.am      8 UNK        -0.5000 
     35 C           3.1268  -17.7023  -41.0063 C.2       7 UNK         0.5000 
     36 O           3.2783  -18.9008  -41.2475 O.2       7 UNK        -0.5000 
     37 CA          4.3431  -16.7579  -41.0869 C.3       7 UNK         0.1400 
     38 CB          4.8135  -16.6155  -42.5431 C.3       7 UNK        -0.1800 
     39 N           4.0394  -15.4225  -40.5664 N.am      7 UNK        -0.5000 
     40 C           4.3362  -14.9884  -39.3340 C.2       6 UNK         0.5000 
     41 O           4.9619  -15.6532  -38.5075 O.2       6 UNK        -0.5000 
     42 CA          3.8461  -13.5758  -38.9500 C.3       6 UNK         0.1400 
     43 CB          4.9433  -12.5359  -39.2237 C.3       6 UNK        -0.1800 
     44 N           2.6227  -13.1700  -39.6467 N.am      6 UNK        -0.5000 
     45 C           1.4170  -13.7264  -39.4654 C.2       5 UNK         0.5000 
     46 O           1.1925  -14.6121  -38.6408 O.2       5 UNK        -0.5000 
     47 CA          0.2758  -13.2524  -40.3882 C.3       5 UNK         0.1400 
     48 CB         -0.5494  -12.1547  -39.7007 C.3       5 UNK        -0.1800 
     49 N           0.6913  -12.7754  -41.7126 N.am      5 UNK        -0.5000 
     50 C           1.4221  -13.4571  -42.6045 C.2       4 UNK         0.5000 
     51 O           1.9500  -14.5430  -42.3658 O.2       4 UNK        -0.5000 
     52 CA          1.5372  -12.8344  -44.0074 C.3       4 UNK         0.1400 
     53 CB          2.6479  -13.4894  -44.8488 C.3       4 UNK        -0.1800 
     54 N           0.2642  -12.9902  -44.7051 N.am      4 UNK        -0.5000 
     55 C          -0.8132  -12.2083  -44.5510 C.2       3 UNK         0.5000 
     56 O          -0.8157  -11.1728  -43.8843 O.2       3 UNK        -0.5000 
     57 CA         -2.1139  -12.6948  -45.2214 C.3       3 UNK         0.1400 
     58 CB         -2.2560  -12.0899  -46.6259 C.3       3 UNK        -0.1800 
     59 N          -2.1751  -14.1552  -45.3218 N.am      3 UNK        -0.5000 
     60 C          -2.2890  -14.9963  -44.2855 C.2       2 UNK         0.5000 
     61 O          -2.4730  -14.6288  -43.1251 O.2       2 UNK        -0.5000 
     62 CA         -2.1086  -16.4950  -44.5848 C.3       2 UNK         0.1400 
     63 CB         -3.3869  -17.1185  -45.1781 C.3       2 UNK        -0.1800 
     64 N          -0.9047  -16.7802  -45.3842 N.am      2 UNK        -0.5000 
     65 C          -0.6788  -16.5231  -46.6821 C.2       1 UNK         0.5000 
     66 O          -1.5307  -16.0347  -47.4247 O.2       1 UNK        -0.5000 
     67 C           0.4954  -22.6052  -47.7774 C.2       11 UNK         0.5000 
     68 O           0.0742  -23.5881  -48.3850 O.2       11 UNK        -0.5000 
     69 N          -0.2620  -21.5373  -47.4901 N.am      12 UNK        -0.5000 
     70 CA         -1.6336  -21.3157  -47.9563 C.3       12 UNK         0.1400 
     71 CB         -2.0819  -19.9167  -47.5154 C.3       12 UNK        -0.1800 
     72 C          -2.6624  -22.3830  -47.5292 C.2       12 UNK         0.5000 
     73 O          -3.6457  -22.5803  -48.2413 O.2       12 UNK        -0.5000 
     74 N          -2.4289  -23.0654  -46.3998 N.am      13 UNK        -0.5000 
     75 CA         -3.2463  -24.1918  -45.9439 C.3       13 UNK         0.1400 
     76 CB         -2.9516  -24.4742  -44.4633 C.3       13 UNK        -0.1800 
     77 C          -3.0345  -25.4648  -46.7870 C.2       13 UNK         0.5000 
     78 O          -3.9707  -26.2512  -46.9341 O.2       13 UNK        -0.5000 
     79 N          -1.8200  -25.6464  -47.3251 N.am      14 UNK        -0.5000 
     80 CA         -1.4752  -26.7379  -48.2360 C.3       14 UNK         0.1400 
     81 CB          0.0244  -27.0553  -48.1224 C.3       14 UNK        -0.1800 
     82 C          -1.8603  -26.3714  -49.6776 C.2       14 UNK         0.5000 
     83 O          -2.5168  -27.1593  -50.3598 O.2       14 UNK        -0.5000 
     84 N          -1.5019  -25.1507  -50.0952 N.am      15 UNK        -0.5000 
     85 CA         -1.8759  -24.5240  -51.3620 C.3       15 UNK         0.1400 
     86 CB         -0.8342  -23.4418  -51.6990 C.3       15 UNK        -0.1800 
     87 C          -3.3120  -23.9634  -51.2977 C.2       15 UNK         0.5000 
     88 O          -3.5284  -22.7769  -51.5452 O.2       15 UNK        -0.5000 
     89 N          -4.2728  -24.8351  -50.9600 N.am      16 UNK        -0.5000 
     90 CA         -5.6775  -24.5252  -50.6669 C.3       16 UNK         0.1400 
     91 CB         -6.3685  -25.8080  -50.1801 C.3       16 UNK        -0.1800 
     92 C          -6.4692  -23.8855  -51.8268 C.2       16 UNK         0.5000 
     93 O          -7.5434  -23.3297  -51.5953 O.2       16 UNK        -0.5000 
     94 N          -5.9146  -23.9403  -53.0445 N.am      17 UNK        -0.5000 
     95 CA         -6.3976  -23.2510  -54.2408 C.3       17 UNK         0.1400 
     96 CB         -5.6591  -23.8209  -55.4617 C.3       17 UNK        -0.1800 
     97 C          -6.2506  -21.7136  -54.1878 C.2       17 UNK         0.5000 
     98 O          -6.7712  -21.0467  -55.0819 O.2       17 UNK        -0.5000 
     99 N          -5.5680  -21.1796  -53.1593 N.am      18 UNK        -0.5000 
    100 CA        -5.2449  -19.7684  -52.9027 C.3       18 UNK         0.1400 
    101 CB        -4.7178  -19.6401  -51.4645 C.3       18 UNK        -0.1800 
    102 C         -6.3743  -18.7413  -53.1195 C.2       18 UNK         0.5000 
    103 O         -6.0817  -17.5936  -53.4559 O.2       18 UNK        -0.5000 
    104 N         -7.6344  -19.1630  -52.9418 N.am      19 UNK        -0.5000 
    105 CA        -8.8337  -18.3741  -53.2354 C.3       19 UNK         0.1400 
    106 CB       -10.0701  -19.1510  -52.7583 C.3       19 UNK        -0.1800 
    107 C         -8.9738  -17.9963  -54.7261 C.2       19 UNK         0.5000 
    108 O         -9.5416  -16.9462  -55.0298 O.2       19 UNK        -0.5000 
    109 N         -8.4428  -18.8426  -55.6180 N.am      20 UNK        -0.5000 
    110 CA        -8.3058  -18.5832  -57.0470 C.3       20 UNK         0.1400 
    111 CB        -8.6623  -19.8539  -57.8378 C.3       20 UNK        -0.1800 
    112 C         -6.8720  -18.1167  -57.3451 C.2       20 UNK         0.5000 
    113 O         -6.6878  -16.9998  -57.8306 O.2       20 UNK        -0.5000 
    114 N         -5.8869  -18.9651  -57.0235 N.am      21 UNK        -0.5000 
    115 CA        -4.4542  -18.7269  -57.1841 C.3       21 UNK         0.1400 
    116 CB        -4.0646  -18.6550  -58.6741 C.3       21 UNK        -0.1800 
    117 C         -3.6915  -19.8660  -56.4957 C.2       21 UNK         0.5000 
    118 O         -4.1158  -21.0186  -56.5840 O.2       21 UNK        -0.5000 
    119 N         -2.5743  -19.5335  -55.8406 N.am      22 UNK        -0.5000 
    120 CA        -1.7385  -20.4767  -55.0722 C.3       22 UNK         0.1400 
    121 C         -0.9685  -21.5307  -55.9244 C.2       22 UNK         0.5000 
    122 N         -0.8706  -21.3855  -57.2401 N.am      22 UNK        -0.7600 
    123 O         -0.4505  -22.5005  -55.3791 O.2       22 UNK        -0.5000 
    124 C124       -0.7567  -19.7321  -54.1308 C.3       23 UNK        -0.0398 
    125 S125       -1.5964  -18.5782  -52.9909 S.3       23 UNK        -0.2404 
    126 C126       -1.1035  -19.2281  -51.3633 C.3       23 UNK        -0.0205 
    127 H127        2.7596  -19.0160  -43.9716 H         1 UNK         0.0600 
    128 H128        3.7773  -18.0044  -45.0000 H         1 UNK         0.0600 
    129 H129        3.5800  -19.7138  -45.3739 H         1 UNK         0.0600 
    130 H130        2.3750  -16.5629  -45.9427 H         1 UNK         0.3000 
    131 H131        0.6275  -17.5554  -48.0027 H         1 UNK         0.0600 
    132 H132        0.5835  -15.2283  -48.7937 H         1 UNK         0.0800 
    133 H133        1.2292  -14.6423  -47.2893 H         1 UNK         0.0800 
    134 H134        1.9588  -15.2696  -50.7847 H         1 UNK         0.0800 
    135 H135        3.5948  -15.8552  -50.9122 H         1 UNK         0.0800 
    136 H136        0.1077  -16.8493  -50.8591 H         1 UNK         0.1150 
    137 H137        0.9463  -21.0342  -51.2489 H         1 UNK         0.1150 
    138 H138        4.1129  -18.2848  -50.3588 H         1 UNK         0.1150 
    139 H139        3.8438  -21.2318  -51.8052 H         1 UNK         0.0800 
    140 H140        4.6054  -20.5910  -50.3697 H         1 UNK         0.0800 
    141 H141        3.8417  -21.5936  -47.6960 H         1 UNK         0.0800 
    142 H142        2.4538  -20.6850  -48.2301 H         1 UNK         0.0800 
    143 H143        2.3279  -23.6141  -47.3753 H         1 UNK         0.0600 
    144 H144        1.7172  -21.2290  -45.6868 H         1 UNK         0.3000 
    145 H145        1.5736  -23.2438  -42.8149 H         1 UNK         0.0600 
    146 H146        3.2627  -21.7615  -41.7836 H         1 UNK         0.0600 
    147 H147        4.0504  -22.9114  -42.8515 H         1 UNK         0.0600 
    148 H148        3.8290  -21.2458  -43.3703 H         1 UNK         0.0600 
    149 H149        1.4595  -20.4849  -42.8398 H         1 UNK         0.3000 
    150 H150       -0.8779  -19.3339  -44.2178 H         1 UNK         0.0600 
    151 H151       -3.0706  -19.4022  -42.9997 H         1 UNK         0.0600 
    152 H152       -2.7063  -21.0379  -42.4523 H         1 UNK         0.0600 
    153 H153       -2.9186  -20.7040  -44.1668 H         1 UNK         0.0600 
    154 H154       -0.7713  -19.8560  -41.2769 H         1 UNK         0.3000 
    155 H155       -0.0762  -17.0031  -40.3979 H         1 UNK         0.0600 
    156 H156       -0.4590  -19.2109  -39.4027 H         1 UNK         0.0600 
    157 H157        0.9268  -18.4889  -38.6137 H         1 UNK         0.0600 
    158 H158        1.1668  -19.7497  -39.8181 H         1 UNK         0.0600 
    159 H159        1.9387  -16.1445  -40.5720 H         1 UNK         0.3000 
    160 H160        5.1516  -17.2130  -40.5114 H         1 UNK         0.0600 
    161 H161        4.0265  -16.2124  -43.1819 H         1 UNK         0.0600 
    162 H162        5.1099  -17.5820  -42.9522 H         1 UNK         0.0600 
    163 H163        5.6770  -15.9543  -42.6164 H         1 UNK         0.0600 
    164 H164        3.4774  -14.8359  -41.1758 H         1 UNK         0.3000 
    165 H165        3.6388  -13.5797  -37.8778 H         1 UNK         0.0600 
    166 H166        5.1802  -12.4710  -40.2865 H         1 UNK         0.0600 
    167 H167        4.6414  -11.5447  -38.8847 H         1 UNK         0.0600 
    168 H168        5.8638  -12.7914  -38.6972 H         1 UNK         0.0600 
    169 H169        2.7155  -12.4502  -40.3483 H         1 UNK         0.3000 
    170 H170       -0.3768  -14.1123  -40.5536 H         1 UNK         0.0600 
    171 H171       -0.9034  -12.4840  -38.7228 H         1 UNK         0.0600 
    172 H172        0.0367  -11.2472  -39.5501 H         1 UNK         0.0600 
    173 H173       -1.4280  -11.8938  -40.2912 H         1 UNK         0.0600 
    174 H174        0.2672  -11.9110  -42.0254 H         1 UNK         0.3000 
    175 H175        1.7727  -11.7739  -43.8967 H         1 UNK         0.0600 
    176 H176        2.4677  -14.5538  -45.0013 H         1 UNK         0.0600 
    177 H177        2.7301  -13.0193  -45.8289 H         1 UNK         0.0600 
    178 H178        3.6172  -13.3895  -44.3586 H         1 UNK         0.0600 
    179 H179        0.1448  -13.8445  -45.2253 H         1 UNK         0.3000 
    180 H180       -2.9529  -12.3557  -44.6104 H         1 UNK         0.0600 
    181 H181       -1.4512  -12.4134  -47.2874 H         1 UNK         0.0600 
    182 H182       -2.2319  -11.0001  -46.5862 H         1 UNK         0.0600 
    183 H183       -3.2025  -12.3770  -47.0843 H         1 UNK         0.0600 
    184 H184       -2.0492  -14.5657  -46.2423 H         1 UNK         0.3000 
    185 H185       -1.9459  -16.9791  -43.6221 H         1 UNK         0.0600 
    186 H186       -3.2730  -18.1909  -45.3243 H         1 UNK         0.0600 
    187 H187       -4.2319  -16.9753  -44.5038 H         1 UNK         0.0600 
    188 H188       -3.6627  -16.6754  -46.1348 H         1 UNK         0.0600 
    189 H189       -0.1262  -17.1358  -44.8344 H         1 UNK         0.3000 
    190 H190        0.1635  -20.7640  -46.9840 H         1 UNK         0.3000 
    191 H191       -1.6082  -21.3294  -49.0471 H         1 UNK         0.0600 
    192 H192       -3.1114  -19.7151  -47.8143 H         1 UNK         0.0600 
    193 H193       -1.4568  -19.1471  -47.9673 H         1 UNK         0.0600 
    194 H194       -2.0200  -19.8068  -46.4334 H         1 UNK         0.0600 
    195 H195       -1.6416  -22.8046  -45.8101 H         1 UNK         0.3000 
    196 H196       -4.2980  -23.9099  -46.0290 H         1 UNK         0.0600 
    197 H197       -3.5680  -25.2931  -44.0904 H         1 UNK         0.0600 
    198 H198       -3.1634  -23.6007  -43.8462 H         1 UNK         0.0600 
    199 H199       -1.9078  -24.7498  -44.3070 H         1 UNK         0.0600 
    200 H200       -1.1285  -24.9151  -47.2172 H         1 UNK         0.3000 
    201 H201       -2.0294  -27.6357  -47.9537 H         1 UNK         0.0600 
    202 H202        0.2882  -27.3449  -47.1052 H         1 UNK         0.0600 
    203 H203        0.6465  -26.2035  -48.3982 H         1 UNK         0.0600 
    204 H204        0.2961  -27.8840  -48.7774 H         1 UNK         0.0600 
    205 H205       -0.9646  -24.5662  -49.4566 H         1 UNK         0.3000 
    206 H206       -1.8508  -25.2744  -52.1545 H         1 UNK         0.0600 
    207 H207        0.1660  -23.8674  -51.7811 H         1 UNK         0.0600 
    208 H208       -1.0610  -22.9576  -52.6495 H         1 UNK         0.0600 
    209 H209       -0.8035  -22.6680  -50.9326 H         1 UNK         0.0600 
    210 H210       -3.9804  -25.7901  -50.7835 H         1 UNK         0.3000 
    211 H211       -5.6824  -23.8038  -49.8473 H         1 UNK         0.0600 
    212 H212       -6.3632  -26.5822  -50.9483 H         1 UNK         0.0600 
    213 H213       -7.4083  -25.6173  -49.9113 H         1 UNK         0.0600 
    214 H214       -5.8745  -26.2092  -49.2946 H         1 UNK         0.0600 
    215 H215       -5.0266  -24.4120  -53.1280 H         1 UNK         0.3000 
    216 H216       -7.4618  -23.4679  -54.3517 H         1 UNK         0.0600 
    217 H217       -6.0148  -23.3614  -56.3850 H         1 UNK         0.0600 
    218 H218       -5.8153  -24.8958  -55.5540 H         1 UNK         0.0600 
    219 H219       -4.5853  -23.6385  -55.4011 H         1 UNK         0.0600 
    220 H220       -5.1343  -21.8314  -52.5146 H         1 UNK         0.3000 
    221 H221       -4.4398  -19.5015  -53.5871 H         1 UNK         0.0600 
    222 H222       -4.4590  -18.6069  -51.2285 H         1 UNK         0.0600 
    223 H223       -5.4575  -19.9710  -50.7344 H         1 UNK         0.0600 
    224 H224       -3.8176  -20.2335  -51.3174 H         1 UNK         0.0600 
    225 H225       -7.7787  -20.1238  -52.6670 H         1 UNK         0.3000 
    226 H226       -8.7702  -17.4453  -52.6649 H         1 UNK         0.0600 
    227 H227      -10.0210  -19.3533  -51.6882 H         1 UNK         0.0600 
    228 H228      -10.9829  -18.5818  -52.9390 H         1 UNK         0.0600 
    229 H229      -10.1696  -20.1053  -53.2772 H         1 UNK         0.0600 
    230 H230       -7.9496  -19.6633  -55.2728 H         1 UNK         0.3000 
    231 H231       -8.9916  -17.7926  -57.3589 H         1 UNK         0.0600 
    232 H232       -8.5363  -19.6938  -58.9093 H         1 UNK         0.0600 
    233 H233       -9.7014  -20.1379  -57.6712 H         1 UNK         0.0600 
    234 H234       -8.0379  -20.7025  -57.5560 H         1 UNK         0.0600 
    235 H235       -6.1162  -19.8549  -56.5868 H         1 UNK         0.3000 
    236 H236       -4.2041  -17.7839  -56.6938 H         1 UNK         0.0600 
    237 H237       -4.5281  -17.8047  -59.1736 H         1 UNK         0.0600 
    238 H238       -2.9861  -18.5426  -58.7911 H         1 UNK         0.0600 
    239 H239       -4.3608  -19.5588  -59.2081 H         1 UNK         0.0600 
    240 H240       -2.2793  -18.5681  -55.8187 H         1 UNK         0.3000 
    241 H241       -2.4164  -21.0537  -54.4391 H         1 UNK         0.0600 
    242 H242       -1.3002  -20.6015  -57.7034 H         1 UNK         0.3800 
    243 H243       -0.3735  -22.0768  -57.7794 H         1 UNK         0.3800 
    244 H244       -0.1773  -20.4501  -53.5483 H         1 UNK         0.0800 
    245 H245       -0.0303  -19.1624  -54.7124 H         1 UNK         0.0800 
    246 H246       -1.7071  -18.7461  -50.5930 H         1 UNK         0.0800 
    247 H247       -1.3350  -20.2928  -51.3133 H         1 UNK         0.0800 
@<TRIPOS>BOND
     1    1    2 1    
     2    1  127 1    
     3    1  128 1    
     4    1  129 1    
     5    2    3 2    
     6    2    4 am   BACKBONE|DICT|INTERRES
     7    4    5 1    
     8    4  130 1    
     9    5    6 1    
    10    5   65 1    
    11    5  131 1    
    12    6    7 1    
    13    6  132 1    
    14    6  133 1    
    15    7    8 1    
    16    8    9 1    
    17    8  134 1    
    18    8  135 1    
    19    9   10 ar   
    20    9   14 ar   
    21   10   11 ar   
    22   10  136 1    
    23   11   12 ar   
    24   11  126 1    
    25   12   13 ar   
    26   12  137 1    
    27   13   14 ar   
    28   13   15 1    
    29   14  138 1    
    30   15   16 1    
    31   15  139 1    
    32   15  140 1    
    33   16   17 1    
    34   17   18 1    
    35   17  141 1    
    36   17  142 1    
    37   18   19 1    
    38   18   67 1    
    39   18  143 1    
    40   19   20 am   BACKBONE|DICT|INTERRES
    41   19  144 1    
    42   20   21 2    
    43   20   22 1    
    44   22   23 1    
    45   22   24 1    
    46   22  145 1    
    47   23  146 1    
    48   23  147 1    
    49   23  148 1    
    50   24   25 am   BACKBONE|DICT|INTERRES
    51   24  149 1    
    52   25   26 2    
    53   25   27 1    
    54   27   28 1    
    55   27   29 1    
    56   27  150 1    
    57   28  151 1    
    58   28  152 1    
    59   28  153 1    
    60   29   30 am   BACKBONE|DICT|INTERRES
    61   29  154 1    
    62   30   31 2    
    63   30   32 1    
    64   32   33 1    
    65   32   34 1    
    66   32  155 1    
    67   33  156 1    
    68   33  157 1    
    69   33  158 1    
    70   34   35 am   BACKBONE|DICT|INTERRES
    71   34  159 1    
    72   35   36 2    
    73   35   37 1    
    74   37   38 1    
    75   37   39 1    
    76   37  160 1    
    77   38  161 1    
    78   38  162 1    
    79   38  163 1    
    80   39   40 am   BACKBONE|DICT|INTERRES
    81   39  164 1    
    82   40   41 2    
    83   40   42 1    
    84   42   43 1    
    85   42   44 1    
    86   42  165 1    
    87   43  166 1    
    88   43  167 1    
    89   43  168 1    
    90   44   45 am   BACKBONE|DICT|INTERRES
    91   44  169 1    
    92   45   46 2    
    93   45   47 1    
    94   47   48 1    
    95   47   49 1    
    96   47  170 1    
    97   48  171 1    
    98   48  172 1    
    99   48  173 1    
   100   49   50 am   BACKBONE|DICT|INTERRES
   101   49  174 1    
   102   50   51 2    
   103   50   52 1    
   104   52   53 1    
   105   52   54 1    
   106   52  175 1    
   107   53  176 1    
   108   53  177 1    
   109   53  178 1    
   110   54   55 am   BACKBONE|DICT|INTERRES
   111   54  179 1    
   112   55   56 2    
   113   55   57 1    
   114   57   58 1    
   115   57   59 1    
   116   57  180 1    
   117   58  181 1    
   118   58  182 1    
   119   58  183 1    
   120   59   60 am   BACKBONE|DICT|INTERRES
   121   59  184 1    
   122   60   61 2    
   123   60   62 1    
   124   62   63 1    
   125   62   64 1    
   126   62  185 1    
   127   63  186 1    
   128   63  187 1    
   129   63  188 1    
   130   64   65 am   BACKBONE|DICT|INTERRES
   131   64  189 1    
   132   65   66 2    
   133   67   68 2    
   134   67   69 am   BACKBONE|DICT|INTERRES
   135   69   70 1    
   136   69  190 1    
   137   70   71 1    
   138   70   72 1    
   139   70  191 1    
   140   71  192 1    
   141   71  193 1    
   142   71  194 1    
   143   72   73 2    
   144   72   74 am   BACKBONE|DICT|INTERRES
   145   74   75 1    
   146   74  195 1    
   147   75   76 1    
   148   75   77 1    
   149   75  196 1    
   150   76  197 1    
   151   76  198 1    
   152   76  199 1    
   153   77   78 2    
   154   77   79 am   BACKBONE|DICT|INTERRES
   155   79   80 1    
   156   79  200 1    
   157   80   81 1    
   158   80   82 1    
   159   80  201 1    
   160   81  202 1    
   161   81  203 1    
   162   81  204 1    
   163   82   83 2    
   164   82   84 am   BACKBONE|DICT|INTERRES
   165   84   85 1    
   166   84  205 1    
   167   85   86 1    
   168   85   87 1    
   169   85  206 1    
   170   86  207 1    
   171   86  208 1    
   172   86  209 1    
   173   87   88 2    
   174   87   89 am   BACKBONE|DICT|INTERRES
   175   89   90 1    
   176   89  210 1    
   177   90   91 1    
   178   90   92 1    
   179   90  211 1    
   180   91  212 1    
   181   91  213 1    
   182   91  214 1    
   183   92   93 2    
   184   92   94 am   BACKBONE|DICT|INTERRES
   185   94   95 1    
   186   94  215 1    
   187   95   96 1    
   188   95   97 1    
   189   95  216 1    
   190   96  217 1    
   191   96  218 1    
   192   96  219 1    
   193   97   98 2    
   194   97   99 am   BACKBONE|DICT|INTERRES
   195   99  100 1    
   196   99  220 1    
   197  100  101 1    
   198  100  102 1    
   199  100  221 1    
   200  101  222 1    
   201  101  223 1    
   202  101  224 1    
   203  102  103 2    
   204  102  104 am   BACKBONE|DICT|INTERRES
   205  104  105 1    
   206  104  225 1    
   207  105  106 1    
   208  105  107 1    
   209  105  226 1    
   210  106  227 1    
   211  106  228 1    
   212  106  229 1    
   213  107  108 2    
   214  107  109 am   BACKBONE|DICT|INTERRES
   215  109  110 1    
   216  109  230 1    
   217  110  111 1    
   218  110  112 1    
   219  110  231 1    
   220  111  232 1    
   221  111  233 1    
   222  111  234 1    
   223  112  113 2    
   224  112  114 am   BACKBONE|DICT|INTERRES
   225  114  115 1    
   226  114  235 1    
   227  115  116 1    
   228  115  117 1    
   229  115  236 1    
   230  116  237 1    
   231  116  238 1    
   232  116  239 1    
   233  117  118 2    
   234  117  119 am   BACKBONE|DICT|INTERRES
   235  119  120 1    
   236  119  240 1    
   237  120  121 1    
   238  120  124 1    
   239  120  241 1    
   240  121  122 am   BACKBONE|DICT|INTERRES
   241  121  123 2    
   242  122  242 1    
   243  122  243 1    
   244  124  125 1    
   245  124  244 1    
   246  124  245 1    
   247  125  126 1    
   248  126  246 1    
   249  126  247 1    
@<TRIPOS>SUBSTRUCTURE
     1 UNK         1 GROUP             0       ****    0 ROOT    
