@<TRIPOS>MOLECULE
3R540
247   249    1
SMALL
USER_CHARGES


@<TRIPOS>ATOM
      1 CA         -4.0794  -15.8133  -50.8968 C.3       0 UNK        -0.1800 
      2 C          -3.4686  -15.2442  -49.6247 C.2       0 UNK         0.5000 
      3 O          -4.1880  -15.0068  -48.6554 O.2       0 UNK        -0.5000 
      4 N          -2.1438  -15.0307  -49.6239 N.am      1 UNK        -0.5000 
      5 CA         -1.3697  -14.4004  -48.5424 C.3       1 UNK         0.1400 
      6 C6          0.1273  -14.2339  -48.9185 C.3       23 UNK        -0.0398 
      7 S7          1.0958  -15.7875  -48.9695 S.3       23 UNK        -0.2404 
      8 C8          1.1290  -16.1546  -50.7539 C.3       23 UNK        -0.0205 
      9 C9          1.8310  -17.4647  -51.1096 C.ar      23 UNK        -0.0193 
     10 C10         2.5224  -17.5419  -52.3208 C.ar      23 UNK        -0.1150 
     11 C11         3.1681  -18.7184  -52.7104 C.ar      23 UNK        -0.0193 
     12 C12         3.1211  -19.8322  -51.8666 C.ar      23 UNK        -0.1150 
     13 C13         2.4450  -19.7738  -50.6427 C.ar      23 UNK        -0.0193 
     14 C14         1.7914  -18.5924  -50.2762 C.ar      23 UNK        -0.1150 
     15 C15         2.4723  -20.9737  -49.7027 C.3       23 UNK        -0.0205 
     16 S16         1.1001  -22.1265  -50.0111 S.3       23 UNK        -0.2404 
     17 C17        -0.1341  -21.6535  -48.7500 C.3       23 UNK        -0.0398 
     18 CA         -0.4062  -22.8046  -47.7581 C.3       11 UNK         0.1400 
     19 N           0.7694  -23.1360  -46.9519 N.am      11 UNK        -0.5000 
     20 C           1.1660  -24.3847  -46.6733 C.2       10 UNK         0.5000 
     21 O           0.5936  -25.3953  -47.0816 O.2       10 UNK        -0.5000 
     22 CA          2.4022  -24.5344  -45.7661 C.3       10 UNK         0.1400 
     23 CB          3.6829  -24.5815  -46.6131 C.3       10 UNK        -0.1800 
     24 N           2.5270  -23.4689  -44.7699 N.am      10 UNK        -0.5000 
     25 C           1.6471  -23.2334  -43.7874 C.2       9 UNK         0.5000 
     26 O           0.6270  -23.8992  -43.6059 O.2       9 UNK        -0.5000 
     27 CA          1.9310  -22.0175  -42.8867 C.3       9 UNK         0.1400 
     28 CB          2.8379  -22.4199  -41.7146 C.3       9 UNK        -0.1800 
     29 N           2.5189  -20.8612  -43.5709 N.am      9 UNK        -0.5000 
     30 C           2.0429  -20.2366  -44.6569 C.2       8 UNK         0.5000 
     31 O           1.0876  -20.6480  -45.3194 O.2       8 UNK        -0.5000 
     32 CA          2.7490  -18.9176  -45.0365 C.3       8 UNK         0.1400 
     33 CB          2.1649  -18.2666  -46.3021 C.3       8 UNK        -0.1800 
     34 N           2.6799  -17.9415  -43.9488 N.am      8 UNK        -0.5000 
     35 C           3.4457  -17.9188  -42.8497 C.2       7 UNK         0.5000 
     36 O           4.3202  -18.7568  -42.6209 O.2       7 UNK        -0.5000 
     37 CA          3.1545  -16.7978  -41.8268 C.3       7 UNK         0.1400 
     38 CB          4.3975  -16.4000  -41.0035 C.3       7 UNK        -0.1800 
     39 N           2.5065  -15.6187  -42.4189 N.am      7 UNK        -0.5000 
     40 C           3.0201  -14.7710  -43.3259 C.2       6 UNK         0.5000 
     41 O           4.1639  -14.8517  -43.7741 O.2       6 UNK        -0.5000 
     42 CA          2.0876  -13.6600  -43.8474 C.3       6 UNK         0.1400 
     43 CB          1.6138  -13.9948  -45.2703 C.3       6 UNK        -0.1800 
     44 N           0.9121  -13.4517  -42.9980 N.am      6 UNK        -0.5000 
     45 C           0.8967  -12.7536  -41.8556 C.2       5 UNK         0.5000 
     46 O           1.8886  -12.1727  -41.4115 O.2       5 UNK        -0.5000 
     47 CA         -0.4462  -12.7005  -41.0857 C.3       5 UNK         0.1400 
     48 CB         -0.4363  -11.6593  -39.9515 C.3       5 UNK        -0.1800 
     49 N          -1.6080  -12.4428  -41.9446 N.am      5 UNK        -0.5000 
     50 C          -2.1856  -13.3259  -42.7683 C.2       4 UNK         0.5000 
     51 O          -1.7734  -14.4810  -42.9066 O.2       4 UNK        -0.5000 
     52 CA         -3.3944  -12.8196  -43.5777 C.3       4 UNK         0.1400 
     53 CB         -2.9936  -11.6572  -44.5037 C.3       4 UNK        -0.1800 
     54 N          -3.9213  -13.9009  -44.4044 N.am      4 UNK        -0.5000 
     55 C          -5.0588  -14.5745  -44.1901 C.2       3 UNK         0.5000 
     56 O          -5.8654  -14.2877  -43.3043 O.2       3 UNK        -0.5000 
     57 CA         -5.3530  -15.7749  -45.1163 C.3       3 UNK         0.1400 
     58 CB         -6.4108  -15.4026  -46.1661 C.3       3 UNK        -0.1800 
     59 N          -4.1540  -16.2662  -45.7980 N.am      3 UNK        -0.5000 
     60 C          -3.1979  -16.9947  -45.2015 C.2       2 UNK         0.5000 
     61 O          -3.3099  -17.4578  -44.0663 O.2       2 UNK        -0.5000 
     62 CA         -1.8921  -17.2453  -45.9842 C.3       2 UNK         0.1400 
     63 CB         -1.7861  -18.7129  -46.4158 C.3       2 UNK        -0.1800 
     64 N          -1.7218  -16.4041  -47.1674 N.am      2 UNK        -0.5000 
     65 C          -1.5422  -15.0765  -47.1641 C.2       1 UNK         0.5000 
     66 O          -1.5470  -14.3891  -46.1447 O.2       1 UNK        -0.5000 
     67 C          -1.6279  -22.5124  -46.8640 C.2       11 UNK         0.5000 
     68 O          -2.7575  -22.7131  -47.3129 O.2       11 UNK        -0.5000 
     69 N          -1.4081  -22.1048  -45.6040 N.am      12 UNK        -0.5000 
     70 CA         -2.4520  -21.9671  -44.5810 C.3       12 UNK         0.1400 
     71 CB         -1.8710  -21.3158  -43.3174 C.3       12 UNK        -0.1800 
     72 C          -3.1024  -23.3187  -44.2342 C.2       12 UNK         0.5000 
     73 O          -4.3138  -23.3769  -44.0259 O.2       12 UNK        -0.5000 
     74 N          -2.2993  -24.3925  -44.2607 N.am      13 UNK        -0.5000 
     75 CA         -2.7377  -25.7862  -44.1436 C.3       13 UNK         0.1400 
     76 CB         -1.4966  -26.6883  -44.0703 C.3       13 UNK        -0.1800 
     77 C          -3.6713  -26.2443  -45.2864 C.2       13 UNK         0.5000 
     78 O          -4.4396  -27.1872  -45.0966 O.2       13 UNK        -0.5000 
     79 N          -3.6106  -25.5544  -46.4336 N.am      14 UNK        -0.5000 
     80 CA         -4.4873  -25.7326  -47.5915 C.3       14 UNK         0.1400 
     81 CB         -3.6279  -25.6909  -48.8670 C.3       14 UNK        -0.1800 
     82 C          -5.6050  -24.6677  -47.6306 C.2       14 UNK         0.5000 
     83 O          -6.2020  -24.4577  -48.6868 O.2       14 UNK        -0.5000 
     84 N          -5.8540  -23.9865  -46.5001 N.am      15 UNK        -0.5000 
     85 CA         -6.8666  -22.9434  -46.2926 C.3       15 UNK         0.1400 
     86 CB         -8.2854  -23.5438  -46.3774 C.3       15 UNK        -0.1800 
     87 C          -6.6819  -21.7125  -47.2065 C.2       15 UNK         0.5000 
     88 O          -7.6646  -21.0691  -47.5766 O.2       15 UNK        -0.5000 
     89 N          -5.4219  -21.4254  -47.5685 N.am      16 UNK        -0.5000 
     90 CA         -4.9639  -20.3654  -48.4717 C.3       16 UNK         0.1400 
     91 CB         -5.3806  -18.9662  -47.9725 C.3       16 UNK        -0.1800 
     92 C          -5.3194  -20.5885  -49.9561 C.2       16 UNK         0.5000 
     93 O          -4.9788  -19.7403  -50.7818 O.2       16 UNK        -0.5000 
     94 N          -5.9100  -21.7412  -50.3084 N.am      17 UNK        -0.5000 
     95 CA         -6.2019  -22.1184  -51.6959 C.3       17 UNK         0.1400 
     96 CB         -7.0920  -23.3694  -51.7157 C.3       17 UNK        -0.1800 
     97 C          -4.9215  -22.3481  -52.5213 C.2       17 UNK         0.5000 
     98 O          -4.9065  -22.0646  -53.7182 O.2       17 UNK        -0.5000 
     99 N          -3.8606  -22.8142  -51.8483 N.am      18 UNK        -0.5000 
    100 CA        -2.5175  -22.9586  -52.4065 C.3       18 UNK         0.1400 
    101 CB        -1.7687  -24.0416  -51.6153 C.3       18 UNK        -0.1800 
    102 C         -1.7191  -21.6397  -52.4003 C.2       18 UNK         0.5000 
    103 O         -0.6934  -21.5689  -53.0723 O.2       18 UNK        -0.5000 
    104 N         -2.1713  -20.6292  -51.6410 N.am      19 UNK        -0.5000 
    105 CA        -1.5251  -19.3170  -51.5757 C.3       19 UNK         0.1400 
    106 CB        -1.8105  -18.6477  -50.2200 C.3       19 UNK        -0.1800 
    107 C         -1.9802  -18.4076  -52.7256 C.2       19 UNK         0.5000 
    108 O         -1.1806  -17.6110  -53.2167 O.2       19 UNK        -0.5000 
    109 N         -3.2532  -18.5403  -53.1274 N.am      20 UNK        -0.5000 
    110 CA        -3.9014  -17.8113  -54.2178 C.3       20 UNK         0.1400 
    111 CB        -5.3655  -18.2693  -54.3125 C.3       20 UNK        -0.1800 
    112 C         -3.1576  -17.9996  -55.5540 C.2       20 UNK         0.5000 
    113 O         -3.2580  -19.0644  -56.1674 O.2       20 UNK        -0.5000 
    114 N         -2.3625  -16.9856  -55.9290 N.am      21 UNK        -0.5000 
    115 CA        -1.4442  -16.9502  -57.0766 C.3       21 UNK         0.1400 
    116 CB        -2.2409  -16.8908  -58.3966 C.3       21 UNK        -0.1800 
    117 C         -0.3942  -18.0869  -57.0662 C.2       21 UNK         0.5000 
    118 O          0.0687  -18.5029  -58.1299 O.2       21 UNK        -0.5000 
    119 N         -0.0630  -18.5840  -55.8656 N.am      22 UNK        -0.5000 
    120 CA         0.7500  -19.7870  -55.6113 C.3       22 UNK         0.1400 
    121 C          0.1055  -21.1164  -56.1266 C.2       22 UNK         0.5000 
    122 N         -1.1911  -21.1682  -56.4165 N.am      22 UNK        -0.7600 
    123 O          0.7875  -22.1295  -56.2616 O.2       22 UNK        -0.5000 
    124 C124        2.2322  -19.6500  -56.0631 C.3       23 UNK        -0.0398 
    125 S125        3.0678  -18.1445  -55.4559 S.3       23 UNK        -0.2404 
    126 C126        3.9828  -18.7565  -53.9995 C.3       23 UNK        -0.0205 
    127 H127       -3.3388  -15.9038  -51.6905 H         1 UNK         0.0600 
    128 H128       -4.8769  -15.1612  -51.2527 H         1 UNK         0.0600 
    129 H129       -4.5059  -16.7984  -50.7080 H         1 UNK         0.0600 
    130 H130       -1.6200  -15.2408  -50.4598 H         1 UNK         0.3000 
    131 H131       -1.7827  -13.3953  -48.4340 H         1 UNK         0.0600 
    132 H132        0.6106  -13.5748  -48.1956 H         1 UNK         0.0800 
    133 H133        0.2169  -13.7184  -49.8756 H         1 UNK         0.0800 
    134 H134        1.6267  -15.3229  -51.2552 H         1 UNK         0.0800 
    135 H135        0.1148  -16.1862  -51.1488 H         1 UNK         0.0800 
    136 H136        2.5651  -16.6759  -52.9664 H         1 UNK         0.1150 
    137 H137        3.6347  -20.7408  -52.1481 H         1 UNK         0.1150 
    138 H138        1.2591  -18.5529  -49.3375 H         1 UNK         0.1150 
    139 H139        3.4082  -21.5171  -49.8404 H         1 UNK         0.0800 
    140 H140        2.4736  -20.6531  -48.6617 H         1 UNK         0.0800 
    141 H141       -1.0527  -21.4159  -49.2833 H         1 UNK         0.0800 
    142 H142        0.1754  -20.7472  -48.2280 H         1 UNK         0.0800 
    143 H143       -0.6858  -23.6748  -48.3555 H         1 UNK         0.0600 
    144 H144        1.2637  -22.3569  -46.5343 H         1 UNK         0.3000 
    145 H145        2.3069  -25.4823  -45.2322 H         1 UNK         0.0600 
    146 H146        4.5606  -24.7648  -45.9930 H         1 UNK         0.0600 
    147 H147        3.6339  -25.3840  -47.3503 H         1 UNK         0.0600 
    148 H148        3.8416  -23.6481  -47.1550 H         1 UNK         0.0600 
    149 H149        3.3303  -22.8627  -44.8472 H         1 UNK         0.3000 
    150 H150        0.9797  -21.6868  -42.4708 H         1 UNK         0.0600 
    151 H151        2.4161  -23.2617  -41.1636 H         1 UNK         0.0600 
    152 H152        2.9577  -21.5982  -41.0082 H         1 UNK         0.0600 
    153 H153        3.8306  -22.7148  -42.0572 H         1 UNK         0.0600 
    154 H154        3.3016  -20.4164  -43.1018 H         1 UNK         0.3000 
    155 H155        3.7954  -19.1567  -45.2366 H         1 UNK         0.0600 
    156 H156        1.1401  -17.9315  -46.1482 H         1 UNK         0.0600 
    157 H157        2.1630  -18.9627  -47.1388 H         1 UNK         0.0600 
    158 H158        2.7530  -17.4002  -46.6056 H         1 UNK         0.0600 
    159 H159        1.9677  -17.2328  -44.0349 H         1 UNK         0.3000 
    160 H160        2.4279  -17.2183  -41.1303 H         1 UNK         0.0600 
    161 H161        5.2125  -16.0523  -41.6385 H         1 UNK         0.0600 
    162 H162        4.7731  -17.2474  -40.4289 H         1 UNK         0.0600 
    163 H163        4.1629  -15.6071  -40.2933 H         1 UNK         0.0600 
    164 H164        1.5534  -15.4545  -42.1273 H         1 UNK         0.3000 
    165 H165        2.6645  -12.7338  -43.8876 H         1 UNK         0.0600 
    166 H166        1.0445  -14.9248  -45.2967 H         1 UNK         0.0600 
    167 H167        0.9809  -13.2025  -45.6700 H         1 UNK         0.0600 
    168 H168        2.4584  -14.1100  -45.9509 H         1 UNK         0.0600 
    169 H169        0.0486  -13.9063  -43.2813 H         1 UNK         0.3000 
    170 H170       -0.5763  -13.6818  -40.6246 H         1 UNK         0.0600 
    171 H171       -0.2925  -10.6485  -40.3353 H         1 UNK         0.0600 
    172 H172       -1.3717  -11.6762  -39.3918 H         1 UNK         0.0600 
    173 H173        0.3658  -11.8591  -39.2397 H         1 UNK         0.0600 
    174 H174       -1.9784  -11.5041  -41.9088 H         1 UNK         0.3000 
    175 H175       -4.1512  -12.4672  -42.8744 H         1 UNK         0.0600 
    176 H176       -2.1725  -11.9332  -45.1666 H         1 UNK         0.0600 
    177 H177       -3.8322  -11.3442  -45.1259 H         1 UNK         0.0600 
    178 H178       -2.6753  -10.7843  -43.9332 H         1 UNK         0.0600 
    179 H179       -3.2683  -14.2561  -45.0954 H         1 UNK         0.3000 
    180 H180       -5.7585  -16.5793  -44.4991 H         1 UNK         0.0600 
    181 H181       -6.6273  -16.2432  -46.8257 H         1 UNK         0.0600 
    182 H182       -6.0858  -14.5652  -46.7844 H         1 UNK         0.0600 
    183 H183       -7.3477  -15.1125  -45.6892 H         1 UNK         0.0600 
    184 H184       -3.9997  -15.9214  -46.7394 H         1 UNK         0.3000 
    185 H185       -1.0672  -17.0284  -45.3023 H         1 UNK         0.0600 
    186 H186       -2.5957  -18.9952  -47.0856 H         1 UNK         0.0600 
    187 H187       -0.8429  -18.9174  -46.9204 H         1 UNK         0.0600 
    188 H188       -1.8328  -19.3654  -45.5476 H         1 UNK         0.0600 
    189 H189       -1.7172  -16.8733  -48.0593 H         1 UNK         0.3000 
    190 H190       -0.4606  -21.8748  -45.3247 H         1 UNK         0.3000 
    191 H191       -3.2275  -21.3110  -44.9819 H         1 UNK         0.0600 
    192 H192       -2.6711  -21.0033  -42.6456 H         1 UNK         0.0600 
    193 H193       -1.2767  -20.4320  -43.5484 H         1 UNK         0.0600 
    194 H194       -1.2412  -22.0109  -42.7636 H         1 UNK         0.0600 
    195 H195       -1.3018  -24.2414  -44.3673 H         1 UNK         0.3000 
    196 H196       -3.2917  -25.8845  -43.2080 H         1 UNK         0.0600 
    197 H197       -0.8915  -26.6115  -44.9746 H         1 UNK         0.0600 
    198 H198       -0.8651  -26.4222  -43.2224 H         1 UNK         0.0600 
    199 H199       -1.7785  -27.7350  -43.9501 H         1 UNK         0.0600 
    200 H200       -2.9764  -24.7688  -46.4882 H         1 UNK         0.3000 
    201 H201       -4.9760  -26.7076  -47.5460 H         1 UNK         0.0600 
    202 H202       -3.1720  -24.7122  -49.0088 H         1 UNK         0.0600 
    203 H203       -4.2252  -25.9066  -49.7537 H         1 UNK         0.0600 
    204 H204       -2.8277  -26.4303  -48.8290 H         1 UNK         0.0600 
    205 H205       -5.2790  -24.1815  -45.6886 H         1 UNK         0.3000 
    206 H206       -6.7241  -22.5818  -45.2735 H         1 UNK         0.0600 
    207 H207       -8.3899  -24.4028  -45.7146 H         1 UNK         0.0600 
    208 H208       -9.0390  -22.8138  -46.0799 H         1 UNK         0.0600 
    209 H209       -8.5278  -23.8694  -47.3895 H         1 UNK         0.0600 
    210 H210       -4.6856  -22.0466  -47.2481 H         1 UNK         0.3000 
    211 H211       -3.8758  -20.4124  -48.4315 H         1 UNK         0.0600 
    212 H212       -4.8541  -18.1814  -48.5162 H         1 UNK         0.0600 
    213 H213       -5.1495  -18.8384  -46.9153 H         1 UNK         0.0600 
    214 H214       -6.4477  -18.7875  -48.1048 H         1 UNK         0.0600 
    215 H215       -6.1445  -22.4190  -49.5927 H         1 UNK         0.3000 
    216 H216       -6.7551  -21.2983  -52.1588 H         1 UNK         0.0600 
    217 H217       -6.5718  -24.2413  -51.3179 H         1 UNK         0.0600 
    218 H218       -7.4002  -23.6103  -52.7338 H         1 UNK         0.0600 
    219 H219       -7.9975  -23.2210  -51.1271 H         1 UNK         0.0600 
    220 H220       -3.9768  -23.0396  -50.8715 H         1 UNK         0.3000 
    221 H221       -2.5956  -23.2896  -53.4444 H         1 UNK         0.0600 
    222 H222       -2.2995  -24.9933  -51.6442 H         1 UNK         0.0600 
    223 H223       -1.6393  -23.7570  -50.5719 H         1 UNK         0.0600 
    224 H224       -0.7745  -24.2116  -52.0309 H         1 UNK         0.0600 
    225 H225       -3.0611  -20.7251  -51.1736 H         1 UNK         0.3000 
    226 H226       -0.4453  -19.4471  -51.6664 H         1 UNK         0.0600 
    227 H227       -2.8725  -18.4738  -50.0615 H         1 UNK         0.0600 
    228 H228       -1.4414  -19.2394  -49.3877 H         1 UNK         0.0600 
    229 H229       -1.3136  -17.6825  -50.1566 H         1 UNK         0.0600 
    230 H230       -3.8376  -19.2017  -52.6330 H         1 UNK         0.3000 
    231 H231       -3.8984  -16.7502  -53.9620 H         1 UNK         0.0600 
    232 H232       -5.4410  -19.3386  -54.5151 H         1 UNK         0.0600 
    233 H233       -5.8885  -17.7444  -55.1128 H         1 UNK         0.0600 
    234 H234       -5.9016  -18.0679  -53.3845 H         1 UNK         0.0600 
    235 H235       -2.3037  -16.1856  -55.3141 H         1 UNK         0.3000 
    236 H236       -0.8800  -16.0208  -56.9885 H         1 UNK         0.0600 
    237 H237       -2.9648  -16.0761  -58.3840 H         1 UNK         0.0600 
    238 H238       -1.5801  -16.7214  -59.2474 H         1 UNK         0.0600 
    239 H239       -2.7829  -17.8185  -58.5829 H         1 UNK         0.0600 
    240 H240       -0.4820  -18.1650  -55.0418 H         1 UNK         0.3000 
    241 H241        0.7652  -19.8880  -54.5260 H         1 UNK         0.0600 
    242 H242       -1.5843  -22.0352  -56.7440 H         1 UNK         0.3800 
    243 H243       -1.7927  -20.3572  -56.3110 H         1 UNK         0.3800 
    244 H244        2.2922  -19.6442  -57.1522 H         1 UNK         0.0800 
    245 H245        2.8067  -20.5204  -55.7433 H         1 UNK         0.0800 
    246 H246        4.3666  -19.7587  -54.1947 H         1 UNK         0.0800 
    247 H247        4.8591  -18.1225  -53.8590 H         1 UNK         0.0800 
@<TRIPOS>BOND
     1    1    2 1    
     2    1  127 1    
     3    1  128 1    
     4    1  129 1    
     5    2    3 2    
     6    2    4 am   BACKBONE|DICT|INTERRES
     7    4    5 1    
     8    4  130 1    
     9    5    6 1    
    10    5   65 1    
    11    5  131 1    
    12    6    7 1    
    13    6  132 1    
    14    6  133 1    
    15    7    8 1    
    16    8    9 1    
    17    8  134 1    
    18    8  135 1    
    19    9   10 ar   
    20    9   14 ar   
    21   10   11 ar   
    22   10  136 1    
    23   11   12 ar   
    24   11  126 1    
    25   12   13 ar   
    26   12  137 1    
    27   13   14 ar   
    28   13   15 1    
    29   14  138 1    
    30   15   16 1    
    31   15  139 1    
    32   15  140 1    
    33   16   17 1    
    34   17   18 1    
    35   17  141 1    
    36   17  142 1    
    37   18   19 1    
    38   18   67 1    
    39   18  143 1    
    40   19   20 am   BACKBONE|DICT|INTERRES
    41   19  144 1    
    42   20   21 2    
    43   20   22 1    
    44   22   23 1    
    45   22   24 1    
    46   22  145 1    
    47   23  146 1    
    48   23  147 1    
    49   23  148 1    
    50   24   25 am   BACKBONE|DICT|INTERRES
    51   24  149 1    
    52   25   26 2    
    53   25   27 1    
    54   27   28 1    
    55   27   29 1    
    56   27  150 1    
    57   28  151 1    
    58   28  152 1    
    59   28  153 1    
    60   29   30 am   BACKBONE|DICT|INTERRES
    61   29  154 1    
    62   30   31 2    
    63   30   32 1    
    64   32   33 1    
    65   32   34 1    
    66   32  155 1    
    67   33  156 1    
    68   33  157 1    
    69   33  158 1    
    70   34   35 am   BACKBONE|DICT|INTERRES
    71   34  159 1    
    72   35   36 2    
    73   35   37 1    
    74   37   38 1    
    75   37   39 1    
    76   37  160 1    
    77   38  161 1    
    78   38  162 1    
    79   38  163 1    
    80   39   40 am   BACKBONE|DICT|INTERRES
    81   39  164 1    
    82   40   41 2    
    83   40   42 1    
    84   42   43 1    
    85   42   44 1    
    86   42  165 1    
    87   43  166 1    
    88   43  167 1    
    89   43  168 1    
    90   44   45 am   BACKBONE|DICT|INTERRES
    91   44  169 1    
    92   45   46 2    
    93   45   47 1    
    94   47   48 1    
    95   47   49 1    
    96   47  170 1    
    97   48  171 1    
    98   48  172 1    
    99   48  173 1    
   100   49   50 am   BACKBONE|DICT|INTERRES
   101   49  174 1    
   102   50   51 2    
   103   50   52 1    
   104   52   53 1    
   105   52   54 1    
   106   52  175 1    
   107   53  176 1    
   108   53  177 1    
   109   53  178 1    
   110   54   55 am   BACKBONE|DICT|INTERRES
   111   54  179 1    
   112   55   56 2    
   113   55   57 1    
   114   57   58 1    
   115   57   59 1    
   116   57  180 1    
   117   58  181 1    
   118   58  182 1    
   119   58  183 1    
   120   59   60 am   BACKBONE|DICT|INTERRES
   121   59  184 1    
   122   60   61 2    
   123   60   62 1    
   124   62   63 1    
   125   62   64 1    
   126   62  185 1    
   127   63  186 1    
   128   63  187 1    
   129   63  188 1    
   130   64   65 am   BACKBONE|DICT|INTERRES
   131   64  189 1    
   132   65   66 2    
   133   67   68 2    
   134   67   69 am   BACKBONE|DICT|INTERRES
   135   69   70 1    
   136   69  190 1    
   137   70   71 1    
   138   70   72 1    
   139   70  191 1    
   140   71  192 1    
   141   71  193 1    
   142   71  194 1    
   143   72   73 2    
   144   72   74 am   BACKBONE|DICT|INTERRES
   145   74   75 1    
   146   74  195 1    
   147   75   76 1    
   148   75   77 1    
   149   75  196 1    
   150   76  197 1    
   151   76  198 1    
   152   76  199 1    
   153   77   78 2    
   154   77   79 am   BACKBONE|DICT|INTERRES
   155   79   80 1    
   156   79  200 1    
   157   80   81 1    
   158   80   82 1    
   159   80  201 1    
   160   81  202 1    
   161   81  203 1    
   162   81  204 1    
   163   82   83 2    
   164   82   84 am   BACKBONE|DICT|INTERRES
   165   84   85 1    
   166   84  205 1    
   167   85   86 1    
   168   85   87 1    
   169   85  206 1    
   170   86  207 1    
   171   86  208 1    
   172   86  209 1    
   173   87   88 2    
   174   87   89 am   BACKBONE|DICT|INTERRES
   175   89   90 1    
   176   89  210 1    
   177   90   91 1    
   178   90   92 1    
   179   90  211 1    
   180   91  212 1    
   181   91  213 1    
   182   91  214 1    
   183   92   93 2    
   184   92   94 am   BACKBONE|DICT|INTERRES
   185   94   95 1    
   186   94  215 1    
   187   95   96 1    
   188   95   97 1    
   189   95  216 1    
   190   96  217 1    
   191   96  218 1    
   192   96  219 1    
   193   97   98 2    
   194   97   99 am   BACKBONE|DICT|INTERRES
   195   99  100 1    
   196   99  220 1    
   197  100  101 1    
   198  100  102 1    
   199  100  221 1    
   200  101  222 1    
   201  101  223 1    
   202  101  224 1    
   203  102  103 2    
   204  102  104 am   BACKBONE|DICT|INTERRES
   205  104  105 1    
   206  104  225 1    
   207  105  106 1    
   208  105  107 1    
   209  105  226 1    
   210  106  227 1    
   211  106  228 1    
   212  106  229 1    
   213  107  108 2    
   214  107  109 am   BACKBONE|DICT|INTERRES
   215  109  110 1    
   216  109  230 1    
   217  110  111 1    
   218  110  112 1    
   219  110  231 1    
   220  111  232 1    
   221  111  233 1    
   222  111  234 1    
   223  112  113 2    
   224  112  114 am   BACKBONE|DICT|INTERRES
   225  114  115 1    
   226  114  235 1    
   227  115  116 1    
   228  115  117 1    
   229  115  236 1    
   230  116  237 1    
   231  116  238 1    
   232  116  239 1    
   233  117  118 2    
   234  117  119 am   BACKBONE|DICT|INTERRES
   235  119  120 1    
   236  119  240 1    
   237  120  121 1    
   238  120  124 1    
   239  120  241 1    
   240  121  122 am   BACKBONE|DICT|INTERRES
   241  121  123 2    
   242  122  242 1    
   243  122  243 1    
   244  124  125 1    
   245  124  244 1    
   246  124  245 1    
   247  125  126 1    
   248  126  246 1    
   249  126  247 1    
@<TRIPOS>SUBSTRUCTURE
     1 UNK         1 GROUP             0       ****    0 ROOT    
