@<TRIPOS>MOLECULE
3R540
247   249    1
SMALL
USER_CHARGES


@<TRIPOS>ATOM
      1 CA          6.9177  -17.5465  -45.7240 C.3       0 UNK        -0.1800 
      2 C           5.7279  -17.4816  -46.6714 C.2       0 UNK         0.5000 
      3 O           5.7964  -18.0151  -47.7782 O.2       0 UNK        -0.5000 
      4 N           4.6430  -16.8289  -46.2439 N.am      1 UNK        -0.5000 
      5 CA          3.4102  -16.6548  -47.0024 C.3       1 UNK         0.1400 
      6 C6          3.5986  -15.6717  -48.1958 C.3       23 UNK        -0.0398 
      7 S7          2.0972  -14.8990  -48.8983 S.3       23 UNK        -0.2404 
      8 C8          1.6931  -16.0228  -50.2686 C.3       23 UNK        -0.0205 
      9 C9          0.9839  -17.2664  -49.7629 C.ar      23 UNK        -0.0193 
     10 C10        -0.4031  -17.2590  -49.5917 C.ar      23 UNK        -0.1150 
     11 C11        -1.0654  -18.3949  -49.1200 C.ar      23 UNK        -0.0193 
     12 C12        -0.3268  -19.5419  -48.8239 C.ar      23 UNK        -0.1150 
     13 C13         1.0624  -19.5612  -48.9798 C.ar      23 UNK        -0.0193 
     14 C14         1.7098  -18.4223  -49.4640 C.ar      23 UNK        -0.1150 
     15 C15         1.8568  -20.8262  -48.6864 C.3       23 UNK        -0.0205 
     16 S16         2.4891  -20.9278  -46.9752 S.3       23 UNK        -0.2404 
     17 C17         0.9987  -20.9638  -45.9182 C.3       23 UNK        -0.0398 
     18 CA          0.3343  -22.3618  -45.7505 C.3       11 UNK         0.1400 
     19 N          -0.1591  -22.5737  -44.3828 N.am      11 UNK        -0.5000 
     20 C          -0.7350  -23.7019  -43.9323 C.2       10 UNK         0.5000 
     21 O          -0.8122  -24.7366  -44.5957 O.2       10 UNK        -0.5000 
     22 CA         -1.3735  -23.6709  -42.5259 C.3       10 UNK         0.1400 
     23 CB         -0.4500  -24.3529  -41.5050 C.3       10 UNK        -0.1800 
     24 N          -1.7044  -22.3306  -42.0355 N.am      10 UNK        -0.5000 
     25 C          -2.5011  -21.4355  -42.6380 C.2       9 UNK         0.5000 
     26 O          -3.1272  -21.6696  -43.6704 O.2       9 UNK        -0.5000 
     27 CA         -2.5579  -20.0201  -42.0259 C.3       9 UNK         0.1400 
     28 CB         -3.8622  -19.8304  -41.2374 C.3       9 UNK        -0.1800 
     29 N          -1.4217  -19.6767  -41.1602 N.am      9 UNK        -0.5000 
     30 C          -0.1310  -19.6855  -41.5214 C.2       8 UNK         0.5000 
     31 O           0.2639  -20.0344  -42.6376 O.2       8 UNK        -0.5000 
     32 CA          0.8803  -19.3161  -40.4196 C.3       8 UNK         0.1400 
     33 CB          1.0492  -20.4872  -39.4376 C.3       8 UNK        -0.1800 
     34 N           2.1909  -18.9856  -40.9751 N.am      8 UNK        -0.5000 
     35 C           2.4643  -17.8751  -41.6670 C.2       7 UNK         0.5000 
     36 O           1.6694  -16.9424  -41.8187 O.2       7 UNK        -0.5000 
     37 CA          3.8586  -17.8149  -42.3068 C.3       7 UNK         0.1400 
     38 CB          3.9475  -18.7803  -43.5016 C.3       7 UNK        -0.1800 
     39 N           4.1034  -16.4509  -42.7610 N.am      7 UNK        -0.5000 
     40 C           5.1856  -15.7124  -42.4908 C.2       6 UNK         0.5000 
     41 O           6.1992  -16.1539  -41.9494 O.2       6 UNK        -0.5000 
     42 CA          5.1241  -14.2248  -42.8864 C.3       6 UNK         0.1400 
     43 CB          5.9121  -13.9660  -44.1806 C.3       6 UNK        -0.1800 
     44 N           3.7478  -13.7703  -43.0792 N.am      6 UNK        -0.5000 
     45 C           2.9486  -13.2828  -42.1213 C.2       5 UNK         0.5000 
     46 O           3.3101  -13.1130  -40.9556 O.2       5 UNK        -0.5000 
     47 CA          1.5011  -12.9434  -42.5442 C.3       5 UNK         0.1400 
     48 CB          0.8594  -11.8424  -41.6749 C.3       5 UNK        -0.1800 
     49 N           1.3781  -12.6304  -43.9733 N.am      5 UNK        -0.5000 
     50 C           1.9414  -11.6130  -44.6451 C.2       4 UNK         0.5000 
     51 O           2.5808  -10.7066  -44.1105 O.2       4 UNK        -0.5000 
     52 CA          1.8120  -11.6306  -46.1819 C.3       4 UNK         0.1400 
     53 CB          3.1744  -11.9499  -46.8186 C.3       4 UNK        -0.1800 
     54 N           0.8390  -12.6143  -46.6581 N.am      4 UNK        -0.5000 
     55 C          -0.4848  -12.4207  -46.7214 C.2       3 UNK         0.5000 
     56 O          -1.0349  -11.3519  -46.4554 O.2       3 UNK        -0.5000 
     57 CA         -1.3390  -13.6433  -47.1118 C.3       3 UNK         0.1400 
     58 CB         -1.5893  -13.6811  -48.6270 C.3       3 UNK        -0.1800 
     59 N          -0.7454  -14.9134  -46.6804 N.am      3 UNK        -0.5000 
     60 C          -0.6465  -15.2986  -45.3998 C.2       2 UNK         0.5000 
     61 O          -1.0437  -14.6227  -44.4517 O.2       2 UNK        -0.5000 
     62 CA          0.0459  -16.6432  -45.1264 C.3       2 UNK         0.1400 
     63 CB         -0.9688  -17.7935  -45.1945 C.3       2 UNK        -0.1800 
     64 N           1.1686  -16.9050  -46.0313 N.am      2 UNK        -0.5000 
     65 C           2.3299  -16.2371  -45.9927 C.2       1 UNK         0.5000 
     66 O           2.5735  -15.3281  -45.1941 O.2       1 UNK        -0.5000 
     67 C          -0.7809  -22.5513  -46.8045 C.2       11 UNK         0.5000 
     68 O          -0.5049  -23.0571  -47.8905 O.2       11 UNK        -0.5000 
     69 N          -2.0188  -22.1413  -46.4754 N.am      12 UNK        -0.5000 
     70 CA         -3.1677  -22.0580  -47.3867 C.3       12 UNK         0.1400 
     71 CB         -4.3916  -21.5523  -46.6128 C.3       12 UNK        -0.1800 
     72 C          -3.5046  -23.3566  -48.1398 C.2       12 UNK         0.5000 
     73 O          -3.9641  -23.2879  -49.2790 O.2       12 UNK        -0.5000 
     74 N          -3.2081  -24.5081  -47.5220 N.am      13 UNK        -0.5000 
     75 CA         -3.3454  -25.8461  -48.1008 C.3       13 UNK         0.1400 
     76 CB         -3.0116  -26.8837  -47.0180 C.3       13 UNK        -0.1800 
     77 C          -2.4897  -26.0882  -49.3641 C.2       13 UNK         0.5000 
     78 O          -2.8051  -26.9966  -50.1337 O.2       13 UNK        -0.5000 
     79 N          -1.4407  -25.2776  -49.5729 N.am      14 UNK        -0.5000 
     80 CA         -0.6153  -25.2852  -50.7818 C.3       14 UNK         0.1400 
     81 CB          0.7052  -24.5533  -50.4951 C.3       14 UNK        -0.1800 
     82 C          -1.3149  -24.6535  -52.0031 C.2       14 UNK         0.5000 
     83 O          -0.8505  -24.8696  -53.1231 O.2       14 UNK        -0.5000 
     84 N          -2.3951  -23.8853  -51.7747 N.am      15 UNK        -0.5000 
     85 CA         -3.2054  -23.1770  -52.7736 C.3       15 UNK         0.1400 
     86 CB         -3.9563  -24.1852  -53.6684 C.3       15 UNK        -0.1800 
     87 C          -2.3878  -22.1483  -53.5850 C.2       15 UNK         0.5000 
     88 O          -2.5400  -22.0488  -54.8043 O.2       15 UNK        -0.5000 
     89 N          -1.5007  -21.4204  -52.8904 N.am      16 UNK        -0.5000 
     90 CA         -0.5143  -20.5115  -53.4813 C.3       16 UNK         0.1400 
     91 CB          0.4493  -20.0373  -52.3881 C.3       16 UNK        -0.1800 
     92 C          -1.1298  -19.3035  -54.2109 C.2       16 UNK         0.5000 
     93 O          -0.5647  -18.8467  -55.2046 O.2       16 UNK        -0.5000 
     94 N          -2.2921  -18.8362  -53.7368 N.am      17 UNK        -0.5000 
     95 CA         -3.0788  -17.7629  -54.3493 C.3       17 UNK         0.1400 
     96 CB         -3.6826  -16.8840  -53.2403 C.3       17 UNK        -0.1800 
     97 C          -4.1439  -18.3185  -55.3213 C.2       17 UNK         0.5000 
     98 O          -5.2351  -17.7561  -55.4249 O.2       17 UNK        -0.5000 
     99 N          -3.8148  -19.4258  -56.0029 N.am      18 UNK        -0.5000 
    100 CA        -4.5730  -20.1748  -57.0143 C.3       18 UNK         0.1400 
    101 CB        -4.9356  -19.2896  -58.2219 C.3       18 UNK        -0.1800 
    102 C         -5.8085  -20.9213  -56.4765 C.2       18 UNK         0.5000 
    103 O         -6.0306  -22.0710  -56.8595 O.2       18 UNK        -0.5000 
    104 N         -6.5875  -20.2718  -55.6052 N.am      19 UNK        -0.5000 
    105 CA        -7.7194  -20.8580  -54.8919 C.3       19 UNK         0.1400 
    106 CB        -8.5151  -19.7335  -54.2169 C.3       19 UNK        -0.1800 
    107 C         -7.2477  -21.8965  -53.8583 C.2       19 UNK         0.5000 
    108 O         -6.2067  -21.6972  -53.2279 O.2       19 UNK        -0.5000 
    109 N         -8.0398  -22.9643  -53.6882 N.am      20 UNK        -0.5000 
    110 CA        -7.7237  -24.1791  -52.9230 C.3       20 UNK         0.1400 
    111 CB        -8.9150  -25.1449  -53.0215 C.3       20 UNK        -0.1800 
    112 C         -7.3295  -23.9731  -51.4458 C.2       20 UNK         0.5000 
    113 O         -6.6291  -24.8183  -50.8887 O.2       20 UNK        -0.5000 
    114 N         -7.7838  -22.8671  -50.8481 N.am      21 UNK        -0.5000 
    115 CA        -7.4320  -22.4312  -49.4975 C.3       21 UNK         0.1400 
    116 CB        -8.5735  -22.7960  -48.5307 C.3       21 UNK        -0.1800 
    117 C         -7.0935  -20.9277  -49.4865 C.2       21 UNK         0.5000 
    118 O         -7.3473  -20.2537  -48.4881 O.2       21 UNK        -0.5000 
    119 N         -6.5683  -20.4165  -50.6099 N.am      22 UNK        -0.5000 
    120 CA        -6.2477  -19.0000  -50.8700 C.3       22 UNK         0.1400 
    121 C         -7.4730  -18.0310  -50.9237 C.2       22 UNK         0.5000 
    122 N         -8.7122  -18.5012  -50.8521 N.am      22 UNK        -0.7600 
    123 O         -7.3011  -16.8252  -51.0783 O.2       22 UNK        -0.5000 
    124 C124       -5.1183  -18.4429  -49.9563 C.3       23 UNK        -0.0398 
    125 S125       -3.4845  -19.2034  -50.2399 S.3       23 UNK        -0.2404 
    126 C126       -2.5702  -18.3703  -48.9027 C.3       23 UNK        -0.0205 
    127 H127        7.1582  -18.5846  -45.4947 H         1 UNK         0.0600 
    128 H128        6.7202  -17.0289  -44.7856 H         1 UNK         0.0600 
    129 H129        7.7910  -17.0870  -46.1869 H         1 UNK         0.0600 
    130 H130        4.6157  -16.4271  -45.3171 H         1 UNK         0.3000 
    131 H131        3.1339  -17.6357  -47.3869 H         1 UNK         0.0600 
    132 H132        4.1504  -16.1675  -48.9950 H         1 UNK         0.0800 
    133 H133        4.2380  -14.8459  -47.8804 H         1 UNK         0.0800 
    134 H134        1.0489  -15.4968  -50.9748 H         1 UNK         0.0800 
    135 H135        2.5955  -16.2870  -50.8219 H         1 UNK         0.0800 
    136 H136       -0.9664  -16.3681  -49.8291 H         1 UNK         0.1150 
    137 H137       -0.8409  -20.4244  -48.4856 H         1 UNK         0.1150 
    138 H138        2.7811  -18.4365  -49.6088 H         1 UNK         0.1150 
    139 H139        1.2661  -21.7069  -48.9230 H         1 UNK         0.0800 
    140 H140        2.7125  -20.8730  -49.3615 H         1 UNK         0.0800 
    141 H141        0.2906  -20.2081  -46.2533 H         1 UNK         0.0800 
    142 H142        1.3452  -20.6066  -44.9481 H         1 UNK         0.0800 
    143 H143        1.0867  -23.1328  -45.9286 H         1 UNK         0.0600 
    144 H144       -0.1151  -21.7740  -43.7598 H         1 UNK         0.3000 
    145 H145       -2.3048  -24.2378  -42.5821 H         1 UNK         0.0600 
    146 H146       -0.9260  -24.4244  -40.5269 H         1 UNK         0.0600 
    147 H147       -0.2015  -25.3679  -41.8180 H         1 UNK         0.0600 
    148 H148        0.4870  -23.8075  -41.3846 H         1 UNK         0.0600 
    149 H149       -1.2283  -22.0354  -41.1967 H         1 UNK         0.3000 
    150 H150       -2.5571  -19.3144  -42.8587 H         1 UNK         0.0600 
    151 H151       -3.9062  -20.4891  -40.3692 H         1 UNK         0.0600 
    152 H152       -4.7313  -20.0488  -41.8597 H         1 UNK         0.0600 
    153 H153       -3.9667  -18.8033  -40.8872 H         1 UNK         0.0600 
    154 H154       -1.6562  -19.4001  -40.2175 H         1 UNK         0.3000 
    155 H155        0.5015  -18.4477  -39.8763 H         1 UNK         0.0600 
    156 H156        1.4118  -21.3853  -39.9398 H         1 UNK         0.0600 
    157 H157        0.1042  -20.7399  -38.9554 H         1 UNK         0.0600 
    158 H158        1.7561  -20.2382  -38.6458 H         1 UNK         0.0600 
    159 H159        2.8879  -19.7140  -40.9286 H         1 UNK         0.3000 
    160 H160        4.5905  -18.1046  -41.5498 H         1 UNK         0.0600 
    161 H161        3.7693  -19.8106  -43.1918 H         1 UNK         0.0600 
    162 H162        4.9364  -18.7529  -43.9562 H         1 UNK         0.0600 
    163 H163        3.2113  -18.5442  -44.2702 H         1 UNK         0.0600 
    164 H164        3.2873  -15.9828  -43.1376 H         1 UNK         0.3000 
    165 H165        5.5910  -13.6505  -42.0835 H         1 UNK         0.0600 
    166 H166        5.9640  -12.8988  -44.3972 H         1 UNK         0.0600 
    167 H167        6.9369  -14.3304  -44.0982 H         1 UNK         0.0600 
    168 H168        5.4549  -14.4537  -45.0408 H         1 UNK         0.0600 
    169 H169        3.3390  -13.9460  -43.9912 H         1 UNK         0.3000 
    170 H170        0.9265  -13.8581  -42.3903 H         1 UNK         0.0600 
    171 H171        0.8050  -12.1518  -40.6306 H         1 UNK         0.0600 
    172 H172        1.4281  -10.9130  -41.7096 H         1 UNK         0.0600 
    173 H173       -0.1582  -11.6270  -42.0012 H         1 UNK         0.0600 
    174 H174        0.8602  -13.3115  -44.5121 H         1 UNK         0.3000 
    175 H175        1.5050  -10.6334  -46.5041 H         1 UNK         0.0600 
    176 H176        3.9216  -11.2060  -46.5397 H         1 UNK         0.0600 
    177 H177        3.5478  -12.9233  -46.4987 H         1 UNK         0.0600 
    178 H178        3.1119  -11.9542  -47.9070 H         1 UNK         0.0600 
    179 H179        1.2046  -13.5194  -46.9185 H         1 UNK         0.3000 
    180 H180       -2.3060  -13.5370  -46.6153 H         1 UNK         0.0600 
    181 H181       -0.6645  -13.8087  -49.1894 H         1 UNK         0.0600 
    182 H182       -2.0524  -12.7542  -48.9676 H         1 UNK         0.0600 
    183 H183       -2.2631  -14.4950  -48.8945 H         1 UNK         0.0600 
    184 H184       -0.3700  -15.5130  -47.4005 H         1 UNK         0.3000 
    185 H185        0.4328  -16.6027  -44.1070 H         1 UNK         0.0600 
    186 H186       -1.8633  -17.5634  -44.6142 H         1 UNK         0.0600 
    187 H187       -1.2841  -17.9976  -46.2166 H         1 UNK         0.0600 
    188 H188       -0.5502  -18.7060  -44.7756 H         1 UNK         0.0600 
    189 H189        1.0379  -17.6309  -46.7213 H         1 UNK         0.3000 
    190 H190       -2.1894  -21.8208  -45.5282 H         1 UNK         0.3000 
    191 H191       -2.9235  -21.3158  -48.1461 H         1 UNK         0.0600 
    192 H192       -4.1992  -20.5807  -46.1574 H         1 UNK         0.0600 
    193 H193       -5.2497  -21.4353  -47.2720 H         1 UNK         0.0600 
    194 H194       -4.6805  -22.2451  -45.8218 H         1 UNK         0.0600 
    195 H195       -2.7889  -24.4571  -46.6042 H         1 UNK         0.3000 
    196 H196       -4.3903  -25.9733  -48.3911 H         1 UNK         0.0600 
    197 H197       -3.1247  -27.8995  -47.3992 H         1 UNK         0.0600 
    198 H198       -3.6745  -26.7850  -46.1583 H         1 UNK         0.0600 
    199 H199       -1.9851  -26.7769  -46.6643 H         1 UNK         0.0600 
    200 H200       -1.2301  -24.5522  -48.8923 H         1 UNK         0.3000 
    201 H201       -0.3815  -26.3220  -51.0323 H         1 UNK         0.0600 
    202 H202        1.3952  -24.6514  -51.3340 H         1 UNK         0.0600 
    203 H203        1.2030  -24.9582  -49.6138 H         1 UNK         0.0600 
    204 H204        0.5428  -23.4880  -50.3316 H         1 UNK         0.0600 
    205 H205       -2.7181  -23.7846  -50.8177 H         1 UNK         0.3000 
    206 H206       -3.9477  -22.6090  -52.2116 H         1 UNK         0.0600 
    207 H207       -4.5187  -24.8980  -53.0659 H         1 UNK         0.0600 
    208 H208       -4.6636  -23.6761  -54.3236 H         1 UNK         0.0600 
    209 H209       -3.2753  -24.7502  -54.3051 H         1 UNK         0.0600 
    210 H210       -1.4433  -21.5611  -51.8926 H         1 UNK         0.3000 
    211 H211        0.0585  -21.0825  -54.2149 H         1 UNK         0.0600 
    212 H212        0.9164  -20.8762  -51.8718 H         1 UNK         0.0600 
    213 H213       -0.0723  -19.4309  -51.6495 H         1 UNK         0.0600 
    214 H214        1.2487  -19.4245  -52.8064 H         1 UNK         0.0600 
    215 H215       -2.6927  -19.2845  -52.9245 H         1 UNK         0.3000 
    216 H216       -2.4221  -17.1230  -54.9420 H         1 UNK         0.0600 
    217 H217       -4.1691  -16.0028  -53.6601 H         1 UNK         0.0600 
    218 H218       -2.9146  -16.5327  -52.5507 H         1 UNK         0.0600 
    219 H219       -4.4294  -17.4229  -52.6621 H         1 UNK         0.0600 
    220 H220       -2.9233  -19.8441  -55.7719 H         1 UNK         0.3000 
    221 H221       -3.8850  -20.9428  -57.3719 H         1 UNK         0.0600 
    222 H222       -5.6424  -18.5034  -57.9558 H         1 UNK         0.0600 
    223 H223       -4.0492  -18.8162  -58.6441 H         1 UNK         0.0600 
    224 H224       -5.3949  -19.8834  -59.0130 H         1 UNK         0.0600 
    225 H225       -6.3160  -19.3263  -55.3536 H         1 UNK         0.3000 
    226 H226       -8.3653  -21.3536  -55.6196 H         1 UNK         0.0600 
    227 H227       -9.3328  -20.1298  -53.6137 H         1 UNK         0.0600 
    228 H228       -7.8797  -19.1352  -53.5656 H         1 UNK         0.0600 
    229 H229       -8.9520  -19.0637  -54.9576 H         1 UNK         0.0600 
    230 H230       -8.8919  -23.0092  -54.2285 H         1 UNK         0.3000 
    231 H231       -6.8724  -24.6504  -53.4157 H         1 UNK         0.0600 
    232 H232       -9.8178  -24.7136  -52.5872 H         1 UNK         0.0600 
    233 H233       -8.7097  -26.0769  -52.4928 H         1 UNK         0.0600 
    234 H234       -9.1301  -25.4043  -54.0583 H         1 UNK         0.0600 
    235 H235       -8.3602  -22.2387  -51.3884 H         1 UNK         0.3000 
    236 H236       -6.5311  -22.9455  -49.1621 H         1 UNK         0.0600 
    237 H237       -8.7772  -23.8668  -48.5501 H         1 UNK         0.0600 
    238 H238       -8.3177  -22.5358  -47.5029 H         1 UNK         0.0600 
    239 H239       -9.4966  -22.2741  -48.7851 H         1 UNK         0.0600 
    240 H240       -6.3824  -21.0429  -51.3881 H         1 UNK         0.3000 
    241 H241       -5.8710  -18.9983  -51.8924 H         1 UNK         0.0600 
    242 H242       -9.4857  -17.8572  -50.9028 H         1 UNK         0.3800 
    243 H243       -8.8844  -19.4786  -50.6921 H         1 UNK         0.3800 
    244 H244       -4.9857  -17.3723  -50.1211 H         1 UNK         0.0800 
    245 H245       -5.3859  -18.5501  -48.9046 H         1 UNK         0.0800 
    246 H246       -2.9077  -17.3361  -48.8177 H         1 UNK         0.0800 
    247 H247       -2.8157  -18.8465  -47.9527 H         1 UNK         0.0800 
@<TRIPOS>BOND
     1    1    2 1    
     2    1  127 1    
     3    1  128 1    
     4    1  129 1    
     5    2    3 2    
     6    2    4 am   BACKBONE|DICT|INTERRES
     7    4    5 1    
     8    4  130 1    
     9    5    6 1    
    10    5   65 1    
    11    5  131 1    
    12    6    7 1    
    13    6  132 1    
    14    6  133 1    
    15    7    8 1    
    16    8    9 1    
    17    8  134 1    
    18    8  135 1    
    19    9   10 ar   
    20    9   14 ar   
    21   10   11 ar   
    22   10  136 1    
    23   11   12 ar   
    24   11  126 1    
    25   12   13 ar   
    26   12  137 1    
    27   13   14 ar   
    28   13   15 1    
    29   14  138 1    
    30   15   16 1    
    31   15  139 1    
    32   15  140 1    
    33   16   17 1    
    34   17   18 1    
    35   17  141 1    
    36   17  142 1    
    37   18   19 1    
    38   18   67 1    
    39   18  143 1    
    40   19   20 am   BACKBONE|DICT|INTERRES
    41   19  144 1    
    42   20   21 2    
    43   20   22 1    
    44   22   23 1    
    45   22   24 1    
    46   22  145 1    
    47   23  146 1    
    48   23  147 1    
    49   23  148 1    
    50   24   25 am   BACKBONE|DICT|INTERRES
    51   24  149 1    
    52   25   26 2    
    53   25   27 1    
    54   27   28 1    
    55   27   29 1    
    56   27  150 1    
    57   28  151 1    
    58   28  152 1    
    59   28  153 1    
    60   29   30 am   BACKBONE|DICT|INTERRES
    61   29  154 1    
    62   30   31 2    
    63   30   32 1    
    64   32   33 1    
    65   32   34 1    
    66   32  155 1    
    67   33  156 1    
    68   33  157 1    
    69   33  158 1    
    70   34   35 am   BACKBONE|DICT|INTERRES
    71   34  159 1    
    72   35   36 2    
    73   35   37 1    
    74   37   38 1    
    75   37   39 1    
    76   37  160 1    
    77   38  161 1    
    78   38  162 1    
    79   38  163 1    
    80   39   40 am   BACKBONE|DICT|INTERRES
    81   39  164 1    
    82   40   41 2    
    83   40   42 1    
    84   42   43 1    
    85   42   44 1    
    86   42  165 1    
    87   43  166 1    
    88   43  167 1    
    89   43  168 1    
    90   44   45 am   BACKBONE|DICT|INTERRES
    91   44  169 1    
    92   45   46 2    
    93   45   47 1    
    94   47   48 1    
    95   47   49 1    
    96   47  170 1    
    97   48  171 1    
    98   48  172 1    
    99   48  173 1    
   100   49   50 am   BACKBONE|DICT|INTERRES
   101   49  174 1    
   102   50   51 2    
   103   50   52 1    
   104   52   53 1    
   105   52   54 1    
   106   52  175 1    
   107   53  176 1    
   108   53  177 1    
   109   53  178 1    
   110   54   55 am   BACKBONE|DICT|INTERRES
   111   54  179 1    
   112   55   56 2    
   113   55   57 1    
   114   57   58 1    
   115   57   59 1    
   116   57  180 1    
   117   58  181 1    
   118   58  182 1    
   119   58  183 1    
   120   59   60 am   BACKBONE|DICT|INTERRES
   121   59  184 1    
   122   60   61 2    
   123   60   62 1    
   124   62   63 1    
   125   62   64 1    
   126   62  185 1    
   127   63  186 1    
   128   63  187 1    
   129   63  188 1    
   130   64   65 am   BACKBONE|DICT|INTERRES
   131   64  189 1    
   132   65   66 2    
   133   67   68 2    
   134   67   69 am   BACKBONE|DICT|INTERRES
   135   69   70 1    
   136   69  190 1    
   137   70   71 1    
   138   70   72 1    
   139   70  191 1    
   140   71  192 1    
   141   71  193 1    
   142   71  194 1    
   143   72   73 2    
   144   72   74 am   BACKBONE|DICT|INTERRES
   145   74   75 1    
   146   74  195 1    
   147   75   76 1    
   148   75   77 1    
   149   75  196 1    
   150   76  197 1    
   151   76  198 1    
   152   76  199 1    
   153   77   78 2    
   154   77   79 am   BACKBONE|DICT|INTERRES
   155   79   80 1    
   156   79  200 1    
   157   80   81 1    
   158   80   82 1    
   159   80  201 1    
   160   81  202 1    
   161   81  203 1    
   162   81  204 1    
   163   82   83 2    
   164   82   84 am   BACKBONE|DICT|INTERRES
   165   84   85 1    
   166   84  205 1    
   167   85   86 1    
   168   85   87 1    
   169   85  206 1    
   170   86  207 1    
   171   86  208 1    
   172   86  209 1    
   173   87   88 2    
   174   87   89 am   BACKBONE|DICT|INTERRES
   175   89   90 1    
   176   89  210 1    
   177   90   91 1    
   178   90   92 1    
   179   90  211 1    
   180   91  212 1    
   181   91  213 1    
   182   91  214 1    
   183   92   93 2    
   184   92   94 am   BACKBONE|DICT|INTERRES
   185   94   95 1    
   186   94  215 1    
   187   95   96 1    
   188   95   97 1    
   189   95  216 1    
   190   96  217 1    
   191   96  218 1    
   192   96  219 1    
   193   97   98 2    
   194   97   99 am   BACKBONE|DICT|INTERRES
   195   99  100 1    
   196   99  220 1    
   197  100  101 1    
   198  100  102 1    
   199  100  221 1    
   200  101  222 1    
   201  101  223 1    
   202  101  224 1    
   203  102  103 2    
   204  102  104 am   BACKBONE|DICT|INTERRES
   205  104  105 1    
   206  104  225 1    
   207  105  106 1    
   208  105  107 1    
   209  105  226 1    
   210  106  227 1    
   211  106  228 1    
   212  106  229 1    
   213  107  108 2    
   214  107  109 am   BACKBONE|DICT|INTERRES
   215  109  110 1    
   216  109  230 1    
   217  110  111 1    
   218  110  112 1    
   219  110  231 1    
   220  111  232 1    
   221  111  233 1    
   222  111  234 1    
   223  112  113 2    
   224  112  114 am   BACKBONE|DICT|INTERRES
   225  114  115 1    
   226  114  235 1    
   227  115  116 1    
   228  115  117 1    
   229  115  236 1    
   230  116  237 1    
   231  116  238 1    
   232  116  239 1    
   233  117  118 2    
   234  117  119 am   BACKBONE|DICT|INTERRES
   235  119  120 1    
   236  119  240 1    
   237  120  121 1    
   238  120  124 1    
   239  120  241 1    
   240  121  122 am   BACKBONE|DICT|INTERRES
   241  121  123 2    
   242  122  242 1    
   243  122  243 1    
   244  124  125 1    
   245  124  244 1    
   246  124  245 1    
   247  125  126 1    
   248  126  246 1    
   249  126  247 1    
@<TRIPOS>SUBSTRUCTURE
     1 UNK         1 GROUP             0       ****    0 ROOT    
