@<TRIPOS>MOLECULE
3R540
247   249    1
SMALL
USER_CHARGES


@<TRIPOS>ATOM
      1 CA         -3.5738  -16.9401  -43.8027 C.3       0 UNK        -0.1800 
      2 C          -3.7455  -15.8590  -44.8604 C.2       0 UNK         0.5000 
      3 O          -4.4114  -14.8536  -44.6097 O.2       0 UNK        -0.5000 
      4 N          -3.1563  -16.0633  -46.0447 N.am      1 UNK        -0.5000 
      5 CA         -3.1441  -15.1198  -47.1640 C.3       1 UNK         0.1400 
      6 C6         -2.9604  -15.8277  -48.5344 C.3       23 UNK        -0.0398 
      7 S7         -1.6144  -17.0659  -48.6391 S.3       23 UNK        -0.2404 
      8 C8         -0.5584  -16.3153  -49.9126 C.3       23 UNK        -0.0205 
      9 C9          0.4943  -17.2896  -50.4142 C.ar      23 UNK        -0.0193 
     10 C10         0.2561  -18.0464  -51.5654 C.ar      23 UNK        -0.1150 
     11 C11         1.2353  -18.9123  -52.0601 C.ar      23 UNK        -0.0193 
     12 C12         2.4612  -19.0135  -51.3968 C.ar      23 UNK        -0.1150 
     13 C13         2.7082  -18.2701  -50.2382 C.ar      23 UNK        -0.0193 
     14 C14         1.7176  -17.4127  -49.7487 C.ar      23 UNK        -0.1150 
     15 C15         4.0623  -18.3568  -49.5464 C.3       23 UNK        -0.0205 
     16 S16         4.4554  -20.0364  -48.9629 S.3       23 UNK        -0.2404 
     17 C17         3.3520  -20.1916  -47.5202 C.3       23 UNK        -0.0398 
     18 CA          2.9764  -21.6643  -47.2202 C.3       11 UNK         0.1400 
     19 N           2.5893  -21.8607  -45.8249 N.am      11 UNK        -0.5000 
     20 C           2.4704  -23.0479  -45.2154 C.2       10 UNK         0.5000 
     21 O           2.7268  -24.1256  -45.7536 O.2       10 UNK        -0.5000 
     22 CA          1.9632  -23.0310  -43.7594 C.3       10 UNK         0.1400 
     23 CB          3.1297  -22.8507  -42.7763 C.3       10 UNK        -0.1800 
     24 N           0.9544  -21.9992  -43.5111 N.am      10 UNK        -0.5000 
     25 C          -0.2384  -21.9503  -44.1204 C.2       9 UNK         0.5000 
     26 O          -0.6267  -22.7760  -44.9465 O.2       9 UNK        -0.5000 
     27 CA         -1.1242  -20.7366  -43.8047 C.3       9 UNK         0.1400 
     28 CB         -1.7349  -20.8355  -42.3999 C.3       9 UNK        -0.1800 
     29 N          -0.4058  -19.4726  -43.9655 N.am      9 UNK        -0.5000 
     30 C           0.1299  -19.0380  -45.1163 C.2       8 UNK         0.5000 
     31 O          -0.0163  -19.6160  -46.1955 O.2       8 UNK        -0.5000 
     32 CA          1.0173  -17.7807  -45.0419 C.3       8 UNK         0.1400 
     33 CB          0.1771  -16.5018  -45.1180 C.3       8 UNK        -0.1800 
     34 N           1.8430  -17.7378  -43.8357 N.am      8 UNK        -0.5000 
     35 C           2.8100  -18.6166  -43.5422 C.2       7 UNK         0.5000 
     36 O           3.1240  -19.5535  -44.2716 O.2       7 UNK        -0.5000 
     37 CA          3.5088  -18.4537  -42.1844 C.3       7 UNK         0.1400 
     38 CB          4.5538  -17.3290  -42.2314 C.3       7 UNK        -0.1800 
     39 N           2.5460  -18.1987  -41.1152 N.am      7 UNK        -0.5000 
     40 C           1.6783  -19.1097  -40.6527 C.2       6 UNK         0.5000 
     41 O           1.6253  -20.2726  -41.0557 O.2       6 UNK        -0.5000 
     42 CA          0.6781  -18.6244  -39.5874 C.3       6 UNK         0.1400 
     43 CB          1.3104  -18.6709  -38.1885 C.3       6 UNK        -0.1800 
     44 N           0.1833  -17.2716  -39.8530 N.am      6 UNK        -0.5000 
     45 C          -0.5942  -16.9491  -40.8958 C.2       5 UNK         0.5000 
     46 O          -0.9831  -17.7599  -41.7337 O.2       5 UNK        -0.5000 
     47 CA         -0.9614  -15.4645  -41.0577 C.3       5 UNK         0.1400 
     48 CB         -2.1796  -15.1077  -40.1935 C.3       5 UNK        -0.1800 
     49 N           0.1377  -14.5420  -40.7587 N.am      5 UNK        -0.5000 
     50 C           1.3015  -14.5165  -41.4206 C.2       4 UNK         0.5000 
     51 O           1.6401  -15.3604  -42.2520 O.2       4 UNK        -0.5000 
     52 CA          2.2519  -13.3491  -41.1085 C.3       4 UNK         0.1400 
     53 CB          3.4607  -13.8417  -40.2988 C.3       4 UNK        -0.1800 
     54 N           2.7220  -12.7515  -42.3598 N.am      4 UNK        -0.5000 
     55 C           2.0350  -11.9541  -43.1926 C.2       3 UNK         0.5000 
     56 O           2.4926  -11.6364  -44.2914 O.2       3 UNK        -0.5000 
     57 CA          0.6824  -11.3474  -42.7487 C.3       3 UNK         0.1400 
     58 CB          0.9029   -9.9700  -42.1040 C.3       3 UNK        -0.1800 
     59 N          -0.2406  -11.1989  -43.8724 N.am      3 UNK        -0.5000 
     60 C          -0.9166  -12.2097  -44.4325 C.2       2 UNK         0.5000 
     61 O          -0.8476  -13.3734  -44.0315 O.2       2 UNK        -0.5000 
     62 CA         -1.8760  -11.8285  -45.5794 C.3       2 UNK         0.1400 
     63 CB         -1.1830  -11.0157  -46.6954 C.3       2 UNK        -0.1800 
     64 N          -2.6033  -12.9857  -46.1142 N.am      2 UNK        -0.5000 
     65 C          -2.1437  -13.9720  -46.8979 C.2       1 UNK         0.5000 
     66 O          -1.0105  -14.0079  -47.3778 O.2       1 UNK        -0.5000 
     67 C           1.9082  -22.1926  -48.1988 C.2       11 UNK         0.5000 
     68 O           2.2608  -22.9295  -49.1223 O.2       11 UNK        -0.5000 
     69 N           0.6349  -21.8234  -47.9886 N.am      12 UNK        -0.5000 
     70 CA         -0.4422  -22.1585  -48.9191 C.3       12 UNK         0.1400 
     71 CB         -0.3901  -21.2136  -50.1303 C.3       12 UNK        -0.1800 
     72 C          -1.8486  -22.1427  -48.3078 C.2       12 UNK         0.5000 
     73 O          -2.6466  -23.0084  -48.6638 O.2       12 UNK        -0.5000 
     74 N          -2.1669  -21.1592  -47.4529 N.am      13 UNK        -0.5000 
     75 CA         -3.5489  -20.8643  -47.0418 C.3       13 UNK         0.1400 
     76 CB         -3.6468  -19.4305  -46.4957 C.3       13 UNK        -0.1800 
     77 C          -4.2320  -21.8953  -46.1194 C.2       13 UNK         0.5000 
     78 O          -5.4424  -21.7964  -45.9139 O.2       13 UNK        -0.5000 
     79 N          -3.4867  -22.8860  -45.6108 N.am      14 UNK        -0.5000 
     80 CA         -4.0500  -24.0719  -44.9570 C.3       14 UNK         0.1400 
     81 CB         -2.9503  -24.7840  -44.1547 C.3       14 UNK        -0.1800 
     82 C          -4.7089  -25.0501  -45.9555 C.2       14 UNK         0.5000 
     83 O          -5.4800  -25.9125  -45.5319 O.2       14 UNK        -0.5000 
     84 N          -4.3960  -24.9055  -47.2488 N.am      15 UNK        -0.5000 
     85 CA         -4.9400  -25.6713  -48.3634 C.3       15 UNK         0.1400 
     86 CB         -3.7818  -26.4537  -49.0111 C.3       15 UNK        -0.1800 
     87 C          -5.6081  -24.7184  -49.3734 C.2       15 UNK         0.5000 
     88 O          -5.6740  -23.5065  -49.1524 O.2       15 UNK        -0.5000 
     89 N          -6.0814  -25.2842  -50.4908 N.am      16 UNK        -0.5000 
     90 CA         -6.6831  -24.5515  -51.6094 C.3       16 UNK         0.1400 
     91 CB         -7.4721  -25.5414  -52.4806 C.3       16 UNK        -0.1800 
     92 C          -5.6634  -23.7739  -52.4688 C.2       16 UNK         0.5000 
     93 O          -6.0769  -23.0002  -53.3312 O.2       16 UNK        -0.5000 
     94 N          -4.3595  -23.9835  -52.2336 N.am      17 UNK        -0.5000 
     95 CA         -3.2436  -23.3941  -52.9783 C.3       17 UNK         0.1400 
     96 CB         -1.9218  -23.9225  -52.4017 C.3       17 UNK        -0.1800 
     97 C          -3.2397  -21.8540  -53.0160 C.2       17 UNK         0.5000 
     98 O          -2.8453  -21.2782  -54.0299 O.2       17 UNK        -0.5000 
     99 N          -3.6977  -21.2130  -51.9318 N.am      18 UNK        -0.5000 
    100 CA        -3.8271  -19.7573  -51.8491 C.3       18 UNK         0.1400 
    101 CB        -4.0142  -19.3363  -50.3869 C.3       18 UNK        -0.1800 
    102 C         -4.9752  -19.2235  -52.7242 C.2       18 UNK         0.5000 
    103 O         -4.7999  -18.2148  -53.4074 O.2       18 UNK        -0.5000 
    104 N         -6.1133  -19.9331  -52.7244 N.am      19 UNK        -0.5000 
    105 CA        -7.2825  -19.6326  -53.5566 C.3       19 UNK         0.1400 
    106 CB        -8.4880  -20.4451  -53.0594 C.3       19 UNK        -0.1800 
    107 C         -7.0181  -19.8985  -55.0505 C.2       19 UNK         0.5000 
    108 O         -7.5175  -19.1636  -55.9025 O.2       19 UNK        -0.5000 
    109 N         -6.1921  -20.9142  -55.3318 N.am      20 UNK        -0.5000 
    110 CA        -5.6745  -21.2591  -56.6559 C.3       20 UNK         0.1400 
    111 CB        -5.1891  -22.7175  -56.6233 C.3       20 UNK        -0.1800 
    112 C         -4.5482  -20.3222  -57.1468 C.2       20 UNK         0.5000 
    113 O         -4.0311  -20.5421  -58.2433 O.2       20 UNK        -0.5000 
    114 N         -4.1630  -19.3228  -56.3360 N.am      21 UNK        -0.5000 
    115 CA        -3.1270  -18.3151  -56.5919 C.3       21 UNK         0.1400 
    116 CB        -3.5900  -17.3353  -57.6898 C.3       21 UNK        -0.1800 
    117 C         -1.7459  -18.9397  -56.8794 C.2       21 UNK         0.5000 
    118 O         -1.0460  -18.5125  -57.7995 O.2       21 UNK        -0.5000 
    119 N         -1.4056  -19.9669  -56.0919 N.am      22 UNK        -0.5000 
    120 CA        -0.2040  -20.8084  -56.1993 C.3       22 UNK         0.1400 
    121 C         -0.2238  -21.8160  -57.3895 C.2       22 UNK         0.5000 
    122 N         -1.3049  -21.9441  -58.1512 N.am      22 UNK        -0.7600 
    123 O          0.7540  -22.5250  -57.6112 O.2       22 UNK        -0.5000 
    124 C124        1.1407  -20.0239  -56.1243 C.3       23 UNK        -0.0398 
    125 S125        1.2537  -18.7594  -54.8082 S.3       23 UNK        -0.2404 
    126 C126        0.9669  -19.7408  -53.3062 C.3       23 UNK        -0.0205 
    127 H127       -2.7189  -17.5815  -44.0143 H         1 UNK         0.0600 
    128 H128       -4.4668  -17.5626  -43.7517 H         1 UNK         0.0600 
    129 H129       -3.4167  -16.4885  -42.8239 H         1 UNK         0.0600 
    130 H130       -2.6071  -16.8963  -46.1956 H         1 UNK         0.3000 
    131 H131       -4.1321  -14.6556  -47.2107 H         1 UNK         0.0600 
    132 H132       -2.8514  -15.0862  -49.3274 H         1 UNK         0.0800 
    133 H133       -3.8835  -16.3574  -48.7713 H         1 UNK         0.0800 
    134 H134       -0.0792  -15.4235  -49.5063 H         1 UNK         0.0800 
    135 H135       -1.1745  -15.9813  -50.7487 H         1 UNK         0.0800 
    136 H136       -0.6892  -17.9577  -52.0819 H         1 UNK         0.1150 
    137 H137        3.2269  -19.6729  -51.7809 H         1 UNK         0.1150 
    138 H138        1.9010  -16.8250  -48.8601 H         1 UNK         0.1150 
    139 H139        4.8325  -18.0447  -50.2529 H         1 UNK         0.0800 
    140 H140        4.1200  -17.6629  -48.7062 H         1 UNK         0.0800 
    141 H141        2.4618  -19.5731  -47.6485 H         1 UNK         0.0800 
    142 H142        3.8989  -19.7644  -46.6804 H         1 UNK         0.0800 
    143 H143        3.8741  -22.2692  -47.3676 H         1 UNK         0.0600 
    144 H144        2.4514  -21.0202  -45.2709 H         1 UNK         0.3000 
    145 H145        1.4991  -23.9995  -43.5621 H         1 UNK         0.0600 
    146 H146        2.7879  -22.9162  -41.7432 H         1 UNK         0.0600 
    147 H147        3.6194  -21.8850  -42.9047 H         1 UNK         0.0600 
    148 H148        3.8850  -23.6244  -42.9195 H         1 UNK         0.0600 
    149 H149        1.1943  -21.2812  -42.8354 H         1 UNK         0.3000 
    150 H150       -1.9474  -20.7486  -44.5142 H         1 UNK         0.0600 
    151 H151       -2.2681  -21.7781  -42.2714 H         1 UNK         0.0600 
    152 H152       -2.4519  -20.0326  -42.2278 H         1 UNK         0.0600 
    153 H153       -0.9751  -20.7778  -41.6211 H         1 UNK         0.0600 
    154 H154       -0.3071  -18.9014  -43.1309 H         1 UNK         0.3000 
    155 H155        1.6865  -17.7974  -45.9044 H         1 UNK         0.0600 
    156 H156       -0.5212  -16.4228  -44.2848 H         1 UNK         0.0600 
    157 H157       -0.3961  -16.4720  -46.0423 H         1 UNK         0.0600 
    158 H158        0.8069  -15.6119  -45.1049 H         1 UNK         0.0600 
    159 H159        1.6728  -16.9663  -43.1940 H         1 UNK         0.3000 
    160 H160        4.0283  -19.3877  -41.9591 H         1 UNK         0.0600 
    161 H161        4.1085  -16.3709  -42.4987 H         1 UNK         0.0600 
    162 H162        5.3227  -17.5475  -42.9735 H         1 UNK         0.0600 
    163 H163        5.0538  -17.2123  -41.2699 H         1 UNK         0.0600 
    164 H164        2.4792  -17.2496  -40.7794 H         1 UNK         0.3000 
    165 H165       -0.1751  -19.3061  -39.5986 H         1 UNK         0.0600 
    166 H166        0.5853  -18.4046  -37.4193 H         1 UNK         0.0600 
    167 H167        1.6735  -19.6734  -37.9582 H         1 UNK         0.0600 
    168 H168        2.1564  -17.9877  -38.1041 H         1 UNK         0.0600 
    169 H169        0.4651  -16.5429  -39.2142 H         1 UNK         0.3000 
    170 H170       -1.2364  -15.3141  -42.1037 H         1 UNK         0.0600 
    171 H171       -1.9548  -15.1806  -39.1288 H         1 UNK         0.0600 
    172 H172       -2.5225  -14.0931  -40.3971 H         1 UNK         0.0600 
    173 H173       -3.0153  -15.7780  -40.3989 H         1 UNK         0.0600 
    174 H174       -0.0539  -13.8323  -40.0666 H         1 UNK         0.3000 
    175 H175        1.7380  -12.5962  -40.5087 H         1 UNK         0.0600 
    176 H176        4.0408  -14.5859  -40.8448 H         1 UNK         0.0600 
    177 H177        4.1285  -13.0170  -40.0492 H         1 UNK         0.0600 
    178 H178        3.1433  -14.2971  -39.3598 H         1 UNK         0.0600 
    179 H179        3.6013  -13.1166  -42.6927 H         1 UNK         0.3000 
    180 H180        0.1874  -11.9842  -42.0175 H         1 UNK         0.0600 
    181 H181       -0.0378   -9.5377  -41.7624 H         1 UNK         0.0600 
    182 H182        1.3622   -9.2677  -42.8010 H         1 UNK         0.0600 
    183 H183        1.5588  -10.0455  -41.2358 H         1 UNK         0.0600 
    184 H184       -0.3224  -10.2734  -44.2664 H         1 UNK         0.3000 
    185 H185       -2.6409  -11.1895  -45.1359 H         1 UNK         0.0600 
    186 H186       -0.2916  -11.5182  -47.0722 H         1 UNK         0.0600 
    187 H187       -1.8546  -10.8464  -47.5371 H         1 UNK         0.0600 
    188 H188       -0.8710  -10.0356  -46.3342 H         1 UNK         0.0600 
    189 H189       -3.5126  -13.1394  -45.6947 H         1 UNK         0.3000 
    190 H190        0.4062  -21.2213  -47.2030 H         1 UNK         0.3000 
    191 H191       -0.2860  -23.1789  -49.2764 H         1 UNK         0.0600 
    192 H192        0.5370  -21.3377  -50.6888 H         1 UNK         0.0600 
    193 H193       -0.4605  -20.1711  -49.8185 H         1 UNK         0.0600 
    194 H194       -1.2072  -21.4039  -50.8228 H         1 UNK         0.0600 
    195 H195       -1.4550  -20.4916  -47.1723 H         1 UNK         0.3000 
    196 H196       -4.1580  -20.8884  -47.9468 H         1 UNK         0.0600 
    197 H197       -3.5747  -18.7124  -47.3099 H         1 UNK         0.0600 
    198 H198       -2.8597  -19.2015  -45.7824 H         1 UNK         0.0600 
    199 H199       -4.6026  -19.2470  -46.0034 H         1 UNK         0.0600 
    200 H200       -2.4850  -22.8906  -45.7742 H         1 UNK         0.3000 
    201 H201       -4.8226  -23.7503  -44.2556 H         1 UNK         0.0600 
    202 H202       -2.5324  -24.1291  -43.3904 H         1 UNK         0.0600 
    203 H203       -2.1343  -25.1149  -44.7985 H         1 UNK         0.0600 
    204 H204       -3.3439  -25.6642  -43.6449 H         1 UNK         0.0600 
    205 H205       -3.8065  -24.1262  -47.5286 H         1 UNK         0.3000 
    206 H206       -5.6999  -26.3743  -48.0172 H         1 UNK         0.0600 
    207 H207       -3.0330  -25.7838  -49.4365 H         1 UNK         0.0600 
    208 H208       -3.2806  -27.0866  -48.2785 H         1 UNK         0.0600 
    209 H209       -4.1331  -27.1087  -49.8088 H         1 UNK         0.0600 
    210 H210       -6.0032  -26.2847  -50.6049 H         1 UNK         0.3000 
    211 H211       -7.3863  -23.8197  -51.2061 H         1 UNK         0.0600 
    212 H212       -6.8221  -26.3019  -52.9151 H         1 UNK         0.0600 
    213 H213       -7.9718  -25.0282  -53.3035 H         1 UNK         0.0600 
    214 H214       -8.2441  -26.0486  -51.9016 H         1 UNK         0.0600 
    215 H215       -4.1154  -24.6265  -51.4962 H         1 UNK         0.3000 
    216 H216       -3.3225  -23.7405  -54.0099 H         1 UNK         0.0600 
    217 H217       -1.0636  -23.4688  -52.8999 H         1 UNK         0.0600 
    218 H218       -1.8393  -25.0014  -52.5336 H         1 UNK         0.0600 
    219 H219       -1.8353  -23.7108  -51.3358 H         1 UNK         0.0600 
    220 H220       -4.0053  -21.7569  -51.1376 H         1 UNK         0.3000 
    221 H221       -2.8986  -19.3087  -52.2094 H         1 UNK         0.0600 
    222 H222       -4.1315  -18.2555  -50.3066 H         1 UNK         0.0600 
    223 H223       -4.8968  -19.7969  -49.9426 H         1 UNK         0.0600 
    224 H224       -3.1452  -19.6103  -49.7896 H         1 UNK         0.0600 
    225 H225       -6.1532  -20.7839  -52.1825 H         1 UNK         0.3000 
    226 H226       -7.5170  -18.5720  -53.4438 H         1 UNK         0.0600 
    227 H227       -8.7094  -20.2236  -52.0153 H         1 UNK         0.0600 
    228 H228       -9.3816  -20.2079  -53.6381 H         1 UNK         0.0600 
    229 H229       -8.3182  -21.5186  -53.1463 H         1 UNK         0.0600 
    230 H230       -5.9005  -21.5145  -54.5657 H         1 UNK         0.3000 
    231 H231       -6.4925  -21.1876  -57.3754 H         1 UNK         0.0600 
    232 H232       -4.8895  -23.0551  -57.6162 H         1 UNK         0.0600 
    233 H233       -5.9740  -23.3895  -56.2756 H         1 UNK         0.0600 
    234 H234       -4.3291  -22.8360  -55.9646 H         1 UNK         0.0600 
    235 H235       -4.6207  -19.2455  -55.4372 H         1 UNK         0.3000 
    236 H236       -3.0168  -17.7470  -55.6671 H         1 UNK         0.0600 
    237 H237       -3.6836  -17.8272  -58.6585 H         1 UNK         0.0600 
    238 H238       -4.5562  -16.8956  -57.4422 H         1 UNK         0.0600 
    239 H239       -2.8811  -16.5148  -57.8059 H         1 UNK         0.0600 
    240 H240       -2.0665  -20.2745  -55.3815 H         1 UNK         0.3000 
    241 H241       -0.2456  -21.4483  -55.3180 H         1 UNK         0.0600 
    242 H242       -1.2956  -22.6099  -58.9074 H         1 UNK         0.3800 
    243 H243       -2.1202  -21.3587  -58.0145 H         1 UNK         0.3800 
    244 H244        1.3326  -19.5215  -57.0734 H         1 UNK         0.0800 
    245 H245        1.9707  -20.7187  -55.9863 H         1 UNK         0.0800 
    246 H246        1.6051  -20.6257  -53.3177 H         1 UNK         0.0800 
    247 H247       -0.0640  -20.0984  -53.2918 H         1 UNK         0.0800 
@<TRIPOS>BOND
     1    1    2 1    
     2    1  127 1    
     3    1  128 1    
     4    1  129 1    
     5    2    3 2    
     6    2    4 am   BACKBONE|DICT|INTERRES
     7    4    5 1    
     8    4  130 1    
     9    5    6 1    
    10    5   65 1    
    11    5  131 1    
    12    6    7 1    
    13    6  132 1    
    14    6  133 1    
    15    7    8 1    
    16    8    9 1    
    17    8  134 1    
    18    8  135 1    
    19    9   10 ar   
    20    9   14 ar   
    21   10   11 ar   
    22   10  136 1    
    23   11   12 ar   
    24   11  126 1    
    25   12   13 ar   
    26   12  137 1    
    27   13   14 ar   
    28   13   15 1    
    29   14  138 1    
    30   15   16 1    
    31   15  139 1    
    32   15  140 1    
    33   16   17 1    
    34   17   18 1    
    35   17  141 1    
    36   17  142 1    
    37   18   19 1    
    38   18   67 1    
    39   18  143 1    
    40   19   20 am   BACKBONE|DICT|INTERRES
    41   19  144 1    
    42   20   21 2    
    43   20   22 1    
    44   22   23 1    
    45   22   24 1    
    46   22  145 1    
    47   23  146 1    
    48   23  147 1    
    49   23  148 1    
    50   24   25 am   BACKBONE|DICT|INTERRES
    51   24  149 1    
    52   25   26 2    
    53   25   27 1    
    54   27   28 1    
    55   27   29 1    
    56   27  150 1    
    57   28  151 1    
    58   28  152 1    
    59   28  153 1    
    60   29   30 am   BACKBONE|DICT|INTERRES
    61   29  154 1    
    62   30   31 2    
    63   30   32 1    
    64   32   33 1    
    65   32   34 1    
    66   32  155 1    
    67   33  156 1    
    68   33  157 1    
    69   33  158 1    
    70   34   35 am   BACKBONE|DICT|INTERRES
    71   34  159 1    
    72   35   36 2    
    73   35   37 1    
    74   37   38 1    
    75   37   39 1    
    76   37  160 1    
    77   38  161 1    
    78   38  162 1    
    79   38  163 1    
    80   39   40 am   BACKBONE|DICT|INTERRES
    81   39  164 1    
    82   40   41 2    
    83   40   42 1    
    84   42   43 1    
    85   42   44 1    
    86   42  165 1    
    87   43  166 1    
    88   43  167 1    
    89   43  168 1    
    90   44   45 am   BACKBONE|DICT|INTERRES
    91   44  169 1    
    92   45   46 2    
    93   45   47 1    
    94   47   48 1    
    95   47   49 1    
    96   47  170 1    
    97   48  171 1    
    98   48  172 1    
    99   48  173 1    
   100   49   50 am   BACKBONE|DICT|INTERRES
   101   49  174 1    
   102   50   51 2    
   103   50   52 1    
   104   52   53 1    
   105   52   54 1    
   106   52  175 1    
   107   53  176 1    
   108   53  177 1    
   109   53  178 1    
   110   54   55 am   BACKBONE|DICT|INTERRES
   111   54  179 1    
   112   55   56 2    
   113   55   57 1    
   114   57   58 1    
   115   57   59 1    
   116   57  180 1    
   117   58  181 1    
   118   58  182 1    
   119   58  183 1    
   120   59   60 am   BACKBONE|DICT|INTERRES
   121   59  184 1    
   122   60   61 2    
   123   60   62 1    
   124   62   63 1    
   125   62   64 1    
   126   62  185 1    
   127   63  186 1    
   128   63  187 1    
   129   63  188 1    
   130   64   65 am   BACKBONE|DICT|INTERRES
   131   64  189 1    
   132   65   66 2    
   133   67   68 2    
   134   67   69 am   BACKBONE|DICT|INTERRES
   135   69   70 1    
   136   69  190 1    
   137   70   71 1    
   138   70   72 1    
   139   70  191 1    
   140   71  192 1    
   141   71  193 1    
   142   71  194 1    
   143   72   73 2    
   144   72   74 am   BACKBONE|DICT|INTERRES
   145   74   75 1    
   146   74  195 1    
   147   75   76 1    
   148   75   77 1    
   149   75  196 1    
   150   76  197 1    
   151   76  198 1    
   152   76  199 1    
   153   77   78 2    
   154   77   79 am   BACKBONE|DICT|INTERRES
   155   79   80 1    
   156   79  200 1    
   157   80   81 1    
   158   80   82 1    
   159   80  201 1    
   160   81  202 1    
   161   81  203 1    
   162   81  204 1    
   163   82   83 2    
   164   82   84 am   BACKBONE|DICT|INTERRES
   165   84   85 1    
   166   84  205 1    
   167   85   86 1    
   168   85   87 1    
   169   85  206 1    
   170   86  207 1    
   171   86  208 1    
   172   86  209 1    
   173   87   88 2    
   174   87   89 am   BACKBONE|DICT|INTERRES
   175   89   90 1    
   176   89  210 1    
   177   90   91 1    
   178   90   92 1    
   179   90  211 1    
   180   91  212 1    
   181   91  213 1    
   182   91  214 1    
   183   92   93 2    
   184   92   94 am   BACKBONE|DICT|INTERRES
   185   94   95 1    
   186   94  215 1    
   187   95   96 1    
   188   95   97 1    
   189   95  216 1    
   190   96  217 1    
   191   96  218 1    
   192   96  219 1    
   193   97   98 2    
   194   97   99 am   BACKBONE|DICT|INTERRES
   195   99  100 1    
   196   99  220 1    
   197  100  101 1    
   198  100  102 1    
   199  100  221 1    
   200  101  222 1    
   201  101  223 1    
   202  101  224 1    
   203  102  103 2    
   204  102  104 am   BACKBONE|DICT|INTERRES
   205  104  105 1    
   206  104  225 1    
   207  105  106 1    
   208  105  107 1    
   209  105  226 1    
   210  106  227 1    
   211  106  228 1    
   212  106  229 1    
   213  107  108 2    
   214  107  109 am   BACKBONE|DICT|INTERRES
   215  109  110 1    
   216  109  230 1    
   217  110  111 1    
   218  110  112 1    
   219  110  231 1    
   220  111  232 1    
   221  111  233 1    
   222  111  234 1    
   223  112  113 2    
   224  112  114 am   BACKBONE|DICT|INTERRES
   225  114  115 1    
   226  114  235 1    
   227  115  116 1    
   228  115  117 1    
   229  115  236 1    
   230  116  237 1    
   231  116  238 1    
   232  116  239 1    
   233  117  118 2    
   234  117  119 am   BACKBONE|DICT|INTERRES
   235  119  120 1    
   236  119  240 1    
   237  120  121 1    
   238  120  124 1    
   239  120  241 1    
   240  121  122 am   BACKBONE|DICT|INTERRES
   241  121  123 2    
   242  122  242 1    
   243  122  243 1    
   244  124  125 1    
   245  124  244 1    
   246  124  245 1    
   247  125  126 1    
   248  126  246 1    
   249  126  247 1    
@<TRIPOS>SUBSTRUCTURE
     1 UNK         1 GROUP             0       ****    0 ROOT    
