@<TRIPOS>MOLECULE
3R540
247   249    1
SMALL
USER_CHARGES


@<TRIPOS>ATOM
      1 CA          3.4667  -13.0701  -42.5628 C.3       0 UNK        -0.1800 
      2 C           2.0008  -12.9613  -42.1707 C.2       0 UNK         0.5000 
      3 O           1.6506  -13.2388  -41.0234 O.2       0 UNK        -0.5000 
      4 N           1.1484  -12.5592  -43.1152 N.am      1 UNK        -0.5000 
      5 CA         -0.2880  -12.3631  -42.9304 C.3       1 UNK         0.1400 
      6 C6         -1.0972  -13.6746  -43.1490 C.3       23 UNK        -0.0398 
      7 S7         -0.9161  -14.4437  -44.8041 S.3       23 UNK        -0.2404 
      8 C8         -2.6574  -14.7116  -45.2531 C.3       23 UNK        -0.0205 
      9 C9         -2.7974  -15.6345  -46.4522 C.ar      23 UNK        -0.0193 
     10 C10        -2.8390  -15.1166  -47.7496 C.ar      23 UNK        -0.1150 
     11 C11        -3.0134  -15.9684  -48.8445 C.ar      23 UNK        -0.0193 
     12 C12        -3.1587  -17.3415  -48.6321 C.ar      23 UNK        -0.1150 
     13 C13        -3.1304  -17.8746  -47.3405 C.ar      23 UNK        -0.0193 
     14 C14        -2.9289  -17.0116  -46.2561 C.ar      23 UNK        -0.1150 
     15 C15        -3.3202  -19.3798  -47.1627 C.3       23 UNK        -0.0205 
     16 S16        -4.1568  -19.8640  -45.6132 S.3       23 UNK        -0.2404 
     17 C17        -2.7144  -20.2370  -44.5605 C.3       23 UNK        -0.0398 
     18 CA         -2.2399  -21.6989  -44.7785 C.3       11 UNK         0.1400 
     19 N          -0.8953  -21.7764  -45.3530 N.am      11 UNK        -0.5000 
     20 C          -0.3614  -22.8649  -45.9223 C.2       10 UNK         0.5000 
     21 O          -0.9601  -23.9369  -46.0267 O.2       10 UNK        -0.5000 
     22 CA          1.0956  -22.7538  -46.4056 C.3       10 UNK         0.1400 
     23 CB          1.1416  -22.2817  -47.8659 C.3       10 UNK        -0.1800 
     24 N           1.9098  -21.8669  -45.5680 N.am      10 UNK        -0.5000 
     25 C           2.1631  -22.0813  -44.2676 C.2       9 UNK         0.5000 
     26 O           1.7610  -23.0678  -43.6518 O.2       9 UNK        -0.5000 
     27 CA          2.9552  -20.9996  -43.5145 C.3       9 UNK         0.1400 
     28 CB          4.4577  -21.1232  -43.8084 C.3       9 UNK        -0.1800 
     29 N           2.4993  -19.6457  -43.8266 N.am      9 UNK        -0.5000 
     30 C           1.2899  -19.1501  -43.5241 C.2       8 UNK         0.5000 
     31 O           0.4274  -19.7715  -42.9025 O.2       8 UNK        -0.5000 
     32 CA          0.9747  -17.7367  -44.0529 C.3       8 UNK         0.1400 
     33 CB          1.6414  -16.6644  -43.1769 C.3       8 UNK        -0.1800 
     34 N           1.3831  -17.5580  -45.4474 N.am      8 UNK        -0.5000 
     35 C           0.9269  -18.2921  -46.4732 C.2       7 UNK         0.5000 
     36 O           0.0908  -19.1872  -46.3606 O.2       7 UNK        -0.5000 
     37 CA          1.5672  -18.0299  -47.8439 C.3       7 UNK         0.1400 
     38 CB          0.9433  -16.7980  -48.5139 C.3       7 UNK        -0.1800 
     39 N           3.0163  -17.8629  -47.7317 N.am      7 UNK        -0.5000 
     40 C           3.8683  -18.8616  -47.4562 C.2       6 UNK         0.5000 
     41 O           3.5226  -20.0340  -47.3121 O.2       6 UNK        -0.5000 
     42 CA          5.3493  -18.4816  -47.2667 C.3       6 UNK         0.1400 
     43 CB          6.0574  -18.3639  -48.6246 C.3       6 UNK        -0.1800 
     44 N           5.5207  -17.2344  -46.5211 N.am      6 UNK        -0.5000 
     45 C           5.1625  -17.0625  -45.2410 C.2       5 UNK         0.5000 
     46 O           4.7146  -17.9622  -44.5330 O.2       5 UNK        -0.5000 
     47 CA          5.2724  -15.6383  -44.6649 C.3       5 UNK         0.1400 
     48 CB          6.6146  -15.4456  -43.9451 C.3       5 UNK        -0.1800 
     49 N           5.0966  -14.5738  -45.6572 N.am      5 UNK        -0.5000 
     50 C           4.0005  -14.3954  -46.4065 C.2       4 UNK         0.5000 
     51 O           3.0213  -15.1443  -46.3690 O.2       4 UNK        -0.5000 
     52 CA          4.0562  -13.2219  -47.4041 C.3       4 UNK         0.1400 
     53 CB          4.9184  -13.6049  -48.6183 C.3       4 UNK        -0.1800 
     54 N           2.7431  -12.7982  -47.8909 N.am      4 UNK        -0.5000 
     55 C           1.7523  -12.3038  -47.1392 C.2       3 UNK         0.5000 
     56 O           1.8424  -12.1244  -45.9203 O.2       3 UNK        -0.5000 
     57 CA          0.4614  -11.9207  -47.8907 C.3       3 UNK         0.1400 
     58 CB         -0.0370  -13.0515  -48.8048 C.3       3 UNK        -0.1800 
     59 N          -0.5857  -11.6179  -46.9246 N.am      3 UNK        -0.5000 
     60 C          -1.2791  -10.4776  -46.8264 C.2       2 UNK         0.5000 
     61 O          -1.2090   -9.5562  -47.6405 O.2       2 UNK        -0.5000 
     62 CA         -2.2021  -10.3387  -45.5942 C.3       2 UNK         0.1400 
     63 CB         -3.6659  -10.5927  -45.9869 C.3       2 UNK        -0.1800 
     64 N          -1.8316  -11.2568  -44.5114 N.am      2 UNK        -0.5000 
     65 C          -0.7106  -11.1501  -43.7845 C.2       1 UNK         0.5000 
     66 O           0.0038  -10.1444  -43.7995 O.2       1 UNK        -0.5000 
     67 C          -2.4532  -22.5866  -43.5325 C.2       11 UNK         0.5000 
     68 O          -3.6064  -22.8447  -43.1873 O.2       11 UNK        -0.5000 
     69 N          -1.3788  -23.1243  -42.9322 N.am      12 UNK        -0.5000 
     70 CA         -1.4566  -24.1890  -41.9238 C.3       12 UNK         0.1400 
     71 CB         -0.0722  -24.4093  -41.2977 C.3       12 UNK        -0.1800 
     72 C          -2.0100  -25.5146  -42.4945 C.2       12 UNK         0.5000 
     73 O          -2.5865  -26.3026  -41.7447 O.2       12 UNK        -0.5000 
     74 N          -1.8600  -25.7118  -43.8118 N.am      13 UNK        -0.5000 
     75 CA         -2.4534  -26.7937  -44.5977 C.3       13 UNK         0.1400 
     76 CB         -1.3254  -27.5265  -45.3455 C.3       13 UNK        -0.1800 
     77 C          -3.5154  -26.2405  -45.5731 C.2       13 UNK         0.5000 
     78 O          -3.7968  -26.8743  -46.5919 O.2       13 UNK        -0.5000 
     79 N          -4.0540  -25.0445  -45.2766 N.am      14 UNK        -0.5000 
     80 CA         -5.0421  -24.2800  -46.0519 C.3       14 UNK         0.1400 
     81 CB         -6.4112  -24.9895  -46.0083 C.3       14 UNK        -0.1800 
     82 C          -4.6005  -23.9585  -47.4978 C.2       14 UNK         0.5000 
     83 O          -5.4538  -23.7826  -48.3685 O.2       14 UNK        -0.5000 
     84 N          -3.2801  -23.9477  -47.7469 N.am      15 UNK        -0.5000 
     85 CA         -2.6260  -23.8682  -49.0589 C.3       15 UNK         0.1400 
     86 CB         -2.7564  -22.4479  -49.6448 C.3       15 UNK        -0.1800 
     87 C          -3.0963  -24.9752  -50.0301 C.2       15 UNK         0.5000 
     88 O          -3.2108  -24.7364  -51.2330 O.2       15 UNK        -0.5000 
     89 N          -3.4261  -26.1522  -49.4705 N.am      16 UNK        -0.5000 
     90 CA         -4.0367  -27.3167  -50.1237 C.3       16 UNK         0.1400 
     91 CB         -3.0559  -27.9467  -51.1342 C.3       16 UNK        -0.1800 
     92 C          -5.4225  -27.0286  -50.7480 C.2       16 UNK         0.5000 
     93 O          -5.8697  -27.7899  -51.6073 O.2       16 UNK        -0.5000 
     94 N          -6.0671  -25.9295  -50.3208 N.am      17 UNK        -0.5000 
     95 CA         -7.3050  -25.3499  -50.8510 C.3       17 UNK         0.1400 
     96 CB         -8.5068  -26.2781  -50.5779 C.3       17 UNK        -0.1800 
     97 C          -7.1984  -24.9189  -52.3323 C.2       17 UNK         0.5000 
     98 O          -8.2153  -24.8646  -53.0270 O.2       17 UNK        -0.5000 
     99 N          -5.9754  -24.6269  -52.7998 N.am      18 UNK        -0.5000 
    100 CA        -5.6910  -24.2208  -54.1730 C.3       18 UNK         0.1400 
    101 CB        -4.1821  -24.3494  -54.4340 C.3       18 UNK        -0.1800 
    102 C         -6.1580  -22.7818  -54.4467 C.2       18 UNK         0.5000 
    103 O         -5.8906  -21.8860  -53.6435 O.2       18 UNK        -0.5000 
    104 N         -6.7909  -22.5728  -55.6080 N.am      19 UNK        -0.5000 
    105 CA        -7.2158  -21.2560  -56.0963 C.3       19 UNK         0.1400 
    106 CB        -8.2149  -21.4509  -57.2474 C.3       19 UNK        -0.1800 
    107 C         -6.0369  -20.3686  -56.5482 C.2       19 UNK         0.5000 
    108 O         -6.1887  -19.1500  -56.6322 O.2       19 UNK        -0.5000 
    109 N         -4.8849  -20.9954  -56.8241 N.am      20 UNK        -0.5000 
    110 CA        -3.6349  -20.3506  -57.2254 C.3       20 UNK         0.1400 
    111 CB        -2.7417  -21.4043  -57.9005 C.3       20 UNK        -0.1800 
    112 C         -2.8803  -19.6686  -56.0650 C.2       20 UNK         0.5000 
    113 O         -1.9027  -18.9653  -56.3286 O.2       20 UNK        -0.5000 
    114 N         -3.3149  -19.8889  -54.8134 N.am      21 UNK        -0.5000 
    115 CA        -2.7332  -19.3118  -53.5994 C.3       21 UNK         0.1400 
    116 CB        -3.4964  -19.8315  -52.3708 C.3       21 UNK        -0.1800 
    117 C         -2.7227  -17.7706  -53.6427 C.2       21 UNK         0.5000 
    118 O         -3.7875  -17.1535  -53.7143 O.2       21 UNK        -0.5000 
    119 N         -1.5127  -17.1989  -53.6388 N.am      22 UNK        -0.5000 
    120 CA        -1.2180  -15.7640  -53.8120 C.3       22 UNK         0.1400 
    121 C         -1.4777  -15.2167  -55.2506 C.2       22 UNK         0.5000 
    122 N         -1.6635  -16.0546  -56.2640 N.am      22 UNK        -0.7600 
    123 O         -1.4778  -14.0074  -55.4658 O.2       22 UNK        -0.5000 
    124 C124       -1.8365  -14.8522  -52.7138 C.3       23 UNK        -0.0398 
    125 S125       -1.4193  -15.3937  -51.0220 S.3       23 UNK        -0.2404 
    126 C126       -3.0675  -15.4131  -50.2578 C.3       23 UNK        -0.0205 
    127 H127        3.5985  -13.0059  -43.6430 H         1 UNK         0.0600 
    128 H128        3.8766  -14.0203  -42.2220 H         1 UNK         0.0600 
    129 H129        4.0392  -12.2665  -42.1000 H         1 UNK         0.0600 
    130 H130        1.4885  -12.3297  -44.0478 H         1 UNK         0.3000 
    131 H131       -0.4622  -12.0447  -41.9005 H         1 UNK         0.0600 
    132 H132       -0.7702  -14.4149  -42.4176 H         1 UNK         0.0800 
    133 H133       -2.1509  -13.5068  -42.9223 H         1 UNK         0.0800 
    134 H134       -3.1891  -15.1416  -44.4026 H         1 UNK         0.0800 
    135 H135       -3.1373  -13.7562  -45.4635 H         1 UNK         0.0800 
    136 H136       -2.7399  -14.0518  -47.9066 H         1 UNK         0.1150 
    137 H137       -3.3011  -17.9967  -49.4797 H         1 UNK         0.1150 
    138 H138       -2.8934  -17.4009  -45.2499 H         1 UNK         0.1150 
    139 H139       -3.9207  -19.7688  -47.9865 H         1 UNK         0.0800 
    140 H140       -2.3506  -19.8728  -47.2372 H         1 UNK         0.0800 
    141 H141       -3.0004  -20.0442  -43.5247 H         1 UNK         0.0800 
    142 H142       -1.9202  -19.5204  -44.7682 H         1 UNK         0.0800 
    143 H143       -2.8818  -22.1562  -45.5325 H         1 UNK         0.0600 
    144 H144       -0.3556  -20.9166  -45.3633 H         1 UNK         0.3000 
    145 H145        1.5342  -23.7524  -46.3564 H         1 UNK         0.0600 
    146 H146        2.1650  -22.2578  -48.2404 H         1 UNK         0.0600 
    147 H147        0.5774  -22.9536  -48.5129 H         1 UNK         0.0600 
    148 H148        0.7188  -21.2837  -47.9813 H         1 UNK         0.0600 
    149 H149        2.3063  -21.0506  -46.0223 H         1 UNK         0.3000 
    150 H150        2.8049  -21.1630  -42.4453 H         1 UNK         0.0600 
    151 H151        4.8201  -22.1264  -43.5809 H         1 UNK         0.0600 
    152 H152        5.0353  -20.4243  -43.2033 H         1 UNK         0.0600 
    153 H153        4.6814  -20.9214  -44.8565 H         1 UNK         0.0600 
    154 H154        3.1721  -19.0417  -44.2916 H         1 UNK         0.3000 
    155 H155       -0.1066  -17.5893  -44.0112 H         1 UNK         0.0600 
    156 H156        1.2038  -16.6538  -42.1783 H         1 UNK         0.0600 
    157 H157        1.5146  -15.6681  -43.5994 H         1 UNK         0.0600 
    158 H158        2.7098  -16.8419  -43.0611 H         1 UNK         0.0600 
    159 H159        2.0459  -16.8159  -45.6451 H         1 UNK         0.3000 
    160 H160        1.3683  -18.8950  -48.4798 H         1 UNK         0.0600 
    161 H161        1.0984  -15.8945  -47.9260 H         1 UNK         0.0600 
    162 H162       -0.1334  -16.9266  -48.6289 H         1 UNK         0.0600 
    163 H163        1.3596  -16.6300  -49.5070 H         1 UNK         0.0600 
    164 H164        3.3600  -16.9125  -47.7392 H         1 UNK         0.3000 
    165 H165        5.8280  -19.2828  -46.6997 H         1 UNK         0.0600 
    166 H166        7.1235  -18.1746  -48.4982 H         1 UNK         0.0600 
    167 H167        5.9580  -19.2871  -49.1971 H         1 UNK         0.0600 
    168 H168        5.6418  -17.5564  -49.2287 H         1 UNK         0.0600 
    169 H169        5.8845  -16.4423  -47.0290 H         1 UNK         0.3000 
    170 H170        4.4747  -15.5321  -43.9298 H         1 UNK         0.0600 
    171 H171        6.7627  -16.2120  -43.1830 H         1 UNK         0.0600 
    172 H172        7.4550  -15.5041  -44.6378 H         1 UNK         0.0600 
    173 H173        6.6576  -14.4787  -43.4432 H         1 UNK         0.0600 
    174 H174        5.8679  -13.9300  -45.7602 H         1 UNK         0.3000 
    175 H175        4.5140  -12.3688  -46.8993 H         1 UNK         0.0600 
    176 H176        4.4951  -14.4519  -49.1604 H         1 UNK         0.0600 
    177 H177        5.0092  -12.7723  -49.3163 H         1 UNK         0.0600 
    178 H178        5.9298  -13.8808  -48.3173 H         1 UNK         0.0600 
    179 H179        2.5751  -12.9316  -48.8765 H         1 UNK         0.3000 
    180 H180        0.6869  -11.0429  -48.4992 H         1 UNK         0.0600 
    181 H181       -0.9733  -12.7763  -49.2906 H         1 UNK         0.0600 
    182 H182       -0.2130  -13.9687  -48.2429 H         1 UNK         0.0600 
    183 H183        0.6758  -13.2795  -49.5974 H         1 UNK         0.0600 
    184 H184       -0.6624  -12.2861  -46.1703 H         1 UNK         0.3000 
    185 H185       -2.1168   -9.3139  -45.2267 H         1 UNK         0.0600 
    186 H186       -3.8085  -11.5946  -46.3930 H         1 UNK         0.0600 
    187 H187       -4.3314  -10.4767  -45.1313 H         1 UNK         0.0600 
    188 H188       -3.9919   -9.8833  -46.7487 H         1 UNK         0.0600 
    189 H189       -2.3861  -12.0948  -44.4288 H         1 UNK         0.3000 
    190 H190       -0.4527  -22.8819  -43.2644 H         1 UNK         0.3000 
    191 H191       -2.1364  -23.8567  -41.1364 H         1 UNK         0.0600 
    192 H192        0.6344  -24.8203  -42.0192 H         1 UNK         0.0600 
    193 H193        0.3427  -23.4779  -40.9119 H         1 UNK         0.0600 
    194 H194       -0.1305  -25.1106  -40.4645 H         1 UNK         0.0600 
    195 H195       -1.3769  -25.0054  -44.3576 H         1 UNK         0.3000 
    196 H196       -2.9590  -27.5102  -43.9479 H         1 UNK         0.0600 
    197 H197       -0.5741  -27.9033  -44.6514 H         1 UNK         0.0600 
    198 H198       -0.8240  -26.8694  -46.0574 H         1 UNK         0.0600 
    199 H199       -1.7102  -28.3830  -45.9004 H         1 UNK         0.0600 
    200 H200       -3.7665  -24.6052  -44.4106 H         1 UNK         0.3000 
    201 H201       -5.1523  -23.3182  -45.5494 H         1 UNK         0.0600 
    202 H202       -7.1911  -24.3686  -46.4509 H         1 UNK         0.0600 
    203 H203       -6.7127  -25.2014  -44.9826 H         1 UNK         0.0600 
    204 H204       -6.3950  -25.9329  -46.5553 H         1 UNK         0.0600 
    205 H205       -2.6442  -24.1089  -46.9715 H         1 UNK         0.3000 
    206 H206       -1.5668  -24.0582  -48.8841 H         1 UNK         0.0600 
    207 H207       -2.3717  -21.7019  -48.9502 H         1 UNK         0.0600 
    208 H208       -3.7927  -22.1957  -49.8717 H         1 UNK         0.0600 
    209 H209       -2.1854  -22.3510  -50.5688 H         1 UNK         0.0600 
    210 H210       -3.3500  -26.2359  -48.4610 H         1 UNK         0.3000 
    211 H211       -4.2107  -28.0466  -49.3318 H         1 UNK         0.0600 
    212 H212       -2.0869  -28.1410  -50.6745 H         1 UNK         0.0600 
    213 H213       -3.4334  -28.9001  -51.5052 H         1 UNK         0.0600 
    214 H214       -2.8948  -27.3017  -51.9986 H         1 UNK         0.0600 
    215 H215       -5.6145  -25.3583  -49.6142 H         1 UNK         0.3000 
    216 H216       -7.4679  -24.4307  -50.2868 H         1 UNK         0.0600 
    217 H217       -9.4471  -25.7839  -50.8246 H         1 UNK         0.0600 
    218 H218       -8.4553  -27.1935  -51.1677 H         1 UNK         0.0600 
    219 H219       -8.5566  -26.5583  -49.5256 H         1 UNK         0.0600 
    220 H220       -5.1829  -24.6666  -52.1694 H         1 UNK         0.3000 
    221 H221       -6.2139  -24.9034  -54.8464 H         1 UNK         0.0600 
    222 H222       -3.6053  -23.6755  -53.7986 H         1 UNK         0.0600 
    223 H223       -3.8339  -25.3650  -54.2440 H         1 UNK         0.0600 
    224 H224       -3.9406  -24.1105  -55.4703 H         1 UNK         0.0600 
    225 H225       -6.9809  -23.3584  -56.2141 H         1 UNK         0.3000 
    226 H226       -7.7266  -20.7346  -55.2839 H         1 UNK         0.0600 
    227 H227       -9.0849  -22.0217  -56.9223 H         1 UNK         0.0600 
    228 H228       -8.5779  -20.4908  -57.6168 H         1 UNK         0.0600 
    229 H229       -7.7623  -21.9764  -58.0893 H         1 UNK         0.0600 
    230 H230       -4.8626  -22.0001  -56.7369 H         1 UNK         0.3000 
    231 H231       -3.8650  -19.5764  -57.9603 H         1 UNK         0.0600 
    232 H232       -1.8120  -20.9601  -58.2586 H         1 UNK         0.0600 
    233 H233       -3.2385  -21.8493  -58.7629 H         1 UNK         0.0600 
    234 H234       -2.4773  -22.2081  -57.2120 H         1 UNK         0.0600 
    235 H235       -4.1407  -20.4567  -54.6845 H         1 UNK         0.3000 
    236 H236       -1.7047  -19.6720  -53.5294 H         1 UNK         0.0600 
    237 H237       -3.4687  -20.9202  -52.3203 H         1 UNK         0.0600 
    238 H238       -3.0562  -19.4515  -51.4484 H         1 UNK         0.0600 
    239 H239       -4.5435  -19.5262  -52.3881 H         1 UNK         0.0600 
    240 H240       -0.7001  -17.7969  -53.6008 H         1 UNK         0.3000 
    241 H241       -0.1360  -15.6916  -53.6976 H         1 UNK         0.0600 
    242 H242       -1.8151  -15.6812  -57.1873 H         1 UNK         0.3800 
    243 H243       -1.6644  -17.0616  -56.1281 H         1 UNK         0.3800 
    244 H244       -1.4719  -13.8294  -52.8205 H         1 UNK         0.0800 
    245 H245       -2.9192  -14.7959  -52.8334 H         1 UNK         0.0800 
    246 H246       -3.4750  -14.4010  -50.2496 H         1 UNK         0.0800 
    247 H247       -3.7434  -16.0161  -50.8668 H         1 UNK         0.0800 
@<TRIPOS>BOND
     1    1    2 1    
     2    1  127 1    
     3    1  128 1    
     4    1  129 1    
     5    2    3 2    
     6    2    4 am   BACKBONE|DICT|INTERRES
     7    4    5 1    
     8    4  130 1    
     9    5    6 1    
    10    5   65 1    
    11    5  131 1    
    12    6    7 1    
    13    6  132 1    
    14    6  133 1    
    15    7    8 1    
    16    8    9 1    
    17    8  134 1    
    18    8  135 1    
    19    9   10 ar   
    20    9   14 ar   
    21   10   11 ar   
    22   10  136 1    
    23   11   12 ar   
    24   11  126 1    
    25   12   13 ar   
    26   12  137 1    
    27   13   14 ar   
    28   13   15 1    
    29   14  138 1    
    30   15   16 1    
    31   15  139 1    
    32   15  140 1    
    33   16   17 1    
    34   17   18 1    
    35   17  141 1    
    36   17  142 1    
    37   18   19 1    
    38   18   67 1    
    39   18  143 1    
    40   19   20 am   BACKBONE|DICT|INTERRES
    41   19  144 1    
    42   20   21 2    
    43   20   22 1    
    44   22   23 1    
    45   22   24 1    
    46   22  145 1    
    47   23  146 1    
    48   23  147 1    
    49   23  148 1    
    50   24   25 am   BACKBONE|DICT|INTERRES
    51   24  149 1    
    52   25   26 2    
    53   25   27 1    
    54   27   28 1    
    55   27   29 1    
    56   27  150 1    
    57   28  151 1    
    58   28  152 1    
    59   28  153 1    
    60   29   30 am   BACKBONE|DICT|INTERRES
    61   29  154 1    
    62   30   31 2    
    63   30   32 1    
    64   32   33 1    
    65   32   34 1    
    66   32  155 1    
    67   33  156 1    
    68   33  157 1    
    69   33  158 1    
    70   34   35 am   BACKBONE|DICT|INTERRES
    71   34  159 1    
    72   35   36 2    
    73   35   37 1    
    74   37   38 1    
    75   37   39 1    
    76   37  160 1    
    77   38  161 1    
    78   38  162 1    
    79   38  163 1    
    80   39   40 am   BACKBONE|DICT|INTERRES
    81   39  164 1    
    82   40   41 2    
    83   40   42 1    
    84   42   43 1    
    85   42   44 1    
    86   42  165 1    
    87   43  166 1    
    88   43  167 1    
    89   43  168 1    
    90   44   45 am   BACKBONE|DICT|INTERRES
    91   44  169 1    
    92   45   46 2    
    93   45   47 1    
    94   47   48 1    
    95   47   49 1    
    96   47  170 1    
    97   48  171 1    
    98   48  172 1    
    99   48  173 1    
   100   49   50 am   BACKBONE|DICT|INTERRES
   101   49  174 1    
   102   50   51 2    
   103   50   52 1    
   104   52   53 1    
   105   52   54 1    
   106   52  175 1    
   107   53  176 1    
   108   53  177 1    
   109   53  178 1    
   110   54   55 am   BACKBONE|DICT|INTERRES
   111   54  179 1    
   112   55   56 2    
   113   55   57 1    
   114   57   58 1    
   115   57   59 1    
   116   57  180 1    
   117   58  181 1    
   118   58  182 1    
   119   58  183 1    
   120   59   60 am   BACKBONE|DICT|INTERRES
   121   59  184 1    
   122   60   61 2    
   123   60   62 1    
   124   62   63 1    
   125   62   64 1    
   126   62  185 1    
   127   63  186 1    
   128   63  187 1    
   129   63  188 1    
   130   64   65 am   BACKBONE|DICT|INTERRES
   131   64  189 1    
   132   65   66 2    
   133   67   68 2    
   134   67   69 am   BACKBONE|DICT|INTERRES
   135   69   70 1    
   136   69  190 1    
   137   70   71 1    
   138   70   72 1    
   139   70  191 1    
   140   71  192 1    
   141   71  193 1    
   142   71  194 1    
   143   72   73 2    
   144   72   74 am   BACKBONE|DICT|INTERRES
   145   74   75 1    
   146   74  195 1    
   147   75   76 1    
   148   75   77 1    
   149   75  196 1    
   150   76  197 1    
   151   76  198 1    
   152   76  199 1    
   153   77   78 2    
   154   77   79 am   BACKBONE|DICT|INTERRES
   155   79   80 1    
   156   79  200 1    
   157   80   81 1    
   158   80   82 1    
   159   80  201 1    
   160   81  202 1    
   161   81  203 1    
   162   81  204 1    
   163   82   83 2    
   164   82   84 am   BACKBONE|DICT|INTERRES
   165   84   85 1    
   166   84  205 1    
   167   85   86 1    
   168   85   87 1    
   169   85  206 1    
   170   86  207 1    
   171   86  208 1    
   172   86  209 1    
   173   87   88 2    
   174   87   89 am   BACKBONE|DICT|INTERRES
   175   89   90 1    
   176   89  210 1    
   177   90   91 1    
   178   90   92 1    
   179   90  211 1    
   180   91  212 1    
   181   91  213 1    
   182   91  214 1    
   183   92   93 2    
   184   92   94 am   BACKBONE|DICT|INTERRES
   185   94   95 1    
   186   94  215 1    
   187   95   96 1    
   188   95   97 1    
   189   95  216 1    
   190   96  217 1    
   191   96  218 1    
   192   96  219 1    
   193   97   98 2    
   194   97   99 am   BACKBONE|DICT|INTERRES
   195   99  100 1    
   196   99  220 1    
   197  100  101 1    
   198  100  102 1    
   199  100  221 1    
   200  101  222 1    
   201  101  223 1    
   202  101  224 1    
   203  102  103 2    
   204  102  104 am   BACKBONE|DICT|INTERRES
   205  104  105 1    
   206  104  225 1    
   207  105  106 1    
   208  105  107 1    
   209  105  226 1    
   210  106  227 1    
   211  106  228 1    
   212  106  229 1    
   213  107  108 2    
   214  107  109 am   BACKBONE|DICT|INTERRES
   215  109  110 1    
   216  109  230 1    
   217  110  111 1    
   218  110  112 1    
   219  110  231 1    
   220  111  232 1    
   221  111  233 1    
   222  111  234 1    
   223  112  113 2    
   224  112  114 am   BACKBONE|DICT|INTERRES
   225  114  115 1    
   226  114  235 1    
   227  115  116 1    
   228  115  117 1    
   229  115  236 1    
   230  116  237 1    
   231  116  238 1    
   232  116  239 1    
   233  117  118 2    
   234  117  119 am   BACKBONE|DICT|INTERRES
   235  119  120 1    
   236  119  240 1    
   237  120  121 1    
   238  120  124 1    
   239  120  241 1    
   240  121  122 am   BACKBONE|DICT|INTERRES
   241  121  123 2    
   242  122  242 1    
   243  122  243 1    
   244  124  125 1    
   245  124  244 1    
   246  124  245 1    
   247  125  126 1    
   248  126  246 1    
   249  126  247 1    
@<TRIPOS>SUBSTRUCTURE
     1 UNK         1 GROUP             0       ****    0 ROOT    
