@<TRIPOS>MOLECULE
3R540
247   249    1
SMALL
USER_CHARGES


@<TRIPOS>ATOM
      1 CA         -4.6914  -15.9676  -43.5683 C.3       0 UNK        -0.1800 
      2 C          -4.1953  -14.9690  -44.6050 C.2       0 UNK         0.5000 
      3 O          -4.8717  -13.9774  -44.8786 O.2       0 UNK        -0.5000 
      4 N          -3.0211  -15.2361  -45.1872 N.am      1 UNK        -0.5000 
      5 CA         -2.3465  -14.3812  -46.1646 C.3       1 UNK         0.1400 
      6 C6         -1.2003  -15.1502  -46.8605 C.3       23 UNK        -0.0398 
      7 S7         -0.6475  -14.3709  -48.4163 S.3       23 UNK        -0.2404 
      8 C8         -1.7488  -15.1180  -49.6622 C.3       23 UNK        -0.0205 
      9 C9         -1.6941  -16.6385  -49.6660 C.ar      23 UNK        -0.0193 
     10 C10        -0.5039  -17.3063  -49.9681 C.ar      23 UNK        -0.1150 
     11 C11        -0.4476  -18.7031  -49.9472 C.ar      23 UNK        -0.0193 
     12 C12        -1.5981  -19.4313  -49.6347 C.ar      23 UNK        -0.1150 
     13 C13        -2.7952  -18.7735  -49.3374 C.ar      23 UNK        -0.0193 
     14 C14        -2.8371  -17.3782  -49.3532 C.ar      23 UNK        -0.1150 
     15 C15        -4.0423  -19.5717  -48.9956 C.3       23 UNK        -0.0205 
     16 S16        -4.5286  -19.4330  -47.2436 S.3       23 UNK        -0.2404 
     17 C17        -2.9654  -19.7458  -46.3554 C.3       23 UNK        -0.0398 
     18 CA         -2.5185  -21.2293  -46.3548 C.3       11 UNK         0.1400 
     19 N          -1.0799  -21.3514  -46.0967 N.am      11 UNK        -0.5000 
     20 C          -0.3761  -22.4927  -46.0877 C.2       10 UNK         0.5000 
     21 O          -0.8538  -23.5974  -46.3366 O.2       10 UNK        -0.5000 
     22 CA          1.0994  -22.3937  -45.6597 C.3       10 UNK         0.1400 
     23 CB          1.9769  -21.8785  -46.8106 C.3       10 UNK        -0.1800 
     24 N           1.2780  -21.5542  -44.4735 N.am      10 UNK        -0.5000 
     25 C           0.7479  -21.8251  -43.2709 C.2       9 UNK         0.5000 
     26 O           0.1119  -22.8480  -43.0202 O.2       9 UNK        -0.5000 
     27 CA          0.8990  -20.7500  -42.1804 C.3       9 UNK         0.1400 
     28 CB          2.2815  -20.8290  -41.5166 C.3       9 UNK        -0.1800 
     29 N           0.6675  -19.3992  -42.6924 N.am      9 UNK        -0.5000 
     30 C          -0.4954  -18.9686  -43.2006 C.2       8 UNK         0.5000 
     31 O          -1.5202  -19.6493  -43.2346 O.2       8 UNK        -0.5000 
     32 CA         -0.5043  -17.5636  -43.8294 C.3       8 UNK         0.1400 
     33 CB         -0.6646  -16.4772  -42.7570 C.3       8 UNK        -0.1800 
     34 N           0.6884  -17.2975  -44.6351 N.am      8 UNK        -0.5000 
     35 C           1.0055  -17.9674  -45.7532 C.2       7 UNK         0.5000 
     36 O           0.2878  -18.8316  -46.2517 O.2       7 UNK        -0.5000 
     37 CA          2.3743  -17.6663  -46.3861 C.3       7 UNK         0.1400 
     38 CB          2.3149  -16.4340  -47.3005 C.3       7 UNK        -0.1800 
     39 N           3.4095  -17.4838  -45.3700 N.am      7 UNK        -0.5000 
     40 C           3.8932  -18.4737  -44.6056 C.2       6 UNK         0.5000 
     41 O           3.5534  -19.6513  -44.7181 O.2       6 UNK        -0.5000 
     42 CA          4.8874  -18.0698  -43.5012 C.3       6 UNK         0.1400 
     43 CB          6.3122  -17.9702  -44.0658 C.3       6 UNK        -0.1800 
     44 N           4.5287  -16.8018  -42.8633 N.am      6 UNK        -0.5000 
     45 C           3.4316  -16.6112  -42.1158 C.2       5 UNK         0.5000 
     46 O           2.6358  -17.5053  -41.8357 O.2       5 UNK        -0.5000 
     47 CA          3.1485  -15.1704  -41.6499 C.3       5 UNK         0.1400 
     48 CB          3.8188  -14.8989  -40.2953 C.3       5 UNK        -0.1800 
     49 N           3.5891  -14.1670  -42.6223 N.am      5 UNK        -0.5000 
     50 C           3.0676  -14.0211  -43.8469 C.2       4 UNK         0.5000 
     51 O           2.1233  -14.6886  -44.2780 O.2       4 UNK        -0.5000 
     52 CA          3.7814  -13.0263  -44.7669 C.3       4 UNK         0.1400 
     53 CB          4.9807  -13.7176  -45.4482 C.3       4 UNK        -0.1800 
     54 N           2.8426  -12.5323  -45.7685 N.am      4 UNK        -0.5000 
     55 C           3.0612  -11.4893  -46.5780 C.2       3 UNK         0.5000 
     56 O           4.0812  -10.7990  -46.5471 O.2       3 UNK        -0.5000 
     57 CA          1.9601  -11.1558  -47.5993 C.3       3 UNK         0.1400 
     58 CB          2.1106  -12.0353  -48.8503 C.3       3 UNK        -0.1800 
     59 N           0.6025  -11.2881  -47.0659 N.am      3 UNK        -0.5000 
     60 C           0.0650  -10.4698  -46.1475 C.2       2 UNK         0.5000 
     61 O           0.6897   -9.5621  -45.5973 O.2       2 UNK        -0.5000 
     62 CA         -1.4266  -10.6620  -45.8060 C.3       2 UNK         0.1400 
     63 CB         -2.2716   -9.5626  -46.4693 C.3       2 UNK        -0.1800 
     64 N          -1.9453  -11.9648  -46.2243 N.am      2 UNK        -0.5000 
     65 C          -1.8245  -13.0866  -45.5059 C.2       1 UNK         0.5000 
     66 O          -1.2958  -13.1329  -44.3933 O.2       1 UNK        -0.5000 
     67 C          -3.3656  -22.0745  -45.3802 C.2       11 UNK         0.5000 
     68 O          -4.2663  -22.7920  -45.8169 O.2       11 UNK        -0.5000 
     69 N          -3.0377  -21.9947  -44.0830 N.am      12 UNK        -0.5000 
     70 CA         -3.6750  -22.7662  -43.0177 C.3       12 UNK         0.1400 
     71 CB         -3.2266  -22.2158  -41.6553 C.3       12 UNK        -0.1800 
     72 C          -3.3952  -24.2779  -43.1172 C.2       12 UNK         0.5000 
     73 O          -4.2987  -25.0752  -42.8623 O.2       12 UNK        -0.5000 
     74 N          -2.1580  -24.6437  -43.4802 N.am      13 UNK        -0.5000 
     75 CA         -1.7156  -26.0270  -43.6437 C.3       13 UNK         0.1400 
     76 CB         -0.1805  -26.0764  -43.7092 C.3       13 UNK        -0.1800 
     77 C          -2.3432  -26.7126  -44.8703 C.2       13 UNK         0.5000 
     78 O          -2.9363  -27.7829  -44.7255 O.2       13 UNK        -0.5000 
     79 N          -2.2030  -26.0919  -46.0475 N.am      14 UNK        -0.5000 
     80 CA         -2.6705  -26.6051  -47.3313 C.3       14 UNK         0.1400 
     81 CB         -1.8437  -27.8350  -47.7647 C.3       14 UNK        -0.1800 
     82 C          -2.5884  -25.4774  -48.3684 C.2       14 UNK         0.5000 
     83 O          -1.5313  -25.2751  -48.9700 O.2       14 UNK        -0.5000 
     84 N          -3.6988  -24.7495  -48.5416 N.am      15 UNK        -0.5000 
     85 CA         -3.8589  -23.6689  -49.5158 C.3       15 UNK         0.1400 
     86 CB         -5.2701  -23.0787  -49.3687 C.3       15 UNK        -0.1800 
     87 C          -3.6039  -24.1378  -50.9618 C.2       15 UNK         0.5000 
     88 O          -4.1541  -25.1624  -51.3750 O.2       15 UNK        -0.5000 
     89 N          -2.7712  -23.3857  -51.6925 N.am      16 UNK        -0.5000 
     90 CA         -2.3266  -23.6783  -53.0544 C.3       16 UNK         0.1400 
     91 CB         -1.2673  -22.6433  -53.4637 C.3       16 UNK        -0.1800 
     92 C          -3.5073  -23.6977  -54.0389 C.2       16 UNK         0.5000 
     93 O          -4.1120  -22.6535  -54.2817 O.2       16 UNK        -0.5000 
     94 N          -3.8530  -24.8962  -54.5303 N.am      17 UNK        -0.5000 
     95 CA         -5.0292  -25.1923  -55.3608 C.3       17 UNK         0.1400 
     96 CB         -4.8888  -24.5406  -56.7532 C.3       17 UNK        -0.1800 
     97 C          -6.3665  -24.8385  -54.6668 C.2       17 UNK         0.5000 
     98 O          -7.3395  -24.5031  -55.3441 O.2       17 UNK        -0.5000 
     99 N          -6.3757  -24.9032  -53.3246 N.am      18 UNK        -0.5000 
    100 CA        -7.4488  -24.4821  -52.4175 C.3       18 UNK         0.1400 
    101 CB        -8.7070  -25.3570  -52.5993 C.3       18 UNK        -0.1800 
    102 C         -7.7477  -22.9666  -52.4883 C.2       18 UNK         0.5000 
    103 O         -8.8795  -22.5526  -52.2305 O.2       18 UNK        -0.5000 
    104 N         -6.7340  -22.1639  -52.8352 N.am      19 UNK        -0.5000 
    105 CA        -6.8174  -20.7206  -53.0248 C.3       19 UNK         0.1400 
    106 CB        -7.1899  -20.4375  -54.4943 C.3       19 UNK        -0.1800 
    107 C         -5.4848  -20.0613  -52.6265 C.2       19 UNK         0.5000 
    108 O         -4.6070  -20.7147  -52.0588 O.2       19 UNK        -0.5000 
    109 N         -5.3474  -18.7699  -52.9449 N.am      20 UNK        -0.5000 
    110 CA        -4.1272  -17.9832  -52.7681 C.3       20 UNK         0.1400 
    111 CB        -4.5128  -16.5677  -52.3017 C.3       20 UNK        -0.1800 
    112 C         -3.2904  -17.9766  -54.0630 C.2       20 UNK         0.5000 
    113 O         -2.8353  -16.9190  -54.5032 O.2       20 UNK        -0.5000 
    114 N         -3.0996  -19.1602  -54.6656 N.am      21 UNK        -0.5000 
    115 CA        -2.3822  -19.3485  -55.9331 C.3       21 UNK         0.1400 
    116 CB        -2.7294  -20.7264  -56.5173 C.3       21 UNK        -0.1800 
    117 C         -0.8529  -19.1487  -55.8389 C.2       21 UNK         0.5000 
    118 O         -0.1766  -19.2066  -56.8669 O.2       21 UNK        -0.5000 
    119 N         -0.3347  -18.9013  -54.6282 N.am      22 UNK        -0.5000 
    120 CA         1.0598  -18.5177  -54.3534 C.3       22 UNK         0.1400 
    121 C          1.4980  -17.1682  -54.9991 C.2       22 UNK         0.5000 
    122 N          0.5829  -16.2653  -55.3348 N.am      22 UNK        -0.7600 
    123 O          2.6882  -16.9384  -55.1943 O.2       22 UNK        -0.5000 
    124 C124        1.3548  -18.4715  -52.8325 C.3       23 UNK        -0.0398 
    125 S125        0.9542  -20.0190  -51.9533 S.3       23 UNK        -0.2404 
    126 C126        0.8575  -19.4313  -50.2322 C.3       23 UNK        -0.0205 
    127 H127       -4.0191  -16.8206  -43.4702 H         1 UNK         0.0600 
    128 H128       -5.6750  -16.3434  -43.8500 H         1 UNK         0.0600 
    129 H129       -4.7749  -15.4863  -42.5940 H         1 UNK         0.0600 
    130 H130       -2.5072  -16.0503  -44.8938 H         1 UNK         0.3000 
    131 H131       -3.0905  -14.1155  -46.9191 H         1 UNK         0.0600 
    132 H132       -1.4997  -16.1783  -47.0644 H         1 UNK         0.0800 
    133 H133       -0.3379  -15.2291  -46.1972 H         1 UNK         0.0800 
    134 H134       -1.4629  -14.7523  -50.6492 H         1 UNK         0.0800 
    135 H135       -2.7671  -14.7666  -49.4897 H         1 UNK         0.0800 
    136 H136        0.3820  -16.7331  -50.2009 H         1 UNK         0.1150 
    137 H137       -1.5553  -20.5107  -49.6149 H         1 UNK         0.1150 
    138 H138       -3.7615  -16.8719  -49.1133 H         1 UNK         0.1150 
    139 H139       -4.8692  -19.2270  -49.6177 H         1 UNK         0.0800 
    140 H140       -3.8972  -20.6207  -49.2456 H         1 UNK         0.0800 
    141 H141       -3.0786  -19.3720  -45.3373 H         1 UNK         0.0800 
    142 H142       -2.1967  -19.1153  -46.7988 H         1 UNK         0.0800 
    143 H143       -2.6745  -21.6349  -47.3544 H         1 UNK         0.0600 
    144 H144       -0.5809  -20.4813  -45.9294 H         1 UNK         0.3000 
    145 H145        1.4386  -23.3997  -45.4047 H         1 UNK         0.0600 
    146 H146        3.0294  -21.8645  -46.5274 H         1 UNK         0.0600 
    147 H147        1.8835  -22.5202  -47.6876 H         1 UNK         0.0600 
    148 H148        1.6999  -20.8699  -47.1141 H         1 UNK         0.0600 
    149 H149        1.8362  -20.7144  -44.5865 H         1 UNK         0.3000 
    150 H150        0.1455  -20.9472  -41.4151 H         1 UNK         0.0600 
    151 H151        2.4590  -21.8225  -41.1030 H         1 UNK         0.0600 
    152 H152        2.3660  -20.1153  -40.6969 H         1 UNK         0.0600 
    153 H153        3.0829  -20.6205  -42.2250 H         1 UNK         0.0600 
    154 H154        1.4467  -18.7494  -42.6316 H         1 UNK         0.3000 
    155 H155       -1.3664  -17.5129  -44.4960 H         1 UNK         0.0600 
    156 H156        0.1378  -16.5145  -42.0210 H         1 UNK         0.0600 
    157 H157       -1.6056  -16.5967  -42.2189 H         1 UNK         0.0600 
    158 H158       -0.6637  -15.4806  -43.1978 H         1 UNK         0.0600 
    159 H159        1.3098  -16.5631  -44.3129 H         1 UNK         0.3000 
    160 H160        2.6484  -18.5250  -47.0026 H         1 UNK         0.0600 
    161 H161        2.0658  -15.5258  -46.7533 H         1 UNK         0.0600 
    162 H162        1.5596  -16.5649  -48.0746 H         1 UNK         0.0600 
    163 H163        3.2679  -16.2697  -47.8032 H         1 UNK         0.0600 
    164 H164        3.7036  -16.5375  -45.1845 H         1 UNK         0.3000 
    165 H165        4.8748  -18.8508  -42.7381 H         1 UNK         0.0600 
    166 H166        7.0344  -17.7571  -43.2775 H         1 UNK         0.0600 
    167 H167        6.6120  -18.9084  -44.5346 H         1 UNK         0.0600 
    168 H168        6.3952  -17.1854  -44.8189 H         1 UNK         0.0600 
    169 H169        5.1387  -16.0164  -43.0324 H         1 UNK         0.3000 
    170 H170        2.0688  -15.0673  -41.5240 H         1 UNK         0.0600 
    171 H171        3.4903  -15.6210  -39.5464 H         1 UNK         0.0600 
    172 H172        4.9055  -14.9657  -40.3613 H         1 UNK         0.0600 
    173 H173        3.5647  -13.9069  -39.9213 H         1 UNK         0.0600 
    174 H174        4.3667  -13.5846  -42.3459 H         1 UNK         0.3000 
    175 H175        4.1315  -12.1848  -44.1655 H         1 UNK         0.0600 
    176 H176        4.6575  -14.5272  -46.1037 H         1 UNK         0.0600 
    177 H177        5.5599  -13.0168  -46.0490 H         1 UNK         0.0600 
    178 H178        5.6644  -14.1421  -44.7122 H         1 UNK         0.0600 
    179 H179        1.9673  -13.0380  -45.8148 H         1 UNK         0.3000 
    180 H180        2.0961  -10.1159  -47.9042 H         1 UNK         0.0600 
    181 H181        2.0388  -13.0965  -48.6093 H         1 UNK         0.0600 
    182 H182        3.0810  -11.8755  -49.3219 H         1 UNK         0.0600 
    183 H183        1.3468  -11.8052  -49.5933 H         1 UNK         0.0600 
    184 H184        0.0261  -12.0142  -47.4661 H         1 UNK         0.3000 
    185 H185       -1.5322  -10.5615  -44.7235 H         1 UNK         0.0600 
    186 H186       -1.9392   -8.5715  -46.1576 H         1 UNK         0.0600 
    187 H187       -2.2049   -9.6038  -47.5573 H         1 UNK         0.0600 
    188 H188       -3.3224   -9.6524  -46.1930 H         1 UNK         0.0600 
    189 H189       -2.3916  -12.0017  -47.1298 H         1 UNK         0.3000 
    190 H190       -2.3116  -21.3421  -43.8011 H         1 UNK         0.3000 
    191 H191       -4.7542  -22.6228  -43.1017 H         1 UNK         0.0600 
    192 H192       -2.1490  -22.3095  -41.5176 H         1 UNK         0.0600 
    193 H193       -3.7106  -22.7525  -40.8384 H         1 UNK         0.0600 
    194 H194       -3.4852  -21.1618  -41.5517 H         1 UNK         0.0600 
    195 H195       -1.4555  -23.9232  -43.6146 H         1 UNK         0.3000 
    196 H196       -2.0262  -26.5852  -42.7579 H         1 UNK         0.0600 
    197 H197        0.1731  -27.1009  -43.8313 H         1 UNK         0.0600 
    198 H198        0.2643  -25.6859  -42.7938 H         1 UNK         0.0600 
    199 H199        0.2086  -25.4924  -44.5435 H         1 UNK         0.0600 
    200 H200       -1.7190  -25.1942  -46.0881 H         1 UNK         0.3000 
    201 H201       -3.7151  -26.9076  -47.2325 H         1 UNK         0.0600 
    202 H202       -2.0052  -28.6835  -47.1002 H         1 UNK         0.0600 
    203 H203       -0.7749  -27.6178  -47.7745 H         1 UNK         0.0600 
    204 H204       -2.1232  -28.1576  -48.7684 H         1 UNK         0.0600 
    205 H205       -4.5110  -24.9656  -47.9826 H         1 UNK         0.3000 
    206 H206       -3.1288  -22.8964  -49.2715 H         1 UNK         0.0600 
    207 H207       -6.0386  -23.8450  -49.4668 H         1 UNK         0.0600 
    208 H208       -5.3972  -22.6040  -48.3955 H         1 UNK         0.0600 
    209 H209       -5.4652  -22.3197  -50.1257 H         1 UNK         0.0600 
    210 H210       -2.4253  -22.5235  -51.2997 H         1 UNK         0.3000 
    211 H211       -1.8525  -24.6619  -53.0482 H         1 UNK         0.0600 
    212 H212       -1.6634  -21.6272  -53.4408 H         1 UNK         0.0600 
    213 H213       -0.9008  -22.8353  -54.4725 H         1 UNK         0.0600 
    214 H214       -0.4057  -22.6801  -52.7971 H         1 UNK         0.0600 
    215 H215       -3.3167  -25.7025  -54.2407 H         1 UNK         0.3000 
    216 H216       -5.0402  -26.2738  -55.5022 H         1 UNK         0.0600 
    217 H217       -5.6781  -24.8789  -57.4253 H         1 UNK         0.0600 
    218 H218       -3.9370  -24.8004  -57.2164 H         1 UNK         0.0600 
    219 H219       -4.9499  -23.4531  -56.7004 H         1 UNK         0.0600 
    220 H220       -5.5141  -25.1731  -52.8588 H         1 UNK         0.3000 
    221 H221       -7.0735  -24.6665  -51.4112 H         1 UNK         0.0600 
    222 H222       -9.1977  -25.1711  -53.5549 H         1 UNK         0.0600 
    223 H223       -8.4609  -26.4176  -52.5482 H         1 UNK         0.0600 
    224 H224       -9.4378  -25.1574  -51.8148 H         1 UNK         0.0600 
    225 H225       -5.8166  -22.5531  -53.0274 H         1 UNK         0.3000 
    226 H226       -7.5865  -20.3071  -52.3695 H         1 UNK         0.0600 
    227 H227       -8.1074  -20.9552  -54.7749 H         1 UNK         0.0600 
    228 H228       -7.3590  -19.3754  -54.6724 H         1 UNK         0.0600 
    229 H229       -6.4029  -20.7687  -55.1740 H         1 UNK         0.0600 
    230 H230       -6.1020  -18.3081  -53.4316 H         1 UNK         0.3000 
    231 H231       -3.5008  -18.4307  -51.9961 H         1 UNK         0.0600 
    232 H232       -5.0880  -16.6024  -51.3764 H         1 UNK         0.0600 
    233 H233       -5.1106  -16.0450  -53.0491 H         1 UNK         0.0600 
    234 H234       -3.6255  -15.9641  -52.1071 H         1 UNK         0.0600 
    235 H235       -3.4899  -19.9916  -54.2396 H         1 UNK         0.3000 
    236 H236       -2.7513  -18.5956  -56.6325 H         1 UNK         0.0600 
    237 H237       -2.3062  -21.5332  -55.9221 H         1 UNK         0.0600 
    238 H238       -3.8079  -20.8772  -56.5708 H         1 UNK         0.0600 
    239 H239       -2.3370  -20.8316  -57.5293 H         1 UNK         0.0600 
    240 H240       -0.9579  -18.8967  -53.8356 H         1 UNK         0.3000 
    241 H241        1.6924  -19.2911  -54.7927 H         1 UNK         0.0600 
    242 H242       -0.3981  -16.4391  -55.1698 H         1 UNK         0.3800 
    243 H243        0.8738  -15.3960  -55.7537 H         1 UNK         0.3800 
    244 H244        2.4101  -18.2561  -52.6548 H         1 UNK         0.0800 
    245 H245        0.7961  -17.6523  -52.3800 H         1 UNK         0.0800 
    246 H246        1.7126  -18.7907  -50.0110 H         1 UNK         0.0800 
    247 H247        0.9432  -20.2892  -49.5636 H         1 UNK         0.0800 
@<TRIPOS>BOND
     1    1    2 1    
     2    1  127 1    
     3    1  128 1    
     4    1  129 1    
     5    2    3 2    
     6    2    4 am   BACKBONE|DICT|INTERRES
     7    4    5 1    
     8    4  130 1    
     9    5    6 1    
    10    5   65 1    
    11    5  131 1    
    12    6    7 1    
    13    6  132 1    
    14    6  133 1    
    15    7    8 1    
    16    8    9 1    
    17    8  134 1    
    18    8  135 1    
    19    9   10 ar   
    20    9   14 ar   
    21   10   11 ar   
    22   10  136 1    
    23   11   12 ar   
    24   11  126 1    
    25   12   13 ar   
    26   12  137 1    
    27   13   14 ar   
    28   13   15 1    
    29   14  138 1    
    30   15   16 1    
    31   15  139 1    
    32   15  140 1    
    33   16   17 1    
    34   17   18 1    
    35   17  141 1    
    36   17  142 1    
    37   18   19 1    
    38   18   67 1    
    39   18  143 1    
    40   19   20 am   BACKBONE|DICT|INTERRES
    41   19  144 1    
    42   20   21 2    
    43   20   22 1    
    44   22   23 1    
    45   22   24 1    
    46   22  145 1    
    47   23  146 1    
    48   23  147 1    
    49   23  148 1    
    50   24   25 am   BACKBONE|DICT|INTERRES
    51   24  149 1    
    52   25   26 2    
    53   25   27 1    
    54   27   28 1    
    55   27   29 1    
    56   27  150 1    
    57   28  151 1    
    58   28  152 1    
    59   28  153 1    
    60   29   30 am   BACKBONE|DICT|INTERRES
    61   29  154 1    
    62   30   31 2    
    63   30   32 1    
    64   32   33 1    
    65   32   34 1    
    66   32  155 1    
    67   33  156 1    
    68   33  157 1    
    69   33  158 1    
    70   34   35 am   BACKBONE|DICT|INTERRES
    71   34  159 1    
    72   35   36 2    
    73   35   37 1    
    74   37   38 1    
    75   37   39 1    
    76   37  160 1    
    77   38  161 1    
    78   38  162 1    
    79   38  163 1    
    80   39   40 am   BACKBONE|DICT|INTERRES
    81   39  164 1    
    82   40   41 2    
    83   40   42 1    
    84   42   43 1    
    85   42   44 1    
    86   42  165 1    
    87   43  166 1    
    88   43  167 1    
    89   43  168 1    
    90   44   45 am   BACKBONE|DICT|INTERRES
    91   44  169 1    
    92   45   46 2    
    93   45   47 1    
    94   47   48 1    
    95   47   49 1    
    96   47  170 1    
    97   48  171 1    
    98   48  172 1    
    99   48  173 1    
   100   49   50 am   BACKBONE|DICT|INTERRES
   101   49  174 1    
   102   50   51 2    
   103   50   52 1    
   104   52   53 1    
   105   52   54 1    
   106   52  175 1    
   107   53  176 1    
   108   53  177 1    
   109   53  178 1    
   110   54   55 am   BACKBONE|DICT|INTERRES
   111   54  179 1    
   112   55   56 2    
   113   55   57 1    
   114   57   58 1    
   115   57   59 1    
   116   57  180 1    
   117   58  181 1    
   118   58  182 1    
   119   58  183 1    
   120   59   60 am   BACKBONE|DICT|INTERRES
   121   59  184 1    
   122   60   61 2    
   123   60   62 1    
   124   62   63 1    
   125   62   64 1    
   126   62  185 1    
   127   63  186 1    
   128   63  187 1    
   129   63  188 1    
   130   64   65 am   BACKBONE|DICT|INTERRES
   131   64  189 1    
   132   65   66 2    
   133   67   68 2    
   134   67   69 am   BACKBONE|DICT|INTERRES
   135   69   70 1    
   136   69  190 1    
   137   70   71 1    
   138   70   72 1    
   139   70  191 1    
   140   71  192 1    
   141   71  193 1    
   142   71  194 1    
   143   72   73 2    
   144   72   74 am   BACKBONE|DICT|INTERRES
   145   74   75 1    
   146   74  195 1    
   147   75   76 1    
   148   75   77 1    
   149   75  196 1    
   150   76  197 1    
   151   76  198 1    
   152   76  199 1    
   153   77   78 2    
   154   77   79 am   BACKBONE|DICT|INTERRES
   155   79   80 1    
   156   79  200 1    
   157   80   81 1    
   158   80   82 1    
   159   80  201 1    
   160   81  202 1    
   161   81  203 1    
   162   81  204 1    
   163   82   83 2    
   164   82   84 am   BACKBONE|DICT|INTERRES
   165   84   85 1    
   166   84  205 1    
   167   85   86 1    
   168   85   87 1    
   169   85  206 1    
   170   86  207 1    
   171   86  208 1    
   172   86  209 1    
   173   87   88 2    
   174   87   89 am   BACKBONE|DICT|INTERRES
   175   89   90 1    
   176   89  210 1    
   177   90   91 1    
   178   90   92 1    
   179   90  211 1    
   180   91  212 1    
   181   91  213 1    
   182   91  214 1    
   183   92   93 2    
   184   92   94 am   BACKBONE|DICT|INTERRES
   185   94   95 1    
   186   94  215 1    
   187   95   96 1    
   188   95   97 1    
   189   95  216 1    
   190   96  217 1    
   191   96  218 1    
   192   96  219 1    
   193   97   98 2    
   194   97   99 am   BACKBONE|DICT|INTERRES
   195   99  100 1    
   196   99  220 1    
   197  100  101 1    
   198  100  102 1    
   199  100  221 1    
   200  101  222 1    
   201  101  223 1    
   202  101  224 1    
   203  102  103 2    
   204  102  104 am   BACKBONE|DICT|INTERRES
   205  104  105 1    
   206  104  225 1    
   207  105  106 1    
   208  105  107 1    
   209  105  226 1    
   210  106  227 1    
   211  106  228 1    
   212  106  229 1    
   213  107  108 2    
   214  107  109 am   BACKBONE|DICT|INTERRES
   215  109  110 1    
   216  109  230 1    
   217  110  111 1    
   218  110  112 1    
   219  110  231 1    
   220  111  232 1    
   221  111  233 1    
   222  111  234 1    
   223  112  113 2    
   224  112  114 am   BACKBONE|DICT|INTERRES
   225  114  115 1    
   226  114  235 1    
   227  115  116 1    
   228  115  117 1    
   229  115  236 1    
   230  116  237 1    
   231  116  238 1    
   232  116  239 1    
   233  117  118 2    
   234  117  119 am   BACKBONE|DICT|INTERRES
   235  119  120 1    
   236  119  240 1    
   237  120  121 1    
   238  120  124 1    
   239  120  241 1    
   240  121  122 am   BACKBONE|DICT|INTERRES
   241  121  123 2    
   242  122  242 1    
   243  122  243 1    
   244  124  125 1    
   245  124  244 1    
   246  124  245 1    
   247  125  126 1    
   248  126  246 1    
   249  126  247 1    
@<TRIPOS>SUBSTRUCTURE
     1 UNK         1 GROUP             0       ****    0 ROOT    
