@<TRIPOS>MOLECULE
3R540
247   249    1
SMALL
USER_CHARGES


@<TRIPOS>ATOM
      1 CA          6.9742  -15.1599  -46.9205 C.3       0 UNK        -0.1800 
      2 C           6.0029  -13.9974  -47.0672 C.2       0 UNK         0.5000 
      3 O           6.2358  -13.1084  -47.8855 O.2       0 UNK        -0.5000 
      4 N           4.9192  -14.0085  -46.2771 N.am      1 UNK        -0.5000 
      5 CA          3.8465  -13.0009  -46.2492 C.3       1 UNK         0.1400 
      6 C6          3.0463  -12.8926  -47.5778 C.3       23 UNK        -0.0398 
      7 S7          2.1611  -14.4312  -47.9960 S.3       23 UNK        -0.2404 
      8 C8          3.1774  -15.0865  -49.3597 C.3       23 UNK        -0.0205 
      9 C9          2.5109  -16.2667  -50.0561 C.ar      23 UNK        -0.0193 
     10 C10         1.4273  -16.0431  -50.9093 C.ar      23 UNK        -0.1150 
     11 C11         0.8060  -17.1037  -51.5779 C.ar      23 UNK        -0.0193 
     12 C12         1.3078  -18.3989  -51.4109 C.ar      23 UNK        -0.1150 
     13 C13         2.4147  -18.6369  -50.5887 C.ar      23 UNK        -0.0193 
     14 C14         2.9993  -17.5686  -49.8976 C.ar      23 UNK        -0.1150 
     15 C15         3.0334  -20.0294  -50.5210 C.3       23 UNK        -0.0205 
     16 S16         2.5890  -20.9527  -49.0172 S.3       23 UNK        -0.2404 
     17 C17         0.8554  -21.4043  -49.3539 C.3       23 UNK        -0.0398 
     18 CA          0.2934  -22.4378  -48.3450 C.3       11 UNK         0.1400 
     19 N           0.2370  -21.9289  -46.9706 N.am      11 UNK        -0.5000 
     20 C          -0.0917  -22.6504  -45.8895 C.2       10 UNK         0.5000 
     21 O          -0.3542  -23.8523  -45.9249 O.2       10 UNK        -0.5000 
     22 CA         -0.1879  -21.9002  -44.5476 C.3       10 UNK         0.1400 
     23 CB          1.2015  -21.6818  -43.9299 C.3       10 UNK        -0.1800 
     24 N          -0.8863  -20.6199  -44.6677 N.am      10 UNK        -0.5000 
     25 C          -2.1893  -20.4959  -44.9588 C.2       9 UNK         0.5000 
     26 O          -2.9478  -21.4518  -45.1197 O.2       9 UNK        -0.5000 
     27 CA         -2.7264  -19.0650  -45.1521 C.3       9 UNK         0.1400 
     28 CB         -2.9911  -18.3852  -43.8005 C.3       9 UNK        -0.1800 
     29 N          -1.8286  -18.2316  -45.9494 N.am      9 UNK        -0.5000 
     30 C          -1.4803  -18.4919  -47.2176 C.2       8 UNK         0.5000 
     31 O          -1.9211  -19.4330  -47.8744 O.2       8 UNK        -0.5000 
     32 CA         -0.4136  -17.5747  -47.8315 C.3       8 UNK         0.1400 
     33 CB         -1.0737  -16.2792  -48.3233 C.3       8 UNK        -0.1800 
     34 N           0.6767  -17.2788  -46.8951 N.am      8 UNK        -0.5000 
     35 C           1.4696  -18.2099  -46.3420 C.2       7 UNK         0.5000 
     36 O           1.3511  -19.4115  -46.5527 O.2       7 UNK        -0.5000 
     37 CA          2.5244  -17.7490  -45.3247 C.3       7 UNK         0.1400 
     38 CB          3.8149  -17.2956  -46.0190 C.3       7 UNK        -0.1800 
     39 N           2.0126  -16.7048  -44.4385 N.am      7 UNK        -0.5000 
     40 C           1.0983  -16.9388  -43.4857 C.2       6 UNK         0.5000 
     41 O           0.6373  -18.0546  -43.2397 O.2       6 UNK        -0.5000 
     42 CA          0.5888  -15.7182  -42.6990 C.3       6 UNK         0.1400 
     43 CB          1.5106  -15.4158  -41.5084 C.3       6 UNK        -0.1800 
     44 N           0.4390  -14.5068  -43.5083 N.am      6 UNK        -0.5000 
     45 C          -0.3824  -14.3842  -44.5636 C.2       5 UNK         0.5000 
     46 O          -1.0233  -15.3244  -45.0363 O.2       5 UNK        -0.5000 
     47 CA         -0.5177  -12.9626  -45.1586 C.3       5 UNK         0.1400 
     48 CB         -1.7371  -12.8021  -46.0885 C.3       5 UNK        -0.1800 
     49 N          -0.5111  -11.9291  -44.1152 N.am      5 UNK        -0.5000 
     50 C          -1.3504  -11.8305  -43.0722 C.2       4 UNK         0.5000 
     51 O          -2.3847  -12.4913  -42.9676 O.2       4 UNK        -0.5000 
     52 CA         -0.9684  -10.8569  -41.9327 C.3       4 UNK         0.1400 
     53 CB         -1.1040  -11.5403  -40.5560 C.3       4 UNK        -0.1800 
     54 N           0.3536  -10.2149  -42.0301 N.am      4 UNK        -0.5000 
     55 C           1.5610  -10.7959  -42.0800 C.2       3 UNK         0.5000 
     56 O           1.7475  -12.0095  -42.2167 O.2       3 UNK        -0.5000 
     57 CA          2.7634   -9.8522  -41.9565 C.3       3 UNK         0.1400 
     58 CB          3.1740   -9.6763  -40.4843 C.3       3 UNK        -0.1800 
     59 N           3.8705  -10.4083  -42.7215 N.am      3 UNK        -0.5000 
     60 C           4.8780   -9.7088  -43.2559 C.2       2 UNK         0.5000 
     61 O           5.0301   -8.4968  -43.0970 O.2       2 UNK        -0.5000 
     62 CA          5.8773  -10.4894  -44.1330 C.3       2 UNK         0.1400 
     63 CB          7.0944  -10.9278  -43.3041 C.3       2 UNK        -0.1800 
     64 N           5.2892  -11.6675  -44.7765 N.am      2 UNK        -0.5000 
     65 C           4.3539  -11.6321  -45.7380 C.2       1 UNK         0.5000 
     66 O           3.8935  -10.5854  -46.1967 O.2       1 UNK        -0.5000 
     67 C          -1.0804  -22.9592  -48.8103 C.2       11 UNK         0.5000 
     68 O          -1.1567  -24.0684  -49.3387 O.2       11 UNK        -0.5000 
     69 N          -2.1420  -22.1768  -48.5677 N.am      12 UNK        -0.5000 
     70 CA         -3.5256  -22.5443  -48.8632 C.3       12 UNK         0.1400 
     71 CB         -4.4481  -21.3433  -48.6154 C.3       12 UNK        -0.1800 
     72 C          -3.9966  -23.7664  -48.0586 C.2       12 UNK         0.5000 
     73 O          -4.6385  -24.6458  -48.6300 O.2       12 UNK        -0.5000 
     74 N          -3.6457  -23.8244  -46.7651 N.am      13 UNK        -0.5000 
     75 CA         -3.9369  -24.9555  -45.8825 C.3       13 UNK         0.1400 
     76 CB         -3.5770  -24.5991  -44.4327 C.3       13 UNK        -0.1800 
     77 C          -3.2292  -26.2493  -46.3229 C.2       13 UNK         0.5000 
     78 O          -3.8691  -27.3002  -46.3682 O.2       13 UNK        -0.5000 
     79 N          -1.9434  -26.1460  -46.6893 N.am      14 UNK        -0.5000 
     80 CA         -1.1370  -27.2466  -47.2258 C.3       14 UNK         0.1400 
     81 CB          0.3247  -26.7933  -47.3566 C.3       14 UNK        -0.1800 
     82 C          -1.6656  -27.7788  -48.5722 C.2       14 UNK         0.5000 
     83 O          -1.6285  -28.9865  -48.8088 O.2       14 UNK        -0.5000 
     84 N          -2.1856  -26.8717  -49.4079 N.am      15 UNK        -0.5000 
     85 CA         -2.8482  -27.1686  -50.6779 C.3       15 UNK         0.1400 
     86 CB         -2.7430  -25.9279  -51.5766 C.3       15 UNK        -0.1800 
     87 C          -4.3221  -27.6032  -50.5224 C.2       15 UNK         0.5000 
     88 O          -4.9773  -27.8501  -51.5353 O.2       15 UNK        -0.5000 
     89 N          -4.8378  -27.6575  -49.2836 N.am      16 UNK        -0.5000 
     90 CA         -6.2154  -28.0000  -48.9046 C.3       16 UNK         0.1400 
     91 CB         -6.4835  -29.4980  -49.1571 C.3       16 UNK        -0.1800 
     92 C          -7.2768  -27.0831  -49.5546 C.2       16 UNK         0.5000 
     93 O          -8.3759  -27.5374  -49.8763 O.2       16 UNK        -0.5000 
     94 N          -6.9052  -25.8111  -49.7601 N.am      17 UNK        -0.5000 
     95 CA         -7.6455  -24.7362  -50.4276 C.3       17 UNK         0.1400 
     96 CB         -8.9242  -24.3809  -49.6425 C.3       17 UNK        -0.1800 
     97 C          -7.9235  -24.9750  -51.9293 C.2       17 UNK         0.5000 
     98 O          -8.6820  -24.2092  -52.5262 O.2       17 UNK        -0.5000 
     99 N          -7.2989  -25.9971  -52.5341 N.am      18 UNK        -0.5000 
    100 CA        -7.4142  -26.3056  -53.9629 C.3       18 UNK         0.1400 
    101 CB        -7.0725  -27.7865  -54.1875 C.3       18 UNK        -0.1800 
    102 C         -6.5182  -25.4057  -54.8365 C.2       18 UNK         0.5000 
    103 O         -6.7445  -25.3100  -56.0435 O.2       18 UNK        -0.5000 
    104 N         -5.5248  -24.7640  -54.2148 N.am      19 UNK        -0.5000 
    105 CA        -4.5814  -23.8273  -54.8074 C.3       19 UNK         0.1400 
    106 CB        -3.4551  -24.6015  -55.5188 C.3       19 UNK        -0.1800 
    107 C         -4.0320  -22.9300  -53.6875 C.2       19 UNK         0.5000 
    108 O         -4.3312  -23.1627  -52.5136 O.2       19 UNK        -0.5000 
    109 N         -3.2420  -21.9192  -54.0748 N.am      20 UNK        -0.5000 
    110 CA        -2.4776  -20.9996  -53.2173 C.3       20 UNK         0.1400 
    111 CB        -1.4067  -21.7673  -52.4188 C.3       20 UNK        -0.1800 
    112 C         -3.3137  -20.0728  -52.3074 C.2       20 UNK         0.5000 
    113 O         -2.7389  -19.3397  -51.5025 O.2       20 UNK        -0.5000 
    114 N         -4.6418  -20.0667  -52.4737 N.am      21 UNK        -0.5000 
    115 CA        -5.5909  -19.2133  -51.7595 C.3       21 UNK         0.1400 
    116 CB        -6.9657  -19.9059  -51.7561 C.3       21 UNK        -0.1800 
    117 C         -5.6270  -17.7942  -52.3641 C.2       21 UNK         0.5000 
    118 O         -6.6665  -17.3494  -52.8541 O.2       21 UNK        -0.5000 
    119 N         -4.4700  -17.1236  -52.3484 N.am      22 UNK        -0.5000 
    120 CA        -4.2532  -15.7751  -52.8948 C.3       22 UNK         0.1400 
    121 C         -4.8320  -14.6074  -52.0396 C.2       22 UNK         0.5000 
    122 N         -5.3035  -14.8411  -50.8207 N.am      22 UNK        -0.7600 
    123 O         -4.8697  -13.4693  -52.4999 O.2       22 UNK        -0.5000 
    124 C124       -2.7647  -15.5472  -53.2684 C.3       23 UNK        -0.0398 
    125 S125       -1.6137  -15.7149  -51.8582 S.3       23 UNK        -0.2404 
    126 C126       -0.3582  -16.8525  -52.5337 C.3       23 UNK        -0.0205 
    127 H127        7.9796  -14.7869  -46.7253 H         1 UNK         0.0600 
    128 H128        6.6948  -15.8237  -46.1023 H         1 UNK         0.0600 
    129 H129        6.9983  -15.7447  -47.8400 H         1 UNK         0.0600 
    130 H130        4.8138  -14.7671  -45.6203 H         1 UNK         0.3000 
    131 H131        3.1459  -13.3373  -45.4833 H         1 UNK         0.0600 
    132 H132        2.2835  -12.1162  -47.5015 H         1 UNK         0.0800 
    133 H133        3.6919  -12.5911  -48.4033 H         1 UNK         0.0800 
    134 H134        3.3538  -14.2979  -50.0925 H         1 UNK         0.0800 
    135 H135        4.1561  -15.3739  -48.9747 H         1 UNK         0.0800 
    136 H136        1.0644  -15.0346  -51.0484 H         1 UNK         0.1150 
    137 H137        0.8583  -19.2197  -51.9513 H         1 UNK         0.1150 
    138 H138        3.8553  -17.7487  -49.2628 H         1 UNK         0.1150 
    139 H139        2.7599  -20.6146  -51.4003 H         1 UNK         0.0800 
    140 H140        4.1196  -19.9341  -50.5553 H         1 UNK         0.0800 
    141 H141        0.8218  -21.8155  -50.3635 H         1 UNK         0.0800 
    142 H142        0.2482  -20.4976  -49.3616 H         1 UNK         0.0800 
    143 H143        0.9692  -23.2956  -48.3369 H         1 UNK         0.0600 
    144 H144        0.5069  -20.9541  -46.8426 H         1 UNK         0.3000 
    145 H145       -0.7615  -22.5261  -43.8609 H         1 UNK         0.0600 
    146 H146        1.1289  -21.1878  -42.9608 H         1 UNK         0.0600 
    147 H147        1.7103  -22.6337  -43.7739 H         1 UNK         0.0600 
    148 H148        1.8403  -21.0717  -44.5680 H         1 UNK         0.0600 
    149 H149       -0.3266  -19.7829  -44.5673 H         1 UNK         0.3000 
    150 H150       -3.6745  -19.1367  -45.6890 H         1 UNK         0.0600 
    151 H151       -3.6874  -18.9712  -43.1994 H         1 UNK         0.0600 
    152 H152       -3.4294  -17.3962  -43.9362 H         1 UNK         0.0600 
    153 H153       -2.0754  -18.2671  -43.2209 H         1 UNK         0.0600 
    154 H154       -1.4287  -17.4156  -45.4995 H         1 UNK         0.3000 
    155 H155        0.0189  -18.0875  -48.6924 H         1 UNK         0.0600 
    156 H156       -0.3618  -15.6232  -48.8190 H         1 UNK         0.0600 
    157 H157       -1.5364  -15.7232  -47.5109 H         1 UNK         0.0600 
    158 H158       -1.8611  -16.5042  -49.0428 H         1 UNK         0.0600 
    159 H159        0.8119  -16.3090  -46.6525 H         1 UNK         0.3000 
    160 H160        2.7802  -18.6137  -44.7079 H         1 UNK         0.0600 
    161 H161        3.6446  -16.4477  -46.6769 H         1 UNK         0.0600 
    162 H162        4.2252  -18.0999  -46.6309 H         1 UNK         0.0600 
    163 H163        4.5782  -17.0207  -45.2916 H         1 UNK         0.0600 
    164 H164        2.3256  -15.7591  -44.5909 H         1 UNK         0.3000 
    165 H165       -0.3984  -15.9732  -42.3081 H         1 UNK         0.0600 
    166 H166        2.5038  -15.1068  -41.8366 H         1 UNK         0.0600 
    167 H167        1.1021  -14.6181  -40.8874 H         1 UNK         0.0600 
    168 H168        1.6308  -16.2938  -40.8724 H         1 UNK         0.0600 
    169 H169        0.9016  -13.6754  -43.1551 H         1 UNK         0.3000 
    170 H170        0.3771  -12.7980  -45.7598 H         1 UNK         0.0600 
    171 H171       -1.6454  -13.4442  -46.9641 H         1 UNK         0.0600 
    172 H172       -2.6691  -13.0634  -45.5866 H         1 UNK         0.0600 
    173 H173       -1.8256  -11.7776  -46.4495 H         1 UNK         0.0600 
    174 H174        0.3083  -11.3395  -44.0896 H         1 UNK         0.3000 
    175 H175       -1.7000  -10.0489  -41.9750 H         1 UNK         0.0600 
    176 H176       -0.8757  -10.8468  -39.7467 H         1 UNK         0.0600 
    177 H177       -2.1195  -11.9022  -40.3909 H         1 UNK         0.0600 
    178 H178       -0.4336  -12.3955  -40.4637 H         1 UNK         0.0600 
    179 H179        0.3283   -9.2064  -41.9643 H         1 UNK         0.3000 
    180 H180        2.4882   -8.8821  -42.3763 H         1 UNK         0.0600 
    181 H181        3.4711  -10.6251  -40.0357 H         1 UNK         0.0600 
    182 H182        2.3498   -9.2761  -39.8926 H         1 UNK         0.0600 
    183 H183        4.0097   -8.9834  -40.3856 H         1 UNK         0.0600 
    184 H184        3.7951  -11.3998  -42.9067 H         1 UNK         0.3000 
    185 H185        6.2239   -9.8136  -44.9177 H         1 UNK         0.0600 
    186 H186        7.8432  -11.4147  -43.9292 H         1 UNK         0.0600 
    187 H187        7.5750  -10.0696  -42.8325 H         1 UNK         0.0600 
    188 H188        6.8131  -11.6225  -42.5117 H         1 UNK         0.0600 
    189 H189        5.6287  -12.5668  -44.4686 H         1 UNK         0.3000 
    190 H190       -1.9980  -21.2522  -48.1654 H         1 UNK         0.3000 
    191 H191       -3.5815  -22.8004  -49.9226 H         1 UNK         0.0600 
    192 H192       -4.1322  -20.4838  -49.2051 H         1 UNK         0.0600 
    193 H193       -5.4762  -21.5746  -48.8964 H         1 UNK         0.0600 
    194 H194       -4.4477  -21.0439  -47.5667 H         1 UNK         0.0600 
    195 H195       -3.1562  -23.0379  -46.3499 H         1 UNK         0.3000 
    196 H196       -5.0127  -25.1385  -45.9254 H         1 UNK         0.0600 
    197 H197       -3.7935  -25.4302  -43.7605 H         1 UNK         0.0600 
    198 H198       -4.1529  -23.7418  -44.0842 H         1 UNK         0.0600 
    199 H199       -2.5197  -24.3571  -44.3262 H         1 UNK         0.0600 
    200 H200       -1.4742  -25.2496  -46.5837 H         1 UNK         0.3000 
    201 H201       -1.1758  -28.0681  -46.5076 H         1 UNK         0.0600 
    202 H202        0.7314  -26.4922  -46.3910 H         1 UNK         0.0600 
    203 H203        0.4243  -25.9482  -48.0385 H         1 UNK         0.0600 
    204 H204        0.9524  -27.5999  -47.7374 H         1 UNK         0.0600 
    205 H205       -2.1178  -25.8901  -49.1585 H         1 UNK         0.3000 
    206 H206       -2.3217  -27.9888  -51.1696 H         1 UNK         0.0600 
    207 H207       -1.7031  -25.6589  -51.7618 H         1 UNK         0.0600 
    208 H208       -3.2131  -26.0960  -52.5458 H         1 UNK         0.0600 
    209 H209       -3.2306  -25.0689  -51.1161 H         1 UNK         0.0600 
    210 H210       -4.2344  -27.4029  -48.5112 H         1 UNK         0.3000 
    211 H211       -6.2862  -27.8276  -47.8299 H         1 UNK         0.0600 
    212 H212       -6.4842  -29.7347  -50.2216 H         1 UNK         0.0600 
    213 H213       -7.4519  -29.7967  -48.7544 H         1 UNK         0.0600 
    214 H214       -5.7281  -30.1191  -48.6757 H         1 UNK         0.0600 
    215 H215       -5.9828  -25.5356  -49.4226 H         1 UNK         0.3000 
    216 H216       -6.9879  -23.8662  -50.3887 H         1 UNK         0.0600 
    217 H217       -8.7015  -24.1910  -48.5925 H         1 UNK         0.0600 
    218 H218       -9.6647  -25.1795  -49.6906 H         1 UNK         0.0600 
    219 H219       -9.3914  -23.4794  -50.0406 H         1 UNK         0.0600 
    220 H220       -6.6784  -26.5891  -51.9931 H         1 UNK         0.3000 
    221 H221       -8.4486  -26.1479  -54.2754 H         1 UNK         0.0600 
    222 H222       -6.0256  -27.9967  -53.9671 H         1 UNK         0.0600 
    223 H223       -7.6852  -28.4344  -53.5603 H         1 UNK         0.0600 
    224 H224       -7.2504  -28.0734  -55.2246 H         1 UNK         0.0600 
    225 H225       -5.4413  -24.8434  -53.2089 H         1 UNK         0.3000 
    226 H226       -5.1062  -23.1934  -55.5250 H         1 UNK         0.0600 
    227 H227       -3.8519  -25.2523  -56.2981 H         1 UNK         0.0600 
    228 H228       -2.7484  -23.9237  -55.9983 H         1 UNK         0.0600 
    229 H229       -2.8921  -25.2226  -54.8214 H         1 UNK         0.0600 
    230 H230       -3.0909  -21.7945  -55.0664 H         1 UNK         0.3000 
    231 H231       -1.9512  -20.3305  -53.8993 H         1 UNK         0.0600 
    232 H232       -0.7693  -21.0772  -51.8676 H         1 UNK         0.0600 
    233 H233       -0.7619  -22.3486  -53.0777 H         1 UNK         0.0600 
    234 H234       -1.8519  -22.4516  -51.6970 H         1 UNK         0.0600 
    235 H235       -5.0304  -20.6874  -53.1672 H         1 UNK         0.3000 
    236 H236       -5.2707  -19.1100  -50.7214 H         1 UNK         0.0600 
    237 H237       -7.6989  -19.3177  -51.2029 H         1 UNK         0.0600 
    238 H238       -7.3500  -20.0465  -52.7671 H         1 UNK         0.0600 
    239 H239       -6.9108  -20.8855  -51.2803 H         1 UNK         0.0600 
    240 H240       -3.6612  -17.5750  -51.9325 H         1 UNK         0.3000 
    241 H241       -4.8102  -15.7289  -53.8326 H         1 UNK         0.0600 
    242 H242       -5.2739  -15.7687  -50.4310 H         1 UNK         0.3800 
    243 H243       -5.6820  -14.0795  -50.2801 H         1 UNK         0.3800 
    244 H244       -2.4819  -16.2568  -54.0469 H         1 UNK         0.0800 
    245 H245       -2.6255  -14.5600  -53.7122 H         1 UNK         0.0800 
    246 H246       -0.8458  -17.7930  -52.7937 H         1 UNK         0.0800 
    247 H247        0.0396  -16.4371  -53.4603 H         1 UNK         0.0800 
@<TRIPOS>BOND
     1    1    2 1    
     2    1  127 1    
     3    1  128 1    
     4    1  129 1    
     5    2    3 2    
     6    2    4 am   BACKBONE|DICT|INTERRES
     7    4    5 1    
     8    4  130 1    
     9    5    6 1    
    10    5   65 1    
    11    5  131 1    
    12    6    7 1    
    13    6  132 1    
    14    6  133 1    
    15    7    8 1    
    16    8    9 1    
    17    8  134 1    
    18    8  135 1    
    19    9   10 ar   
    20    9   14 ar   
    21   10   11 ar   
    22   10  136 1    
    23   11   12 ar   
    24   11  126 1    
    25   12   13 ar   
    26   12  137 1    
    27   13   14 ar   
    28   13   15 1    
    29   14  138 1    
    30   15   16 1    
    31   15  139 1    
    32   15  140 1    
    33   16   17 1    
    34   17   18 1    
    35   17  141 1    
    36   17  142 1    
    37   18   19 1    
    38   18   67 1    
    39   18  143 1    
    40   19   20 am   BACKBONE|DICT|INTERRES
    41   19  144 1    
    42   20   21 2    
    43   20   22 1    
    44   22   23 1    
    45   22   24 1    
    46   22  145 1    
    47   23  146 1    
    48   23  147 1    
    49   23  148 1    
    50   24   25 am   BACKBONE|DICT|INTERRES
    51   24  149 1    
    52   25   26 2    
    53   25   27 1    
    54   27   28 1    
    55   27   29 1    
    56   27  150 1    
    57   28  151 1    
    58   28  152 1    
    59   28  153 1    
    60   29   30 am   BACKBONE|DICT|INTERRES
    61   29  154 1    
    62   30   31 2    
    63   30   32 1    
    64   32   33 1    
    65   32   34 1    
    66   32  155 1    
    67   33  156 1    
    68   33  157 1    
    69   33  158 1    
    70   34   35 am   BACKBONE|DICT|INTERRES
    71   34  159 1    
    72   35   36 2    
    73   35   37 1    
    74   37   38 1    
    75   37   39 1    
    76   37  160 1    
    77   38  161 1    
    78   38  162 1    
    79   38  163 1    
    80   39   40 am   BACKBONE|DICT|INTERRES
    81   39  164 1    
    82   40   41 2    
    83   40   42 1    
    84   42   43 1    
    85   42   44 1    
    86   42  165 1    
    87   43  166 1    
    88   43  167 1    
    89   43  168 1    
    90   44   45 am   BACKBONE|DICT|INTERRES
    91   44  169 1    
    92   45   46 2    
    93   45   47 1    
    94   47   48 1    
    95   47   49 1    
    96   47  170 1    
    97   48  171 1    
    98   48  172 1    
    99   48  173 1    
   100   49   50 am   BACKBONE|DICT|INTERRES
   101   49  174 1    
   102   50   51 2    
   103   50   52 1    
   104   52   53 1    
   105   52   54 1    
   106   52  175 1    
   107   53  176 1    
   108   53  177 1    
   109   53  178 1    
   110   54   55 am   BACKBONE|DICT|INTERRES
   111   54  179 1    
   112   55   56 2    
   113   55   57 1    
   114   57   58 1    
   115   57   59 1    
   116   57  180 1    
   117   58  181 1    
   118   58  182 1    
   119   58  183 1    
   120   59   60 am   BACKBONE|DICT|INTERRES
   121   59  184 1    
   122   60   61 2    
   123   60   62 1    
   124   62   63 1    
   125   62   64 1    
   126   62  185 1    
   127   63  186 1    
   128   63  187 1    
   129   63  188 1    
   130   64   65 am   BACKBONE|DICT|INTERRES
   131   64  189 1    
   132   65   66 2    
   133   67   68 2    
   134   67   69 am   BACKBONE|DICT|INTERRES
   135   69   70 1    
   136   69  190 1    
   137   70   71 1    
   138   70   72 1    
   139   70  191 1    
   140   71  192 1    
   141   71  193 1    
   142   71  194 1    
   143   72   73 2    
   144   72   74 am   BACKBONE|DICT|INTERRES
   145   74   75 1    
   146   74  195 1    
   147   75   76 1    
   148   75   77 1    
   149   75  196 1    
   150   76  197 1    
   151   76  198 1    
   152   76  199 1    
   153   77   78 2    
   154   77   79 am   BACKBONE|DICT|INTERRES
   155   79   80 1    
   156   79  200 1    
   157   80   81 1    
   158   80   82 1    
   159   80  201 1    
   160   81  202 1    
   161   81  203 1    
   162   81  204 1    
   163   82   83 2    
   164   82   84 am   BACKBONE|DICT|INTERRES
   165   84   85 1    
   166   84  205 1    
   167   85   86 1    
   168   85   87 1    
   169   85  206 1    
   170   86  207 1    
   171   86  208 1    
   172   86  209 1    
   173   87   88 2    
   174   87   89 am   BACKBONE|DICT|INTERRES
   175   89   90 1    
   176   89  210 1    
   177   90   91 1    
   178   90   92 1    
   179   90  211 1    
   180   91  212 1    
   181   91  213 1    
   182   91  214 1    
   183   92   93 2    
   184   92   94 am   BACKBONE|DICT|INTERRES
   185   94   95 1    
   186   94  215 1    
   187   95   96 1    
   188   95   97 1    
   189   95  216 1    
   190   96  217 1    
   191   96  218 1    
   192   96  219 1    
   193   97   98 2    
   194   97   99 am   BACKBONE|DICT|INTERRES
   195   99  100 1    
   196   99  220 1    
   197  100  101 1    
   198  100  102 1    
   199  100  221 1    
   200  101  222 1    
   201  101  223 1    
   202  101  224 1    
   203  102  103 2    
   204  102  104 am   BACKBONE|DICT|INTERRES
   205  104  105 1    
   206  104  225 1    
   207  105  106 1    
   208  105  107 1    
   209  105  226 1    
   210  106  227 1    
   211  106  228 1    
   212  106  229 1    
   213  107  108 2    
   214  107  109 am   BACKBONE|DICT|INTERRES
   215  109  110 1    
   216  109  230 1    
   217  110  111 1    
   218  110  112 1    
   219  110  231 1    
   220  111  232 1    
   221  111  233 1    
   222  111  234 1    
   223  112  113 2    
   224  112  114 am   BACKBONE|DICT|INTERRES
   225  114  115 1    
   226  114  235 1    
   227  115  116 1    
   228  115  117 1    
   229  115  236 1    
   230  116  237 1    
   231  116  238 1    
   232  116  239 1    
   233  117  118 2    
   234  117  119 am   BACKBONE|DICT|INTERRES
   235  119  120 1    
   236  119  240 1    
   237  120  121 1    
   238  120  124 1    
   239  120  241 1    
   240  121  122 am   BACKBONE|DICT|INTERRES
   241  121  123 2    
   242  122  242 1    
   243  122  243 1    
   244  124  125 1    
   245  124  244 1    
   246  124  245 1    
   247  125  126 1    
   248  126  246 1    
   249  126  247 1    
@<TRIPOS>SUBSTRUCTURE
     1 UNK         1 GROUP             0       ****    0 ROOT    
