@<TRIPOS>MOLECULE
3R540
247   249    1
SMALL
USER_CHARGES


@<TRIPOS>ATOM
      1 CA         -2.8016  -11.1561  -47.0060 C.3       0 UNK        -0.1800 
      2 C          -1.9448  -12.4018  -46.8337 C.2       0 UNK         0.5000 
      3 O          -1.1558  -12.4799  -45.8918 O.2       0 UNK        -0.5000 
      4 N          -2.1019  -13.3807  -47.7328 N.am      1 UNK        -0.5000 
      5 CA         -1.3757  -14.6570  -47.7488 C.3       1 UNK         0.1400 
      6 C6         -1.3030  -15.2515  -49.1761 C.3       23 UNK        -0.0398 
      7 S7         -0.3935  -14.1659  -50.3332 S.3       23 UNK        -0.2404 
      8 C8         -1.7012  -13.5954  -51.4670 C.3       23 UNK        -0.0205 
      9 C9         -2.0342  -14.6455  -52.5164 C.ar      23 UNK        -0.0193 
     10 C10        -1.3340  -14.6862  -53.7271 C.ar      23 UNK        -0.1150 
     11 C11        -1.6313  -15.6578  -54.6899 C.ar      23 UNK        -0.0193 
     12 C12        -2.6272  -16.6014  -54.4237 C.ar      23 UNK        -0.1150 
     13 C13        -3.3132  -16.5847  -53.2075 C.ar      23 UNK        -0.0193 
     14 C14        -3.0384  -15.5844  -52.2741 C.ar      23 UNK        -0.1150 
     15 C15        -4.3170  -17.6759  -52.8826 C.3       23 UNK        -0.0205 
     16 S16        -3.4676  -19.2153  -52.4123 S.3       23 UNK        -0.2404 
     17 C17        -2.7178  -18.7920  -50.8011 C.3       23 UNK        -0.0398 
     18 CA         -3.4426  -19.4670  -49.6158 C.3       11 UNK         0.1400 
     19 N          -2.5930  -19.5588  -48.4289 N.am      11 UNK        -0.5000 
     20 C          -2.7563  -20.4415  -47.4395 C.2       10 UNK         0.5000 
     21 O          -3.6778  -21.2620  -47.4305 O.2       10 UNK        -0.5000 
     22 CA         -1.7434  -20.3956  -46.2673 C.3       10 UNK         0.1400 
     23 CB         -1.8713  -21.6157  -45.3362 C.3       10 UNK        -0.1800 
     24 N          -0.3265  -20.3005  -46.6317 N.am      10 UNK        -0.5000 
     25 C           0.3240  -19.3180  -47.2650 C.2       9 UNK         0.5000 
     26 O          -0.2158  -18.3341  -47.7687 O.2       9 UNK        -0.5000 
     27 CA          1.8549  -19.4621  -47.3174 C.3       9 UNK         0.1400 
     28 CB          2.4503  -18.8115  -48.5742 C.3       9 UNK        -0.1800 
     29 N           2.4735  -18.8605  -46.1401 N.am      9 UNK        -0.5000 
     30 C           2.4630  -19.3609  -44.9003 C.2       8 UNK         0.5000 
     31 O           1.9476  -20.4423  -44.6128 O.2       8 UNK        -0.5000 
     32 CA          3.1571  -18.5418  -43.7919 C.3       8 UNK         0.1400 
     33 CB          4.6591  -18.8710  -43.7183 C.3       8 UNK        -0.1800 
     34 N           2.9427  -17.0898  -43.8353 N.am      8 UNK        -0.5000 
     35 C           3.3109  -16.1848  -44.7533 C.2       7 UNK         0.5000 
     36 O           3.9005  -16.4632  -45.7979 O.2       7 UNK        -0.5000 
     37 CA          2.9783  -14.7149  -44.4477 C.3       7 UNK         0.1400 
     38 CB          1.5054  -14.4126  -44.7561 C.3       7 UNK        -0.1800 
     39 N           3.2504  -14.3901  -43.0479 N.am      7 UNK        -0.5000 
     40 C           4.1339  -13.4774  -42.6224 C.2       6 UNK         0.5000 
     41 O           4.7981  -12.7625  -43.3743 O.2       6 UNK        -0.5000 
     42 CA          4.3157  -13.3313  -41.0958 C.3       6 UNK         0.1400 
     43 CB          3.4513  -12.1789  -40.5616 C.3       6 UNK        -0.1800 
     44 N           3.9920  -14.5488  -40.3497 N.am      6 UNK        -0.5000 
     45 C           4.6762  -15.6981  -40.4236 C.2       5 UNK         0.5000 
     46 O           5.7293  -15.8230  -41.0494 O.2       5 UNK        -0.5000 
     47 CA          4.0825  -16.9253  -39.7003 C.3       5 UNK         0.1400 
     48 CB          4.8542  -17.2016  -38.4006 C.3       5 UNK        -0.1800 
     49 N           2.6461  -16.8708  -39.3914 N.am      5 UNK        -0.5000 
     50 C           1.6510  -16.6836  -40.2684 C.2       4 UNK         0.5000 
     51 O           1.8184  -16.3317  -41.4375 O.2       4 UNK        -0.5000 
     52 CA          0.2200  -16.9059  -39.7499 C.3       4 UNK         0.1400 
     53 CB         -0.4132  -15.5665  -39.3446 C.3       4 UNK        -0.1800 
     54 N          -0.6215  -17.5394  -40.7659 N.am      4 UNK        -0.5000 
     55 C          -0.4152  -18.7529  -41.3004 C.2       3 UNK         0.5000 
     56 O           0.4628  -19.5266  -40.9166 O.2       3 UNK        -0.5000 
     57 CA         -1.3483  -19.1855  -42.4495 C.3       3 UNK         0.1400 
     58 CB         -2.3627  -20.2272  -41.9514 C.3       3 UNK        -0.1800 
     59 N          -2.0776  -18.0699  -43.0590 N.am      3 UNK        -0.5000 
     60 C          -1.5334  -17.1844  -43.9034 C.2       2 UNK         0.5000 
     61 O          -0.3728  -17.2532  -44.3096 O.2       2 UNK        -0.5000 
     62 CA         -2.4405  -16.0073  -44.3050 C.3       2 UNK         0.1400 
     63 CB         -2.5960  -15.0279  -43.1297 C.3       2 UNK        -0.1800 
     64 N          -1.9160  -15.2641  -45.4453 N.am      2 UNK        -0.5000 
     65 C          -1.9945  -15.6371  -46.7261 C.2       1 UNK         0.5000 
     66 O          -2.5839  -16.6518  -47.1051 O.2       1 UNK        -0.5000 
     67 C          -4.7880  -18.7897  -49.2964 C.2       11 UNK         0.5000 
     68 O          -5.8324  -19.3179  -49.6771 O.2       11 UNK        -0.5000 
     69 N          -4.7560  -17.6697  -48.5580 N.am      12 UNK        -0.5000 
     70 CA         -5.9552  -16.9426  -48.1222 C.3       12 UNK         0.1400 
     71 CB         -5.5712  -15.5223  -47.6787 C.3       12 UNK        -0.1800 
     72 C          -6.7053  -17.6812  -46.9975 C.2       12 UNK         0.5000 
     73 O          -7.9150  -17.5079  -46.8515 O.2       12 UNK        -0.5000 
     74 N          -5.9756  -18.5250  -46.2548 N.am      13 UNK        -0.5000 
     75 CA         -6.5104  -19.4728  -45.2762 C.3       13 UNK         0.1400 
     76 CB         -5.3922  -19.8321  -44.2877 C.3       13 UNK        -0.1800 
     77 C          -7.1114  -20.7401  -45.9269 C.2       13 UNK         0.5000 
     78 O          -7.7195  -21.5436  -45.2194 O.2       13 UNK        -0.5000 
     79 N          -6.9472  -20.8864  -47.2514 N.am      14 UNK        -0.5000 
     80 CA         -7.4977  -21.9311  -48.1164 C.3       14 UNK         0.1400 
     81 CB         -9.0386  -21.8567  -48.1537 C.3       14 UNK        -0.1800 
     82 C          -6.9661  -23.3452  -47.8102 C.2       14 UNK         0.5000 
     83 O          -7.7037  -24.3228  -47.9549 O.2       14 UNK        -0.5000 
     84 N          -5.6800  -23.4527  -47.4463 N.am      15 UNK        -0.5000 
     85 CA         -4.9815  -24.7245  -47.2354 C.3       15 UNK         0.1400 
     86 CB         -3.7854  -24.4908  -46.3015 C.3       15 UNK        -0.1800 
     87 C          -4.5571  -25.3349  -48.5864 C.2       15 UNK         0.5000 
     88 O          -3.3677  -25.3694  -48.9108 O.2       15 UNK        -0.5000 
     89 N          -5.5572  -25.7291  -49.3883 N.am      16 UNK        -0.5000 
     90 CA         -5.4457  -26.2271  -50.7655 C.3       16 UNK         0.1400 
     91 CB         -4.7919  -27.6247  -50.7821 C.3       16 UNK        -0.1800 
     92 C          -4.7358  -25.2227  -51.6998 C.2       16 UNK         0.5000 
     93 O          -3.9400  -25.6256  -52.5479 O.2       16 UNK        -0.5000 
     94 N          -5.0012  -23.9245  -51.4822 N.am      17 UNK        -0.5000 
     95 CA         -4.3520  -22.7730  -52.1190 C.3       17 UNK         0.1400 
     96 CB         -4.7391  -22.6844  -53.6104 C.3       17 UNK        -0.1800 
     97 C          -2.8243  -22.7653  -51.8888 C.2       17 UNK         0.5000 
     98 O          -2.0591  -22.6324  -52.8424 O.2       17 UNK        -0.5000 
     99 N          -2.4152  -22.9640  -50.6248 N.am      18 UNK        -0.5000 
    100 CA        -1.0289  -23.1279  -50.1641 C.3       18 UNK         0.1400 
    101 CB        -0.2355  -21.8102  -50.3053 C.3       18 UNK        -0.1800 
    102 C         -0.3263  -24.3274  -50.8371 C.2       18 UNK         0.5000 
    103 O          0.8362  -24.2228  -51.2302 O.2       18 UNK        -0.5000 
    104 N         -1.0692  -25.4366  -50.9727 N.am      19 UNK        -0.5000 
    105 CA        -0.7211  -26.6479  -51.7231 C.3       19 UNK         0.1400 
    106 CB         0.4317  -27.4090  -51.0357 C.3       19 UNK        -0.1800 
    107 C         -0.4589  -26.3513  -53.2173 C.2       19 UNK         0.5000 
    108 O          0.5947  -26.7075  -53.7487 O.2       19 UNK        -0.5000 
    109 N         -1.4431  -25.6994  -53.8532 N.am      20 UNK        -0.5000 
    110 CA        -1.4887  -25.2691  -55.2534 C.3       20 UNK         0.1400 
    111 CB        -1.5938  -26.4922  -56.1883 C.3       20 UNK        -0.1800 
    112 C         -0.3355  -24.3145  -55.6280 C.2       20 UNK         0.5000 
    113 O          0.4321  -24.5956  -56.5518 O.2       20 UNK        -0.5000 
    114 N         -0.2343  -23.2020  -54.8950 N.am      21 UNK        -0.5000 
    115 CA         0.7720  -22.1603  -55.0719 C.3       21 UNK         0.1400 
    116 CB         1.9797  -22.4619  -54.1589 C.3       21 UNK        -0.1800 
    117 C          0.1351  -20.7751  -54.8398 C.2       21 UNK         0.5000 
    118 O         -1.0240  -20.5664  -55.2034 O.2       21 UNK        -0.5000 
    119 N          0.9112  -19.8540  -54.2629 N.am      22 UNK        -0.5000 
    120 CA         0.5167  -18.5042  -53.8449 C.3       22 UNK         0.1400 
    121 C          1.0643  -18.2313  -52.4226 C.2       22 UNK         0.5000 
    122 N          0.4254  -17.3490  -51.6683 N.am      22 UNK        -0.7600 
    123 O          2.0869  -18.7775  -52.0145 O.2       22 UNK        -0.5000 
    124 C124        1.0285  -17.4205  -54.8323 C.3       23 UNK        -0.0398 
    125 S125       -0.0248  -17.2820  -56.3134 S.3       23 UNK        -0.2404 
    126 C126       -0.8725  -15.6924  -56.0123 C.3       23 UNK        -0.0205 
    127 H127       -3.3758  -11.1840  -47.9323 H         1 UNK         0.0600 
    128 H128       -2.1713  -10.2671  -47.0244 H         1 UNK         0.0600 
    129 H129       -3.4994  -11.0639  -46.1738 H         1 UNK         0.0600 
    130 H130       -2.7811  -13.2599  -48.4688 H         1 UNK         0.3000 
    131 H131       -0.3489  -14.4750  -47.4277 H         1 UNK         0.0600 
    132 H132       -0.7868  -16.2114  -49.1602 H         1 UNK         0.0800 
    133 H133       -2.3052  -15.4529  -49.5488 H         1 UNK         0.0800 
    134 H134       -1.3614  -12.6831  -51.9594 H         1 UNK         0.0800 
    135 H135       -2.5925  -13.3187  -50.9024 H         1 UNK         0.0800 
    136 H136       -0.5563  -13.9596  -53.9172 H         1 UNK         0.1150 
    137 H137       -2.8424  -17.3736  -55.1495 H         1 UNK         0.1150 
    138 H138       -3.5916  -15.5575  -51.3469 H         1 UNK         0.1150 
    139 H139       -4.9924  -17.3665  -52.0835 H         1 UNK         0.0800 
    140 H140       -4.9412  -17.8679  -53.7564 H         1 UNK         0.0800 
    141 H141       -2.6514  -17.7148  -50.6605 H         1 UNK         0.0800 
    142 H142       -1.6862  -19.1413  -50.8467 H         1 UNK         0.0800 
    143 H143       -3.6688  -20.4916  -49.9149 H         1 UNK         0.0600 
    144 H144       -1.8231  -18.8960  -48.3403 H         1 UNK         0.3000 
    145 H145       -1.9938  -19.5039  -45.6919 H         1 UNK         0.0600 
    146 H146       -1.2699  -21.4947  -44.4369 H         1 UNK         0.0600 
    147 H147       -2.8968  -21.7911  -45.0146 H         1 UNK         0.0600 
    148 H148       -1.5201  -22.5214  -45.8290 H         1 UNK         0.0600 
    149 H149        0.2542  -21.0230  -46.2290 H         1 UNK         0.3000 
    150 H150        2.1041  -20.5250  -47.3429 H         1 UNK         0.0600 
    151 H151        2.0028  -19.2417  -49.4695 H         1 UNK         0.0600 
    152 H152        3.5257  -18.9783  -48.6354 H         1 UNK         0.0600 
    153 H153        2.2760  -17.7350  -48.5991 H         1 UNK         0.0600 
    154 H154        2.9272  -17.9601  -46.2688 H         1 UNK         0.3000 
    155 H155        2.7080  -18.8643  -42.8510 H         1 UNK         0.0600 
    156 H156        5.1841  -18.5791  -44.6282 H         1 UNK         0.0600 
    157 H157        4.8166  -19.9414  -43.5800 H         1 UNK         0.0600 
    158 H158        5.1332  -18.3609  -42.8795 H         1 UNK         0.0600 
    159 H159        2.4139  -16.7447  -43.0360 H         1 UNK         0.3000 
    160 H160        3.5926  -14.1043  -45.1125 H         1 UNK         0.0600 
    161 H161        1.3071  -13.3418  -44.7114 H         1 UNK         0.0600 
    162 H162        0.8377  -14.9035  -44.0480 H         1 UNK         0.0600 
    163 H163        1.2380  -14.7550  -45.7554 H         1 UNK         0.0600 
    164 H164        2.7676  -14.9551  -42.3554 H         1 UNK         0.3000 
    165 H165        5.3641  -13.0889  -40.9102 H         1 UNK         0.0600 
    166 H166        3.6254  -12.0145  -39.4981 H         1 UNK         0.0600 
    167 H167        3.6837  -11.2453  -41.0758 H         1 UNK         0.0600 
    168 H168        2.3877  -12.3755  -40.7027 H         1 UNK         0.0600 
    169 H169        3.1374  -14.5395  -39.8131 H         1 UNK         0.3000 
    170 H170        4.2287  -17.7773  -40.3673 H         1 UNK         0.0600 
    171 H171        5.9255  -17.2852  -38.5890 H         1 UNK         0.0600 
    172 H172        4.7106  -16.4028  -37.6720 H         1 UNK         0.0600 
    173 H173        4.5350  -18.1377  -37.9419 H         1 UNK         0.0600 
    174 H174        2.4008  -17.1192  -38.4437 H         1 UNK         0.3000 
    175 H175        0.2527  -17.5627  -38.8784 H         1 UNK         0.0600 
    176 H176       -0.4798  -14.8804  -40.1904 H         1 UNK         0.0600 
    177 H177       -1.4186  -15.7087  -38.9480 H         1 UNK         0.0600 
    178 H178        0.1743  -15.0745  -38.5684 H         1 UNK         0.0600 
    179 H179       -1.3521  -16.9685  -41.1599 H         1 UNK         0.3000 
    180 H180       -0.7178  -19.6465  -43.2119 H         1 UNK         0.0600 
    181 H181       -3.0111  -19.8189  -41.1753 H         1 UNK         0.0600 
    182 H182       -1.8554  -21.0967  -41.5314 H         1 UNK         0.0600 
    183 H183       -2.9960  -20.5853  -42.7618 H         1 UNK         0.0600 
    184 H184       -3.0326  -17.9428  -42.7570 H         1 UNK         0.3000 
    185 H185       -3.4238  -16.4030  -44.5688 H         1 UNK         0.0600 
    186 H186       -3.0542  -15.5098  -42.2655 H         1 UNK         0.0600 
    187 H187       -1.6324  -14.6268  -42.8113 H         1 UNK         0.0600 
    188 H188       -3.2333  -14.1860  -43.4016 H         1 UNK         0.0600 
    189 H189       -1.4463  -14.3885  -45.2426 H         1 UNK         0.3000 
    190 H190       -3.8672  -17.3318  -48.1910 H         1 UNK         0.3000 
    191 H191       -6.6321  -16.8580  -48.9752 H         1 UNK         0.0600 
    192 H192       -4.9849  -15.0115  -48.4426 H         1 UNK         0.0600 
    193 H193       -4.9927  -15.5289  -46.7549 H         1 UNK         0.0600 
    194 H194       -6.4626  -14.9212  -47.4960 H         1 UNK         0.0600 
    195 H195       -4.9885  -18.5879  -46.4536 H         1 UNK         0.3000 
    196 H196       -7.3130  -18.9867  -44.7176 H         1 UNK         0.0600 
    197 H197       -5.7407  -20.5405  -43.5350 H         1 UNK         0.0600 
    198 H198       -5.0342  -18.9483  -43.7601 H         1 UNK         0.0600 
    199 H199       -4.5454  -20.2843  -44.7990 H         1 UNK         0.0600 
    200 H200       -6.4211  -20.1746  -47.7410 H         1 UNK         0.3000 
    201 H201       -7.1426  -21.6987  -49.1211 H         1 UNK         0.0600 
    202 H202       -9.3782  -20.8493  -48.3948 H         1 UNK         0.0600 
    203 H203       -9.4822  -22.1413  -47.1992 H         1 UNK         0.0600 
    204 H204       -9.4453  -22.5244  -48.9142 H         1 UNK         0.0600 
    205 H205       -5.1122  -22.6120  -47.3759 H         1 UNK         0.3000 
    206 H206       -5.6537  -25.4303  -46.7428 H         1 UNK         0.0600 
    207 H207       -4.0955  -24.0270  -45.3651 H         1 UNK         0.0600 
    208 H208       -3.2925  -25.4319  -46.0554 H         1 UNK         0.0600 
    209 H209       -3.0441  -23.8471  -46.7717 H         1 UNK         0.0600 
    210 H210       -6.5015  -25.6010  -49.0379 H         1 UNK         0.3000 
    211 H211       -6.4631  -26.3307  -51.1449 H         1 UNK         0.0600 
    212 H212       -3.7565  -27.5932  -50.4424 H         1 UNK         0.0600 
    213 H213       -4.7942  -28.0477  -51.7873 H         1 UNK         0.0600 
    214 H214       -5.3328  -28.3187  -50.1389 H         1 UNK         0.0600 
    215 H215       -5.6714  -23.7062  -50.7603 H         1 UNK         0.3000 
    216 H216       -4.7454  -21.8838  -51.6253 H         1 UNK         0.0600 
    217 H217       -4.3317  -21.7806  -54.0654 H         1 UNK         0.0600 
    218 H218       -5.8212  -22.6499  -53.7347 H         1 UNK         0.0600 
    219 H219       -4.3626  -23.5330  -54.1814 H         1 UNK         0.0600 
    220 H220       -3.1184  -23.1390  -49.9211 H         1 UNK         0.3000 
    221 H221       -1.0846  -23.3661  -49.1008 H         1 UNK         0.0600 
    222 H222       -0.1393  -21.4988  -51.3460 H         1 UNK         0.0600 
    223 H223       -0.7137  -21.0028  -49.7570 H         1 UNK         0.0600 
    224 H224        0.7724  -21.9124  -49.9017 H         1 UNK         0.0600 
    225 H225       -2.0011  -25.4208  -50.5733 H         1 UNK         0.3000 
    226 H226       -1.6011  -27.2916  -51.6902 H         1 UNK         0.0600 
    227 H227        0.6167  -28.3628  -51.5309 H         1 UNK         0.0600 
    228 H228        1.3643  -26.8447  -51.0573 H         1 UNK         0.0600 
    229 H229        0.1943  -27.6248  -49.9941 H         1 UNK         0.0600 
    230 H230       -2.2825  -25.4881  -53.3164 H         1 UNK         0.3000 
    231 H231       -2.4093  -24.6942  -55.3638 H         1 UNK         0.0600 
    232 H232       -2.4502  -27.1138  -55.9271 H         1 UNK         0.0600 
    233 H233       -0.7007  -27.1162  -56.1438 H         1 UNK         0.0600 
    234 H234       -1.7238  -26.1801  -57.2251 H         1 UNK         0.0600 
    235 H235       -0.9290  -23.0133  -54.1704 H         1 UNK         0.3000 
    236 H236        1.1164  -22.1607  -56.1079 H         1 UNK         0.0600 
    237 H237        2.3471  -23.4763  -54.3164 H         1 UNK         0.0600 
    238 H238        2.8136  -21.7890  -54.3602 H         1 UNK         0.0600 
    239 H239        1.7169  -22.3687  -53.1042 H         1 UNK         0.0600 
    240 H240        1.8300  -20.1272  -53.9417 H         1 UNK         0.3000 
    241 H241       -0.5715  -18.4549  -53.7743 H         1 UNK         0.0600 
    242 H242       -0.3742  -16.8407  -52.0124 H         1 UNK         0.3800 
    243 H243        0.7957  -17.1409  -50.7556 H         1 UNK         0.3800 
    244 H244        1.0784  -16.4392  -54.3566 H         1 UNK         0.0800 
    245 H245        2.0493  -17.6412  -55.1480 H         1 UNK         0.0800 
    246 H246       -0.1367  -14.8881  -56.0577 H         1 UNK         0.0800 
    247 H247       -1.5758  -15.5096  -56.8257 H         1 UNK         0.0800 
@<TRIPOS>BOND
     1    1    2 1    
     2    1  127 1    
     3    1  128 1    
     4    1  129 1    
     5    2    3 2    
     6    2    4 am   BACKBONE|DICT|INTERRES
     7    4    5 1    
     8    4  130 1    
     9    5    6 1    
    10    5   65 1    
    11    5  131 1    
    12    6    7 1    
    13    6  132 1    
    14    6  133 1    
    15    7    8 1    
    16    8    9 1    
    17    8  134 1    
    18    8  135 1    
    19    9   10 ar   
    20    9   14 ar   
    21   10   11 ar   
    22   10  136 1    
    23   11   12 ar   
    24   11  126 1    
    25   12   13 ar   
    26   12  137 1    
    27   13   14 ar   
    28   13   15 1    
    29   14  138 1    
    30   15   16 1    
    31   15  139 1    
    32   15  140 1    
    33   16   17 1    
    34   17   18 1    
    35   17  141 1    
    36   17  142 1    
    37   18   19 1    
    38   18   67 1    
    39   18  143 1    
    40   19   20 am   BACKBONE|DICT|INTERRES
    41   19  144 1    
    42   20   21 2    
    43   20   22 1    
    44   22   23 1    
    45   22   24 1    
    46   22  145 1    
    47   23  146 1    
    48   23  147 1    
    49   23  148 1    
    50   24   25 am   BACKBONE|DICT|INTERRES
    51   24  149 1    
    52   25   26 2    
    53   25   27 1    
    54   27   28 1    
    55   27   29 1    
    56   27  150 1    
    57   28  151 1    
    58   28  152 1    
    59   28  153 1    
    60   29   30 am   BACKBONE|DICT|INTERRES
    61   29  154 1    
    62   30   31 2    
    63   30   32 1    
    64   32   33 1    
    65   32   34 1    
    66   32  155 1    
    67   33  156 1    
    68   33  157 1    
    69   33  158 1    
    70   34   35 am   BACKBONE|DICT|INTERRES
    71   34  159 1    
    72   35   36 2    
    73   35   37 1    
    74   37   38 1    
    75   37   39 1    
    76   37  160 1    
    77   38  161 1    
    78   38  162 1    
    79   38  163 1    
    80   39   40 am   BACKBONE|DICT|INTERRES
    81   39  164 1    
    82   40   41 2    
    83   40   42 1    
    84   42   43 1    
    85   42   44 1    
    86   42  165 1    
    87   43  166 1    
    88   43  167 1    
    89   43  168 1    
    90   44   45 am   BACKBONE|DICT|INTERRES
    91   44  169 1    
    92   45   46 2    
    93   45   47 1    
    94   47   48 1    
    95   47   49 1    
    96   47  170 1    
    97   48  171 1    
    98   48  172 1    
    99   48  173 1    
   100   49   50 am   BACKBONE|DICT|INTERRES
   101   49  174 1    
   102   50   51 2    
   103   50   52 1    
   104   52   53 1    
   105   52   54 1    
   106   52  175 1    
   107   53  176 1    
   108   53  177 1    
   109   53  178 1    
   110   54   55 am   BACKBONE|DICT|INTERRES
   111   54  179 1    
   112   55   56 2    
   113   55   57 1    
   114   57   58 1    
   115   57   59 1    
   116   57  180 1    
   117   58  181 1    
   118   58  182 1    
   119   58  183 1    
   120   59   60 am   BACKBONE|DICT|INTERRES
   121   59  184 1    
   122   60   61 2    
   123   60   62 1    
   124   62   63 1    
   125   62   64 1    
   126   62  185 1    
   127   63  186 1    
   128   63  187 1    
   129   63  188 1    
   130   64   65 am   BACKBONE|DICT|INTERRES
   131   64  189 1    
   132   65   66 2    
   133   67   68 2    
   134   67   69 am   BACKBONE|DICT|INTERRES
   135   69   70 1    
   136   69  190 1    
   137   70   71 1    
   138   70   72 1    
   139   70  191 1    
   140   71  192 1    
   141   71  193 1    
   142   71  194 1    
   143   72   73 2    
   144   72   74 am   BACKBONE|DICT|INTERRES
   145   74   75 1    
   146   74  195 1    
   147   75   76 1    
   148   75   77 1    
   149   75  196 1    
   150   76  197 1    
   151   76  198 1    
   152   76  199 1    
   153   77   78 2    
   154   77   79 am   BACKBONE|DICT|INTERRES
   155   79   80 1    
   156   79  200 1    
   157   80   81 1    
   158   80   82 1    
   159   80  201 1    
   160   81  202 1    
   161   81  203 1    
   162   81  204 1    
   163   82   83 2    
   164   82   84 am   BACKBONE|DICT|INTERRES
   165   84   85 1    
   166   84  205 1    
   167   85   86 1    
   168   85   87 1    
   169   85  206 1    
   170   86  207 1    
   171   86  208 1    
   172   86  209 1    
   173   87   88 2    
   174   87   89 am   BACKBONE|DICT|INTERRES
   175   89   90 1    
   176   89  210 1    
   177   90   91 1    
   178   90   92 1    
   179   90  211 1    
   180   91  212 1    
   181   91  213 1    
   182   91  214 1    
   183   92   93 2    
   184   92   94 am   BACKBONE|DICT|INTERRES
   185   94   95 1    
   186   94  215 1    
   187   95   96 1    
   188   95   97 1    
   189   95  216 1    
   190   96  217 1    
   191   96  218 1    
   192   96  219 1    
   193   97   98 2    
   194   97   99 am   BACKBONE|DICT|INTERRES
   195   99  100 1    
   196   99  220 1    
   197  100  101 1    
   198  100  102 1    
   199  100  221 1    
   200  101  222 1    
   201  101  223 1    
   202  101  224 1    
   203  102  103 2    
   204  102  104 am   BACKBONE|DICT|INTERRES
   205  104  105 1    
   206  104  225 1    
   207  105  106 1    
   208  105  107 1    
   209  105  226 1    
   210  106  227 1    
   211  106  228 1    
   212  106  229 1    
   213  107  108 2    
   214  107  109 am   BACKBONE|DICT|INTERRES
   215  109  110 1    
   216  109  230 1    
   217  110  111 1    
   218  110  112 1    
   219  110  231 1    
   220  111  232 1    
   221  111  233 1    
   222  111  234 1    
   223  112  113 2    
   224  112  114 am   BACKBONE|DICT|INTERRES
   225  114  115 1    
   226  114  235 1    
   227  115  116 1    
   228  115  117 1    
   229  115  236 1    
   230  116  237 1    
   231  116  238 1    
   232  116  239 1    
   233  117  118 2    
   234  117  119 am   BACKBONE|DICT|INTERRES
   235  119  120 1    
   236  119  240 1    
   237  120  121 1    
   238  120  124 1    
   239  120  241 1    
   240  121  122 am   BACKBONE|DICT|INTERRES
   241  121  123 2    
   242  122  242 1    
   243  122  243 1    
   244  124  125 1    
   245  124  244 1    
   246  124  245 1    
   247  125  126 1    
   248  126  246 1    
   249  126  247 1    
@<TRIPOS>SUBSTRUCTURE
     1 UNK         1 GROUP             0       ****    0 ROOT    
