@<TRIPOS>MOLECULE
3R540
247   249    1
SMALL
USER_CHARGES


@<TRIPOS>ATOM
      1 CA          4.4634  -16.7498  -46.9941 C.3       0 UNK        -0.1800 
      2 C           3.4197  -15.7224  -46.5853 C.2       0 UNK         0.5000 
      3 O           3.3772  -15.3238  -45.4228 O.2       0 UNK        -0.5000 
      4 N           2.5874  -15.2799  -47.5374 N.am      1 UNK        -0.5000 
      5 CA          1.4884  -14.3162  -47.3626 C.3       1 UNK         0.1400 
      6 C6          0.6859  -14.1025  -48.6697 C.3       23 UNK        -0.0398 
      7 S7          1.7238  -13.6456  -50.1031 S.3       23 UNK        -0.2404 
      8 C8          0.8495  -14.4829  -51.4699 C.3       23 UNK        -0.0205 
      9 C9          0.8911  -16.0124  -51.4520 C.ar      23 UNK        -0.0193 
     10 C10        -0.1374  -16.7141  -52.0887 C.ar      23 UNK        -0.1150 
     11 C11        -0.1100  -18.1085  -52.1667 C.ar      23 UNK        -0.0193 
     12 C12         0.9420  -18.8099  -51.5767 C.ar      23 UNK        -0.1150 
     13 C13         1.9699  -18.1303  -50.9211 C.ar      23 UNK        -0.0193 
     14 C14         1.9461  -16.7321  -50.8733 C.ar      23 UNK        -0.1150 
     15 C15         3.1253  -18.9035  -50.3028 C.3       23 UNK        -0.0205 
     16 S16         2.6924  -19.6020  -48.6771 S.3       23 UNK        -0.2404 
     17 C17         2.0479  -21.2620  -49.1197 C.3       23 UNK        -0.0398 
     18 CA          0.7626  -21.6769  -48.3588 C.3       11 UNK         0.1400 
     19 N           0.9240  -21.5267  -46.9103 N.am      11 UNK        -0.5000 
     20 C           0.0663  -21.9610  -45.9791 C.2       10 UNK         0.5000 
     21 O          -0.9704  -22.5697  -46.2334 O.2       10 UNK        -0.5000 
     22 CA          0.4023  -21.6122  -44.5195 C.3       10 UNK         0.1400 
     23 CB          1.3201  -22.6765  -43.9015 C.3       10 UNK        -0.1800 
     24 N           1.0192  -20.2955  -44.3583 N.am      10 UNK        -0.5000 
     25 C           0.4699  -19.1242  -44.7044 C.2       9 UNK         0.5000 
     26 O          -0.5974  -19.0319  -45.3135 O.2       9 UNK        -0.5000 
     27 CA          1.2420  -17.8505  -44.3021 C.3       9 UNK         0.1400 
     28 CB          0.3641  -16.5887  -44.3916 C.3       9 UNK        -0.1800 
     29 N           1.7967  -17.9346  -42.9512 N.am      9 UNK        -0.5000 
     30 C           2.9124  -18.5771  -42.5838 C.2       8 UNK         0.5000 
     31 O           3.6324  -19.1927  -43.3699 O.2       8 UNK        -0.5000 
     32 CA          3.2299  -18.5961  -41.0803 C.3       8 UNK         0.1400 
     33 CB          3.8037  -17.2497  -40.6175 C.3       8 UNK        -0.1800 
     34 N           2.0260  -18.8934  -40.3074 N.am      8 UNK        -0.5000 
     35 C           1.6637  -20.1157  -39.8963 C.2       7 UNK         0.5000 
     36 O           2.3417  -21.1283  -40.0738 O.2       7 UNK        -0.5000 
     37 CA          0.3128  -20.2301  -39.1617 C.3       7 UNK         0.1400 
     38 CB          0.5101  -20.0712  -37.6464 C.3       7 UNK        -0.1800 
     39 N          -0.6707  -19.2478  -39.6202 N.am      7 UNK        -0.5000 
     40 C          -1.2590  -19.2716  -40.8238 C.2       6 UNK         0.5000 
     41 O          -1.0961  -20.1749  -41.6428 O.2       6 UNK        -0.5000 
     42 CA         -2.1717  -18.0826  -41.1848 C.3       6 UNK         0.1400 
     43 CB         -3.6448  -18.4531  -40.9549 C.3       6 UNK        -0.1800 
     44 N          -1.8830  -16.8293  -40.4752 N.am      6 UNK        -0.5000 
     45 C          -0.7240  -16.1593  -40.5144 C.2       5 UNK         0.5000 
     46 O           0.2996  -16.5894  -41.0471 O.2       5 UNK        -0.5000 
     47 CA         -0.6857  -14.7877  -39.8233 C.3       5 UNK         0.1400 
     48 CB          0.2141  -14.8384  -38.5792 C.3       5 UNK        -0.1800 
     49 N          -0.1835  -13.7605  -40.7337 N.am      5 UNK        -0.5000 
     50 C          -0.8116  -13.3171  -41.8287 C.2       4 UNK         0.5000 
     51 O          -1.9330  -13.6982  -42.1667 O.2       4 UNK        -0.5000 
     52 CA         -0.0850  -12.2678  -42.6952 C.3       4 UNK         0.1400 
     53 CB         -0.2789  -10.8498  -42.1261 C.3       4 UNK        -0.1800 
     54 N           1.3328  -12.5407  -42.9673 N.am      4 UNK        -0.5000 
     55 C           2.3757  -12.5751  -42.1225 C.2       3 UNK         0.5000 
     56 O           2.2781  -12.4157  -40.9052 O.2       3 UNK        -0.5000 
     57 CA          3.7684  -12.8407  -42.7299 C.3       3 UNK         0.1400 
     58 CB          4.2267  -14.2695  -42.4082 C.3       3 UNK        -0.1800 
     59 N           3.8126  -12.6388  -44.1797 N.am      3 UNK        -0.5000 
     60 C           3.8636  -11.4360  -44.7731 C.2       2 UNK         0.5000 
     61 O           3.9456  -10.3766  -44.1503 O.2       2 UNK        -0.5000 
     62 CA          3.7951  -11.3937  -46.3149 C.3       2 UNK         0.1400 
     63 CB          5.2003  -11.2173  -46.9101 C.3       2 UNK        -0.1800 
     64 N           3.1732  -12.5731  -46.9192 N.am      2 UNK        -0.5000 
     65 C           1.9064  -12.9691  -46.7315 C.2       1 UNK         0.5000 
     66 O           1.0934  -12.3465  -46.0473 O.2       1 UNK        -0.5000 
     67 C          -0.4942  -20.9597  -48.8985 C.2       11 UNK         0.5000 
     68 O          -1.2031  -21.5135  -49.7423 O.2       11 UNK        -0.5000 
     69 N          -0.7641  -19.7584  -48.3738 N.am      12 UNK        -0.5000 
     70 CA         -1.9377  -18.9604  -48.7078 C.3       12 UNK         0.1400 
     71 CB         -1.6458  -17.4830  -48.4131 C.3       12 UNK        -0.1800 
     72 C          -3.1809  -19.4510  -47.9491 C.2       12 UNK         0.5000 
     73 O          -4.2474  -19.5655  -48.5523 O.2       12 UNK        -0.5000 
     74 N          -3.0190  -19.7704  -46.6563 N.am      13 UNK        -0.5000 
     75 CA         -4.0809  -20.2596  -45.7721 C.3       13 UNK         0.1400 
     76 CB         -3.5540  -20.3354  -44.3326 C.3       13 UNK        -0.1800 
     77 C          -4.6693  -21.6149  -46.2087 C.2       13 UNK         0.5000 
     78 O          -5.8789  -21.8145  -46.0960 O.2       13 UNK        -0.5000 
     79 N          -3.8172  -22.5019  -46.7410 N.am      14 UNK        -0.5000 
     80 CA         -4.2040  -23.7833  -47.3362 C.3       14 UNK         0.1400 
     81 CB         -2.9947  -24.7328  -47.3129 C.3       14 UNK        -0.1800 
     82 C          -4.7509  -23.6517  -48.7722 C.2       14 UNK         0.5000 
     83 O          -5.0793  -24.6736  -49.3755 O.2       14 UNK        -0.5000 
     84 N          -4.8067  -22.4252  -49.3151 N.am      15 UNK        -0.5000 
     85 CA         -5.2625  -22.0733  -50.6620 C.3       15 UNK         0.1400 
     86 CB         -6.7830  -22.2988  -50.7978 C.3       15 UNK        -0.1800 
     87 C          -4.4490  -22.7882  -51.7568 C.2       15 UNK         0.5000 
     88 O          -5.0319  -23.3648  -52.6789 O.2       15 UNK        -0.5000 
     89 N          -3.1140  -22.7424  -51.6227 N.am      16 UNK        -0.5000 
     90 CA         -2.1271  -23.4003  -52.4865 C.3       16 UNK         0.1400 
     91 CB         -2.1385  -22.7823  -53.9002 C.3       16 UNK        -0.1800 
     92 C          -2.2724  -24.9377  -52.4842 C.2       16 UNK         0.5000 
     93 O          -2.1172  -25.5765  -53.5249 O.2       16 UNK        -0.5000 
     94 N          -2.5803  -25.4886  -51.2995 N.am      17 UNK        -0.5000 
     95 CA         -2.9067  -26.8914  -51.0238 C.3       17 UNK         0.1400 
     96 CB         -1.7057  -27.8173  -51.3108 C.3       17 UNK        -0.1800 
     97 C          -4.2053  -27.3212  -51.7364 C.2       17 UNK         0.5000 
     98 O          -4.2172  -28.3078  -52.4751 O.2       17 UNK        -0.5000 
     99 N          -5.2733  -26.5486  -51.4879 N.am      18 UNK        -0.5000 
    100 CA        -6.6329  -26.7003  -52.0136 C.3       18 UNK         0.1400 
    101 CB        -7.3009  -27.9627  -51.4298 C.3       18 UNK        -0.1800 
    102 C         -6.6997  -26.6337  -53.5543 C.2       18 UNK         0.5000 
    103 O         -7.3959  -27.4351  -54.1809 O.2       18 UNK        -0.5000 
    104 N         -5.9784  -25.6665  -54.1334 N.am      19 UNK        -0.5000 
    105 CA        -5.8986  -25.4148  -55.5746 C.3       19 UNK         0.1400 
    106 CB        -4.4318  -25.5281  -56.0216 C.3       19 UNK        -0.1800 
    107 C         -6.5168  -24.0519  -55.9468 C.2       19 UNK         0.5000 
    108 O         -6.2191  -23.5218  -57.0177 O.2       19 UNK        -0.5000 
    109 N         -7.3750  -23.5193  -55.0626 N.am      20 UNK        -0.5000 
    110 CA        -8.1002  -22.2474  -55.1717 C.3       20 UNK         0.1400 
    111 CB        -9.0597  -22.2491  -56.3811 C.3       20 UNK        -0.1800 
    112 C         -7.1809  -21.0080  -55.1232 C.2       20 UNK         0.5000 
    113 O         -7.4934  -19.9837  -55.7336 O.2       20 UNK        -0.5000 
    114 N         -6.0868  -21.1181  -54.3565 N.am      21 UNK        -0.5000 
    115 CA        -5.0898  -20.0807  -54.0829 C.3       21 UNK         0.1400 
    116 CB        -5.7172  -18.9076  -53.2955 C.3       21 UNK        -0.1800 
    117 C         -4.2880  -19.6542  -55.3297 C.2       21 UNK         0.5000 
    118 O         -4.1358  -20.4430  -56.2648 O.2       21 UNK        -0.5000 
    119 N         -3.7241  -18.4435  -55.2764 N.am      22 UNK        -0.5000 
    120 CA        -2.7063  -17.9340  -56.2116 C.3       22 UNK         0.1400 
    121 C         -3.1776  -16.6889  -57.0174 C.2       22 UNK         0.5000 
    122 N         -4.4412  -16.2878  -56.9430 N.am      22 UNK        -0.7600 
    123 O         -2.3901  -16.0811  -57.7375 O.2       22 UNK        -0.5000 
    124 C124       -1.3607  -17.6732  -55.4793 C.3       23 UNK        -0.0398 
    125 S125       -0.7169  -19.1660  -54.6414 S.3       23 UNK        -0.2404 
    126 C126       -1.1956  -18.8682  -52.9079 C.3       23 UNK        -0.0205 
    127 H127        4.2849  -17.6911  -46.4741 H         1 UNK         0.0600 
    128 H128        5.4602  -16.3970  -46.7301 H         1 UNK         0.0600 
    129 H129        4.4438  -16.9424  -48.0666 H         1 UNK         0.0600 
    130 H130        2.6909  -15.6324  -48.4768 H         1 UNK         0.3000 
    131 H131        0.8034  -14.7666  -46.6449 H         1 UNK         0.0600 
    132 H132        0.1500  -15.0209  -48.9052 H         1 UNK         0.0800 
    133 H133       -0.0878  -13.3438  -48.5376 H         1 UNK         0.0800 
    134 H134        1.2865  -14.1455  -52.4104 H         1 UNK         0.0800 
    135 H135       -0.1858  -14.1380  -51.4724 H         1 UNK         0.0800 
    136 H136       -0.9494  -16.1699  -52.5495 H         1 UNK         0.1150 
    137 H137        0.9639  -19.8870  -51.6474 H         1 UNK         0.1150 
    138 H138        2.7650  -16.2083  -50.4043 H         1 UNK         0.1150 
    139 H139        3.4544  -19.6939  -50.9789 H         1 UNK         0.0800 
    140 H140        3.9864  -18.2460  -50.1768 H         1 UNK         0.0800 
    141 H141        1.8966  -21.3425  -50.1961 H         1 UNK         0.0800 
    142 H142        2.8376  -21.9793  -48.8926 H         1 UNK         0.0800 
    143 H143        0.6064  -22.7414  -48.5466 H         1 UNK         0.0600 
    144 H144        1.7385  -21.0118  -46.6086 H         1 UNK         0.3000 
    145 H145       -0.5320  -21.6068  -43.9572 H         1 UNK         0.0600 
    146 H146        1.4853  -22.4838  -42.8409 H         1 UNK         0.0600 
    147 H147        2.2931  -22.7049  -44.3935 H         1 UNK         0.0600 
    148 H148        0.8782  -23.6702  -43.9858 H         1 UNK         0.0600 
    149 H149        1.9187  -20.2665  -43.8938 H         1 UNK         0.3000 
    150 H150        2.0635  -17.7466  -45.0111 H         1 UNK         0.0600 
    151 H151       -0.0417  -16.4641  -45.3948 H         1 UNK         0.0600 
    152 H152        0.9348  -15.6908  -44.1530 H         1 UNK         0.0600 
    153 H153       -0.4813  -16.6377  -43.7054 H         1 UNK         0.0600 
    154 H154        1.2535  -17.4633  -42.2293 H         1 UNK         0.3000 
    155 H155        3.9889  -19.3616  -40.9051 H         1 UNK         0.0600 
    156 H156        4.6864  -16.9813  -41.1991 H         1 UNK         0.0600 
    157 H157        4.1040  -17.2910  -39.5705 H         1 UNK         0.0600 
    158 H158        3.0759  -16.4444  -40.7222 H         1 UNK         0.0600 
    159 H159        1.3761  -18.1265  -40.1822 H         1 UNK         0.3000 
    160 H160       -0.0852  -21.2292  -39.3520 H         1 UNK         0.0600 
    161 H161        0.8912  -19.0815  -37.3912 H         1 UNK         0.0600 
    162 H162        1.2220  -20.8052  -37.2666 H         1 UNK         0.0600 
    163 H163       -0.4265  -20.2202  -37.1087 H         1 UNK         0.0600 
    164 H164       -0.8715  -18.4756  -39.0025 H         1 UNK         0.3000 
    165 H165       -2.0322  -17.8919  -42.2506 H         1 UNK         0.0600 
    166 H166       -4.3109  -17.6813  -41.3409 H         1 UNK         0.0600 
    167 H167       -3.9012  -19.3838  -41.4622 H         1 UNK         0.0600 
    168 H168       -3.8636  -18.5887  -39.8950 H         1 UNK         0.0600 
    169 H169       -2.6666  -16.4045  -40.0005 H         1 UNK         0.3000 
    170 H170       -1.6948  -14.5089  -39.5132 H         1 UNK         0.0600 
    171 H171        1.2447  -15.0866  -38.8376 H         1 UNK         0.0600 
    172 H172        0.2220  -13.8800  -38.0598 H         1 UNK         0.0600 
    173 H173       -0.1380  -15.5895  -37.8710 H         1 UNK         0.0600 
    174 H174        0.7476  -13.3948  -40.5528 H         1 UNK         0.3000 
    175 H175       -0.5702  -12.2903  -43.6724 H         1 UNK         0.0600 
    176 H176        0.1732  -10.7396  -41.1401 H         1 UNK         0.0600 
    177 H177        0.1611  -10.0992  -42.7828 H         1 UNK         0.0600 
    178 H178       -1.3388  -10.6130  -42.0257 H         1 UNK         0.0600 
    179 H179        1.5389  -12.6823  -43.9489 H         1 UNK         0.3000 
    180 H180        4.4704  -12.1485  -42.2603 H         1 UNK         0.0600 
    181 H181        4.3254  -14.4067  -41.3311 H         1 UNK         0.0600 
    182 H182        5.1975  -14.4868  -42.8536 H         1 UNK         0.0600 
    183 H183        3.5155  -15.0122  -42.7724 H         1 UNK         0.0600 
    184 H184        3.7349  -13.4756  -44.7510 H         1 UNK         0.3000 
    185 H185        3.1940  -10.5246  -46.5897 H         1 UNK         0.0600 
    186 H186        5.8408  -12.0716  -46.6872 H         1 UNK         0.0600 
    187 H187        5.1589  -11.1006  -47.9932 H         1 UNK         0.0600 
    188 H188        5.6871  -10.3279  -46.5075 H         1 UNK         0.0600 
    189 H189        3.7689  -13.1562  -47.4885 H         1 UNK         0.3000 
    190 H190       -0.1610  -19.3993  -47.6473 H         1 UNK         0.3000 
    191 H191       -2.1359  -19.0543  -49.7779 H         1 UNK         0.0600 
    192 H192       -0.7868  -17.1419  -48.9901 H         1 UNK         0.0600 
    193 H193       -1.4323  -17.3122  -47.3576 H         1 UNK         0.0600 
    194 H194       -2.4941  -16.8543  -48.6860 H         1 UNK         0.0600 
    195 H195       -2.1094  -19.6153  -46.2267 H         1 UNK         0.3000 
    196 H196       -4.8897  -19.5265  -45.7972 H         1 UNK         0.0600 
    197 H197       -3.1691  -19.3712  -44.0011 H         1 UNK         0.0600 
    198 H198       -2.7517  -21.0660  -44.2379 H         1 UNK         0.0600 
    199 H199       -4.3458  -20.6275  -43.6420 H         1 UNK         0.0600 
    200 H200       -2.8219  -22.2946  -46.7338 H         1 UNK         0.3000 
    201 H201       -4.9946  -24.2288  -46.7292 H         1 UNK         0.0600 
    202 H202       -2.6092  -24.8541  -46.3004 H         1 UNK         0.0600 
    203 H203       -2.1816  -24.3630  -47.9390 H         1 UNK         0.0600 
    204 H204       -3.2642  -25.7258  -47.6742 H         1 UNK         0.0600 
    205 H205       -4.5112  -21.6390  -48.7482 H         1 UNK         0.3000 
    206 H206       -5.0741  -21.0062  -50.7862 H         1 UNK         0.0600 
    207 H207       -7.3284  -21.7710  -50.0155 H         1 UNK         0.0600 
    208 H208       -7.0456  -23.3551  -50.7339 H         1 UNK         0.0600 
    209 H209       -7.1515  -21.9271  -51.7541 H         1 UNK         0.0600 
    210 H210       -2.7150  -22.2476  -50.8293 H         1 UNK         0.3000 
    211 H211       -1.1497  -23.1919  -52.0491 H         1 UNK         0.0600 
    212 H212       -3.0888  -22.9345  -54.4097 H         1 UNK         0.0600 
    213 H213       -1.3563  -23.2122  -54.5264 H         1 UNK         0.0600 
    214 H214       -1.9619  -21.7099  -53.8568 H         1 UNK         0.0600 
    215 H215       -2.7171  -24.8569  -50.5242 H         1 UNK         0.3000 
    216 H216       -3.1126  -26.9524  -49.9541 H         1 UNK         0.0600 
    217 H217       -1.9174  -28.8369  -50.9869 H         1 UNK         0.0600 
    218 H218       -0.8159  -27.4852  -50.7762 H         1 UNK         0.0600 
    219 H219       -1.4633  -27.8590  -52.3728 H         1 UNK         0.0600 
    220 H220       -5.1527  -25.7760  -50.8349 H         1 UNK         0.3000 
    221 H221       -7.1927  -25.8374  -51.6504 H         1 UNK         0.0600 
    222 H222       -6.8192  -28.8757  -51.7807 H         1 UNK         0.0600 
    223 H223       -7.2617  -27.9601  -50.3404 H         1 UNK         0.0600 
    224 H224       -8.3522  -28.0167  -51.7150 H         1 UNK         0.0600 
    225 H225       -5.4679  -25.0140  -53.5422 H         1 UNK         0.3000 
    226 H226       -6.4683  -26.1664  -56.1240 H         1 UNK         0.0600 
    227 H227       -4.0055  -26.4892  -55.7329 H         1 UNK         0.0600 
    228 H228       -4.3409  -25.4448  -57.1051 H         1 UNK         0.0600 
    229 H229       -3.8172  -24.7462  -55.5792 H         1 UNK         0.0600 
    230 H230       -7.5307  -24.0386  -54.2107 H         1 UNK         0.3000 
    231 H231       -8.7183  -22.1846  -54.2750 H         1 UNK         0.0600 
    232 H232       -9.7174  -21.3795  -56.3583 H         1 UNK         0.0600 
    233 H233       -9.6955  -23.1344  -56.3797 H         1 UNK         0.0600 
    234 H234       -8.5209  -22.2230  -57.3285 H         1 UNK         0.0600 
    235 H235       -5.8879  -22.0259  -53.9502 H         1 UNK         0.3000 
    236 H236       -4.3514  -20.5414  -53.4289 H         1 UNK         0.0600 
    237 H237       -6.3124  -19.2727  -52.4583 H         1 UNK         0.0600 
    238 H238       -4.9536  -18.2531  -52.8742 H         1 UNK         0.0600 
    239 H239       -6.3684  -18.2985  -53.9232 H         1 UNK         0.0600 
    240 H240       -3.9327  -17.8443  -54.4917 H         1 UNK         0.3000 
    241 H241       -2.5094  -18.6884  -56.9751 H         1 UNK         0.0600 
    242 H242       -4.7390  -15.4841  -57.4738 H         1 UNK         0.3800 
    243 H243       -5.1106  -16.7986  -56.3894 H         1 UNK         0.3800 
    244 H244       -1.4652  -16.8593  -54.7617 H         1 UNK         0.0800 
    245 H245       -0.5986  -17.3500  -56.1902 H         1 UNK         0.0800 
    246 H246       -1.3655  -19.8280  -52.4172 H         1 UNK         0.0800 
    247 H247       -2.1439  -18.3325  -52.8569 H         1 UNK         0.0800 
@<TRIPOS>BOND
     1    1    2 1    
     2    1  127 1    
     3    1  128 1    
     4    1  129 1    
     5    2    3 2    
     6    2    4 am   BACKBONE|DICT|INTERRES
     7    4    5 1    
     8    4  130 1    
     9    5    6 1    
    10    5   65 1    
    11    5  131 1    
    12    6    7 1    
    13    6  132 1    
    14    6  133 1    
    15    7    8 1    
    16    8    9 1    
    17    8  134 1    
    18    8  135 1    
    19    9   10 ar   
    20    9   14 ar   
    21   10   11 ar   
    22   10  136 1    
    23   11   12 ar   
    24   11  126 1    
    25   12   13 ar   
    26   12  137 1    
    27   13   14 ar   
    28   13   15 1    
    29   14  138 1    
    30   15   16 1    
    31   15  139 1    
    32   15  140 1    
    33   16   17 1    
    34   17   18 1    
    35   17  141 1    
    36   17  142 1    
    37   18   19 1    
    38   18   67 1    
    39   18  143 1    
    40   19   20 am   BACKBONE|DICT|INTERRES
    41   19  144 1    
    42   20   21 2    
    43   20   22 1    
    44   22   23 1    
    45   22   24 1    
    46   22  145 1    
    47   23  146 1    
    48   23  147 1    
    49   23  148 1    
    50   24   25 am   BACKBONE|DICT|INTERRES
    51   24  149 1    
    52   25   26 2    
    53   25   27 1    
    54   27   28 1    
    55   27   29 1    
    56   27  150 1    
    57   28  151 1    
    58   28  152 1    
    59   28  153 1    
    60   29   30 am   BACKBONE|DICT|INTERRES
    61   29  154 1    
    62   30   31 2    
    63   30   32 1    
    64   32   33 1    
    65   32   34 1    
    66   32  155 1    
    67   33  156 1    
    68   33  157 1    
    69   33  158 1    
    70   34   35 am   BACKBONE|DICT|INTERRES
    71   34  159 1    
    72   35   36 2    
    73   35   37 1    
    74   37   38 1    
    75   37   39 1    
    76   37  160 1    
    77   38  161 1    
    78   38  162 1    
    79   38  163 1    
    80   39   40 am   BACKBONE|DICT|INTERRES
    81   39  164 1    
    82   40   41 2    
    83   40   42 1    
    84   42   43 1    
    85   42   44 1    
    86   42  165 1    
    87   43  166 1    
    88   43  167 1    
    89   43  168 1    
    90   44   45 am   BACKBONE|DICT|INTERRES
    91   44  169 1    
    92   45   46 2    
    93   45   47 1    
    94   47   48 1    
    95   47   49 1    
    96   47  170 1    
    97   48  171 1    
    98   48  172 1    
    99   48  173 1    
   100   49   50 am   BACKBONE|DICT|INTERRES
   101   49  174 1    
   102   50   51 2    
   103   50   52 1    
   104   52   53 1    
   105   52   54 1    
   106   52  175 1    
   107   53  176 1    
   108   53  177 1    
   109   53  178 1    
   110   54   55 am   BACKBONE|DICT|INTERRES
   111   54  179 1    
   112   55   56 2    
   113   55   57 1    
   114   57   58 1    
   115   57   59 1    
   116   57  180 1    
   117   58  181 1    
   118   58  182 1    
   119   58  183 1    
   120   59   60 am   BACKBONE|DICT|INTERRES
   121   59  184 1    
   122   60   61 2    
   123   60   62 1    
   124   62   63 1    
   125   62   64 1    
   126   62  185 1    
   127   63  186 1    
   128   63  187 1    
   129   63  188 1    
   130   64   65 am   BACKBONE|DICT|INTERRES
   131   64  189 1    
   132   65   66 2    
   133   67   68 2    
   134   67   69 am   BACKBONE|DICT|INTERRES
   135   69   70 1    
   136   69  190 1    
   137   70   71 1    
   138   70   72 1    
   139   70  191 1    
   140   71  192 1    
   141   71  193 1    
   142   71  194 1    
   143   72   73 2    
   144   72   74 am   BACKBONE|DICT|INTERRES
   145   74   75 1    
   146   74  195 1    
   147   75   76 1    
   148   75   77 1    
   149   75  196 1    
   150   76  197 1    
   151   76  198 1    
   152   76  199 1    
   153   77   78 2    
   154   77   79 am   BACKBONE|DICT|INTERRES
   155   79   80 1    
   156   79  200 1    
   157   80   81 1    
   158   80   82 1    
   159   80  201 1    
   160   81  202 1    
   161   81  203 1    
   162   81  204 1    
   163   82   83 2    
   164   82   84 am   BACKBONE|DICT|INTERRES
   165   84   85 1    
   166   84  205 1    
   167   85   86 1    
   168   85   87 1    
   169   85  206 1    
   170   86  207 1    
   171   86  208 1    
   172   86  209 1    
   173   87   88 2    
   174   87   89 am   BACKBONE|DICT|INTERRES
   175   89   90 1    
   176   89  210 1    
   177   90   91 1    
   178   90   92 1    
   179   90  211 1    
   180   91  212 1    
   181   91  213 1    
   182   91  214 1    
   183   92   93 2    
   184   92   94 am   BACKBONE|DICT|INTERRES
   185   94   95 1    
   186   94  215 1    
   187   95   96 1    
   188   95   97 1    
   189   95  216 1    
   190   96  217 1    
   191   96  218 1    
   192   96  219 1    
   193   97   98 2    
   194   97   99 am   BACKBONE|DICT|INTERRES
   195   99  100 1    
   196   99  220 1    
   197  100  101 1    
   198  100  102 1    
   199  100  221 1    
   200  101  222 1    
   201  101  223 1    
   202  101  224 1    
   203  102  103 2    
   204  102  104 am   BACKBONE|DICT|INTERRES
   205  104  105 1    
   206  104  225 1    
   207  105  106 1    
   208  105  107 1    
   209  105  226 1    
   210  106  227 1    
   211  106  228 1    
   212  106  229 1    
   213  107  108 2    
   214  107  109 am   BACKBONE|DICT|INTERRES
   215  109  110 1    
   216  109  230 1    
   217  110  111 1    
   218  110  112 1    
   219  110  231 1    
   220  111  232 1    
   221  111  233 1    
   222  111  234 1    
   223  112  113 2    
   224  112  114 am   BACKBONE|DICT|INTERRES
   225  114  115 1    
   226  114  235 1    
   227  115  116 1    
   228  115  117 1    
   229  115  236 1    
   230  116  237 1    
   231  116  238 1    
   232  116  239 1    
   233  117  118 2    
   234  117  119 am   BACKBONE|DICT|INTERRES
   235  119  120 1    
   236  119  240 1    
   237  120  121 1    
   238  120  124 1    
   239  120  241 1    
   240  121  122 am   BACKBONE|DICT|INTERRES
   241  121  123 2    
   242  122  242 1    
   243  122  243 1    
   244  124  125 1    
   245  124  244 1    
   246  124  245 1    
   247  125  126 1    
   248  126  246 1    
   249  126  247 1    
@<TRIPOS>SUBSTRUCTURE
     1 UNK         1 GROUP             0       ****    0 ROOT    
