@<TRIPOS>MOLECULE
3R540
247   249    1
SMALL
USER_CHARGES


@<TRIPOS>ATOM
      1 CA          7.3533  -17.2164  -50.9526 C.3       0 UNK        -0.1800 
      2 C           6.3760  -18.0033  -50.0914 C.2       0 UNK         0.5000 
      3 O           6.6437  -19.1572  -49.7551 O.2       0 UNK        -0.5000 
      4 N           5.2503  -17.3830  -49.7188 N.am      1 UNK        -0.5000 
      5 CA          4.1596  -17.9622  -48.9220 C.3       1 UNK         0.1400 
      6 C6          2.8257  -17.2057  -49.1553 C.3       23 UNK        -0.0398 
      7 S7          2.2825  -17.2050  -50.8982 S.3       23 UNK        -0.2404 
      8 C8          0.5603  -17.7754  -50.7500 C.3       23 UNK        -0.0205 
      9 C9         -0.4200  -16.6465  -50.4478 C.ar      23 UNK        -0.0193 
     10 C10        -1.3497  -16.2497  -51.4152 C.ar      23 UNK        -0.1150 
     11 C11        -2.3113  -15.2759  -51.1246 C.ar      23 UNK        -0.0193 
     12 C12        -2.3267  -14.6842  -49.8596 C.ar      23 UNK        -0.1150 
     13 C13        -1.4002  -15.0624  -48.8855 C.ar      23 UNK        -0.0193 
     14 C14        -0.4431  -16.0349  -49.1894 C.ar      23 UNK        -0.1150 
     15 C15        -1.4507  -14.4225  -47.5055 C.3       23 UNK        -0.0205 
     16 S16        -2.8996  -14.9844  -46.5527 S.3       23 UNK        -0.2404 
     17 C17        -2.2778  -16.4916  -45.7329 C.3       23 UNK        -0.0398 
     18 CA         -2.2513  -17.7546  -46.6260 C.3       11 UNK         0.1400 
     19 N          -1.4677  -18.8201  -46.0056 N.am      11 UNK        -0.5000 
     20 C          -1.0496  -19.9320  -46.6211 C.2       10 UNK         0.5000 
     21 O          -1.2539  -20.1793  -47.8083 O.2       10 UNK        -0.5000 
     22 CA         -0.3095  -20.9590  -45.7507 C.3       10 UNK         0.1400 
     23 CB          1.1855  -20.6131  -45.6603 C.3       10 UNK        -0.1800 
     24 N          -0.8918  -21.0462  -44.4097 N.am      10 UNK        -0.5000 
     25 C          -2.0892  -21.5901  -44.1448 C.2       9 UNK         0.5000 
     26 O          -2.8028  -22.1154  -44.9983 O.2       9 UNK        -0.5000 
     27 CA         -2.5924  -21.4971  -42.6921 C.3       9 UNK         0.1400 
     28 CB         -1.9655  -22.6018  -41.8286 C.3       9 UNK        -0.1800 
     29 N          -2.3292  -20.1937  -42.0805 N.am      9 UNK        -0.5000 
     30 C          -2.8950  -19.0440  -42.4740 C.2       8 UNK         0.5000 
     31 O          -3.7219  -18.9637  -43.3813 O.2       8 UNK        -0.5000 
     32 CA         -2.4166  -17.7572  -41.7748 C.3       8 UNK         0.1400 
     33 CB         -3.2179  -17.5111  -40.4883 C.3       8 UNK        -0.1800 
     34 N          -0.9837  -17.7283  -41.4653 N.am      8 UNK        -0.5000 
     35 C           0.0067  -17.9270  -42.3456 C.2       7 UNK         0.5000 
     36 O          -0.1786  -18.2560  -43.5173 O.2       7 UNK        -0.5000 
     37 CA          1.4290  -17.6712  -41.8266 C.3       7 UNK         0.1400 
     38 CB          2.5122  -18.2081  -42.7799 C.3       7 UNK        -0.1800 
     39 N           1.5917  -16.2299  -41.6663 N.am      7 UNK        -0.5000 
     40 C           1.4263  -15.5598  -40.5173 C.2       6 UNK         0.5000 
     41 O           1.2299  -16.1118  -39.4342 O.2       6 UNK        -0.5000 
     42 CA          1.4470  -14.0188  -40.5809 C.3       6 UNK         0.1400 
     43 CB          2.8075  -13.4699  -40.1284 C.3       6 UNK        -0.1800 
     44 N           1.1328  -13.4973  -41.9123 N.am      6 UNK        -0.5000 
     45 C          -0.0986  -13.4820  -42.4447 C.2       5 UNK         0.5000 
     46 O          -1.1083  -13.8316  -41.8329 O.2       5 UNK        -0.5000 
     47 CA         -0.2287  -13.0260  -43.9135 C.3       5 UNK         0.1400 
     48 CB         -0.6628  -11.5548  -43.9877 C.3       5 UNK        -0.1800 
     49 N           0.9879  -13.2052  -44.7129 N.am      5 UNK        -0.5000 
     50 C           1.5744  -14.3844  -44.9561 C.2       4 UNK         0.5000 
     51 O           1.1550  -15.4485  -44.5053 O.2       4 UNK        -0.5000 
     52 CA          2.8397  -14.4006  -45.8309 C.3       4 UNK         0.1400 
     53 CB          3.2706  -13.0211  -46.3772 C.3       4 UNK        -0.1800 
     54 N           3.9417  -15.0669  -45.1346 N.am      4 UNK        -0.5000 
     55 C           4.5456  -14.6768  -44.0018 C.2       3 UNK         0.5000 
     56 O           4.2436  -13.6465  -43.3974 O.2       3 UNK        -0.5000 
     57 CA          5.6603  -15.5847  -43.4334 C.3       3 UNK         0.1400 
     58 CB          5.5138  -15.7765  -41.9140 C.3       3 UNK        -0.1800 
     59 N           5.7072  -16.9020  -44.0752 N.am      3 UNK        -0.5000 
     60 C           6.4470  -17.2126  -45.1476 C.2       2 UNK         0.5000 
     61 O           7.2154  -16.4225  -45.6981 O.2       2 UNK        -0.5000 
     62 CA          6.2820  -18.6304  -45.7399 C.3       2 UNK         0.1400 
     63 CB          5.4949  -19.6118  -44.8404 C.3       2 UNK        -0.1800 
     64 N           5.6890  -18.5724  -47.0798 N.am      2 UNK        -0.5000 
     65 C           4.5134  -18.0231  -47.4155 C.2       1 UNK         0.5000 
     66 O           3.7364  -17.5493  -46.5856 O.2       1 UNK        -0.5000 
     67 C          -3.6499  -18.2387  -47.0612 C.2       11 UNK         0.5000 
     68 O          -4.0466  -17.9925  -48.1991 O.2       11 UNK        -0.5000 
     69 N          -4.3411  -18.9792  -46.1830 N.am      12 UNK        -0.5000 
     70 CA         -5.6369  -19.6017  -46.4664 C.3       12 UNK         0.1400 
     71 CB         -6.2315  -20.1411  -45.1567 C.3       12 UNK        -0.1800 
     72 C          -5.5644  -20.7215  -47.5241 C.2       12 UNK         0.5000 
     73 O          -6.5479  -20.9555  -48.2258 O.2       12 UNK        -0.5000 
     74 N          -4.4126  -21.3976  -47.6117 N.am      13 UNK        -0.5000 
     75 CA         -4.1410  -22.4416  -48.5969 C.3       13 UNK         0.1400 
     76 CB         -3.0194  -23.3434  -48.0551 C.3       13 UNK        -0.1800 
     77 C          -3.7352  -21.8903  -49.9754 C.2       13 UNK         0.5000 
     78 O          -3.8761  -22.6029  -50.9677 O.2       13 UNK        -0.5000 
     79 N          -3.1716  -20.6733  -49.9969 N.am      14 UNK        -0.5000 
     80 CA         -2.3507  -20.1111  -51.0736 C.3       14 UNK         0.1400 
     81 CB         -3.1729  -19.8015  -52.3379 C.3       14 UNK        -0.1800 
     82 C          -1.1014  -20.9793  -51.3372 C.2       14 UNK         0.5000 
     83 O          -0.7737  -21.2873  -52.4850 O.2       14 UNK        -0.5000 
     84 N          -0.4372  -21.3658  -50.2377 N.am      15 UNK        -0.5000 
     85 CA          0.7500  -22.2157  -50.1582 C.3       15 UNK         0.1400 
     86 CB          1.9943  -21.4251  -50.6212 C.3       15 UNK        -0.1800 
     87 C           0.5423  -23.5651  -50.8804 C.2       15 UNK         0.5000 
     88 O          -0.2833  -24.3669  -50.4388 O.2       15 UNK        -0.5000 
     89 N           1.2719  -23.7841  -51.9827 N.am      16 UNK        -0.5000 
     90 CA          1.2573  -24.9989  -52.8025 C.3       16 UNK         0.1400 
     91 CB          2.3745  -24.8944  -53.8525 C.3       16 UNK        -0.1800 
     92 C          -0.0927  -25.3117  -53.4816 C.2       16 UNK         0.5000 
     93 O          -0.2966  -26.4488  -53.9084 O.2       16 UNK        -0.5000 
     94 N          -0.9948  -24.3230  -53.5617 N.am      17 UNK        -0.5000 
     95 CA         -2.3535  -24.4756  -54.0877 C.3       17 UNK         0.1400 
     96 CB         -2.9070  -23.0865  -54.4231 C.3       17 UNK        -0.1800 
     97 C          -3.3097  -25.2373  -53.1426 C.2       17 UNK         0.5000 
     98 O          -4.4228  -25.5626  -53.5623 O.2       17 UNK        -0.5000 
     99 N          -2.8755  -25.5059  -51.9002 N.am      18 UNK        -0.5000 
    100 CA        -3.5001  -26.3127  -50.8416 C.3       18 UNK         0.1400 
    101 CB        -3.6640  -27.7768  -51.2906 C.3       18 UNK        -0.1800 
    102 C         -4.8220  -25.7633  -50.2671 C.2       18 UNK         0.5000 
    103 O         -4.9911  -25.7643  -49.0477 O.2       18 UNK        -0.5000 
    104 N         -5.7248  -25.3091  -51.1386 N.am      19 UNK        -0.5000 
    105 CA        -7.0130  -24.6935  -50.8186 C.3       19 UNK         0.1400 
    106 CB        -7.9817  -25.7531  -50.2516 C.3       19 UNK        -0.1800 
    107 C         -7.6475  -23.9797  -52.0297 C.2       19 UNK         0.5000 
    108 O         -8.7217  -23.3969  -51.8757 O.2       19 UNK        -0.5000 
    109 N         -7.0278  -24.0559  -53.2186 N.am      20 UNK        -0.5000 
    110 CA        -7.6270  -23.6241  -54.4847 C.3       20 UNK         0.1400 
    111 CB        -6.8787  -24.3040  -55.6429 C.3       20 UNK        -0.1800 
    112 C         -7.6997  -22.0975  -54.6985 C.2       20 UNK         0.5000 
    113 O         -8.3548  -21.6689  -55.6504 O.2       20 UNK        -0.5000 
    114 N         -7.0434  -21.3001  -53.8469 N.am      21 UNK        -0.5000 
    115 CA        -7.0211  -19.8415  -53.9338 C.3       21 UNK         0.1400 
    116 CB        -5.9237  -19.4025  -54.9228 C.3       21 UNK        -0.1800 
    117 C         -6.8085  -19.2168  -52.5467 C.2       21 UNK         0.5000 
    118 O         -6.4271  -19.9172  -51.6077 O.2       21 UNK        -0.5000 
    119 N         -7.0601  -17.9040  -52.4655 N.am      22 UNK        -0.5000 
    120 CA        -6.7879  -16.9610  -51.3574 C.3       22 UNK         0.1400 
    121 C         -7.4957  -17.2355  -49.9957 C.2       22 UNK         0.5000 
    122 N         -7.9668  -18.4402  -49.7137 N.am      22 UNK        -0.7600 
    123 O         -7.6557  -16.3183  -49.1952 O.2       22 UNK        -0.5000 
    124 C124       -5.2734  -16.6872  -51.1467 C.3       23 UNK        -0.0398 
    125 S125       -4.4091  -16.2298  -52.6956 S.3       23 UNK        -0.2404 
    126 C126       -3.3345  -14.8561  -52.1717 C.3       23 UNK        -0.0205 
    127 H127        8.3122  -17.1238  -50.4425 H         1 UNK         0.0600 
    128 H128        6.9853  -16.2134  -51.1704 H         1 UNK         0.0600 
    129 H129        7.5173  -17.7313  -51.8992 H         1 UNK         0.0600 
    130 H130        5.0986  -16.4311  -50.0205 H         1 UNK         0.3000 
    131 H131        4.0128  -18.9948  -49.2452 H         1 UNK         0.0600 
    132 H132        2.9082  -16.1678  -48.8294 H         1 UNK         0.0800 
    133 H133        2.0454  -17.6597  -48.5434 H         1 UNK         0.0800 
    134 H134        0.4804  -18.5469  -49.9831 H         1 UNK         0.0800 
    135 H135        0.2925  -18.2605  -51.6897 H         1 UNK         0.0800 
    136 H136       -1.3465  -16.7159  -52.3905 H         1 UNK         0.1150 
    137 H137       -3.0697  -13.9355  -49.6230 H         1 UNK         0.1150 
    138 H138        0.2584  -16.3371  -48.4274 H         1 UNK         0.1150 
    139 H139       -0.5361  -14.6237  -46.9489 H         1 UNK         0.0800 
    140 H140       -1.5053  -13.3389  -47.6190 H         1 UNK         0.0800 
    141 H141       -2.8904  -16.6706  -44.8489 H         1 UNK         0.0800 
    142 H142       -1.2757  -16.2813  -45.3564 H         1 UNK         0.0800 
    143 H143       -1.7247  -17.5069  -47.5424 H         1 UNK         0.0600 
    144 H144       -1.1832  -18.6757  -45.0395 H         1 UNK         0.3000 
    145 H145       -0.4018  -21.9365  -46.2285 H         1 UNK         0.0600 
    146 H146        1.7223  -21.3294  -45.0383 H         1 UNK         0.0600 
    147 H147        1.3493  -19.6181  -45.2458 H         1 UNK         0.0600 
    148 H148        1.6474  -20.6296  -46.6483 H         1 UNK         0.0600 
    149 H149       -0.4060  -20.5535  -43.6737 H         1 UNK         0.3000 
    150 H150       -3.6738  -21.6497  -42.7068 H         1 UNK         0.0600 
    151 H151       -2.1612  -23.5871  -42.2538 H         1 UNK         0.0600 
    152 H152       -2.3796  -22.5964  -40.8201 H         1 UNK         0.0600 
    153 H153       -0.8837  -22.4877  -41.7484 H         1 UNK         0.0600 
    154 H154       -1.6520  -20.1653  -41.3328 H         1 UNK         0.3000 
    155 H155       -2.6110  -16.9262  -42.4551 H         1 UNK         0.0600 
    156 H156       -4.2900  -17.5064  -40.6901 H         1 UNK         0.0600 
    157 H157       -2.9679  -16.5458  -40.0475 H         1 UNK         0.0600 
    158 H158       -3.0270  -18.2822  -39.7410 H         1 UNK         0.0600 
    159 H159       -0.7346  -17.4395  -40.5295 H         1 UNK         0.3000 
    160 H160        1.5391  -18.1876  -40.8709 H         1 UNK         0.0600 
    161 H161        3.5037  -18.1039  -42.3432 H         1 UNK         0.0600 
    162 H162        2.3635  -19.2700  -42.9782 H         1 UNK         0.0600 
    163 H163        2.5058  -17.6902  -43.7401 H         1 UNK         0.0600 
    164 H164        1.6346  -15.7075  -42.5349 H         1 UNK         0.3000 
    165 H165        0.6915  -13.6550  -39.8811 H         1 UNK         0.0600 
    166 H166        2.8019  -12.3803  -40.0954 H         1 UNK         0.0600 
    167 H167        3.0599  -13.8241  -39.1281 H         1 UNK         0.0600 
    168 H168        3.6085  -13.7798  -40.7974 H         1 UNK         0.0600 
    169 H169        1.9156  -13.2088  -42.4844 H         1 UNK         0.3000 
    170 H170       -1.0129  -13.6348  -44.3680 H         1 UNK         0.0600 
    171 H171        0.0978  -10.8901  -43.5765 H         1 UNK         0.0600 
    172 H172       -0.8555  -11.2518  -45.0171 H         1 UNK         0.0600 
    173 H173       -1.5827  -11.3897  -43.4251 H         1 UNK         0.0600 
    174 H174        1.4046  -12.3691  -45.0961 H         1 UNK         0.3000 
    175 H175        2.5968  -15.0287  -46.6882 H         1 UNK         0.0600 
    176 H176        3.5078  -12.3131  -45.5825 H         1 UNK         0.0600 
    177 H177        4.1553  -13.1148  -47.0071 H         1 UNK         0.0600 
    178 H178        2.4869  -12.5803  -46.9945 H         1 UNK         0.0600 
    179 H179        4.1789  -15.9787  -45.5132 H         1 UNK         0.3000 
    180 H180        6.6061  -15.0676  -43.6070 H         1 UNK         0.0600 
    181 H181        6.2496  -16.4830  -41.5295 H         1 UNK         0.0600 
    182 H182        4.5232  -16.1389  -41.6416 H         1 UNK         0.0600 
    183 H183        5.6725  -14.8344  -41.3885 H         1 UNK         0.0600 
    184 H184        5.0745  -17.6007  -43.7147 H         1 UNK         0.3000 
    185 H185        7.2899  -19.0298  -45.8610 H         1 UNK         0.0600 
    186 H186        5.4956  -20.6131  -45.2710 H         1 UNK         0.0600 
    187 H187        5.9474  -19.6907  -43.8511 H         1 UNK         0.0600 
    188 H188        4.4538  -19.3166  -44.7102 H         1 UNK         0.0600 
    189 H189        6.2699  -18.9099  -47.8417 H         1 UNK         0.3000 
    190 H190       -3.9737  -19.1091  -45.2434 H         1 UNK         0.3000 
    191 H191       -6.3040  -18.8283  -46.8532 H         1 UNK         0.0600 
    192 H192       -6.3723  -19.3417  -44.4291 H         1 UNK         0.0600 
    193 H193       -5.5853  -20.8951  -44.7048 H         1 UNK         0.0600 
    194 H194       -7.2057  -20.6007  -45.3280 H         1 UNK         0.0600 
    195 H195       -3.6765  -21.1934  -46.9486 H         1 UNK         0.3000 
    196 H196       -5.0380  -23.0481  -48.7296 H         1 UNK         0.0600 
    197 H197       -3.3342  -23.8610  -47.1490 H         1 UNK         0.0600 
    198 H198       -2.1195  -22.7748  -47.8231 H         1 UNK         0.0600 
    199 H199       -2.7363  -24.1045  -48.7822 H         1 UNK         0.0600 
    200 H200       -3.1108  -20.1802  -49.1152 H         1 UNK         0.3000 
    201 H201       -1.9792  -19.1593  -50.6951 H         1 UNK         0.0600 
    202 H202       -3.8807  -19.0039  -52.1437 H         1 UNK         0.0600 
    203 H203       -3.7516  -20.6545  -52.6814 H         1 UNK         0.0600 
    204 H204       -2.5396  -19.4683  -53.1606 H         1 UNK         0.0600 
    205 H205       -0.8011  -21.0453  -49.3422 H         1 UNK         0.3000 
    206 H206        0.8862  -22.4556  -49.1027 H         1 UNK         0.0600 
    207 H207        1.9099  -21.0875  -51.6548 H         1 UNK         0.0600 
    208 H208        2.1402  -20.5406  -50.0015 H         1 UNK         0.0600 
    209 H209        2.9006  -22.0259  -50.5353 H         1 UNK         0.0600 
    210 H210        1.8919  -23.0492  -52.2903 H         1 UNK         0.3000 
    211 H211        1.4848  -25.8403  -52.1450 H         1 UNK         0.0600 
    212 H212        2.2145  -24.0511  -54.5256 H         1 UNK         0.0600 
    213 H213        2.4250  -25.7968  -54.4634 H         1 UNK         0.0600 
    214 H214        3.3497  -24.7694  -53.3815 H         1 UNK         0.0600 
    215 H215       -0.7566  -23.4120  -53.1859 H         1 UNK         0.3000 
    216 H216       -2.3000  -25.0479  -55.0160 H         1 UNK         0.0600 
    217 H217       -3.9023  -23.1438  -54.8605 H         1 UNK         0.0600 
    218 H218       -2.2667  -22.5610  -55.1316 H         1 UNK         0.0600 
    219 H219       -2.9796  -22.4823  -53.5238 H         1 UNK         0.0600 
    220 H220       -1.9797  -25.1092  -51.6404 H         1 UNK         0.3000 
    221 H221       -2.7821  -26.3062  -50.0200 H         1 UNK         0.0600 
    222 H222       -4.3698  -27.8738  -52.1160 H         1 UNK         0.0600 
    223 H223       -2.7117  -28.1984  -51.6124 H         1 UNK         0.0600 
    224 H224       -4.0339  -28.3954  -50.4720 H         1 UNK         0.0600 
    225 H225       -5.4651  -25.3741  -52.1180 H         1 UNK         0.3000 
    226 H226       -6.8461  -23.9270  -50.0599 H         1 UNK         0.0600 
    227 H227       -7.6084  -26.1887  -49.3252 H         1 UNK         0.0600 
    228 H228       -8.9556  -25.3182  -50.0237 H         1 UNK         0.0600 
    229 H229       -8.1424  -26.5648  -50.9619 H         1 UNK         0.0600 
    230 H230       -6.1336  -24.5222  -53.3021 H         1 UNK         0.3000 
    231 H231       -8.6565  -23.9883  -54.5053 H         1 UNK         0.0600 
    232 H232       -7.3456  -24.0738  -56.6014 H         1 UNK         0.0600 
    233 H233       -6.8838  -25.3888  -55.5342 H         1 UNK         0.0600 
    234 H234       -5.8410  -23.9793  -55.6999 H         1 UNK         0.0600 
    235 H235       -6.5731  -21.6927  -53.0412 H         1 UNK         0.3000 
    236 H236       -7.9893  -19.4889  -54.2959 H         1 UNK         0.0600 
    237 H237       -4.9447  -19.7816  -54.6306 H         1 UNK         0.0600 
    238 H238       -6.1320  -19.7652  -55.9294 H         1 UNK         0.0600 
    239 H239       -5.8499  -18.3160  -54.9821 H         1 UNK         0.0600 
    240 H240       -7.4068  -17.4534  -53.2997 H         1 UNK         0.3000 
    241 H241       -7.2243  -16.0224  -51.7018 H         1 UNK         0.0600 
    242 H242       -7.6938  -19.2171  -50.3064 H         1 UNK         0.3800 
    243 H243       -8.4320  -18.6115  -48.8377 H         1 UNK         0.3800 
    244 H244       -4.7869  -17.5625  -50.7166 H         1 UNK         0.0800 
    245 H245       -5.1362  -15.8865  -50.4179 H         1 UNK         0.0800 
    246 H246       -3.9575  -14.0383  -51.8062 H         1 UNK         0.0800 
    247 H247       -2.8060  -14.4714  -53.0448 H         1 UNK         0.0800 
@<TRIPOS>BOND
     1    1    2 1    
     2    1  127 1    
     3    1  128 1    
     4    1  129 1    
     5    2    3 2    
     6    2    4 am   BACKBONE|DICT|INTERRES
     7    4    5 1    
     8    4  130 1    
     9    5    6 1    
    10    5   65 1    
    11    5  131 1    
    12    6    7 1    
    13    6  132 1    
    14    6  133 1    
    15    7    8 1    
    16    8    9 1    
    17    8  134 1    
    18    8  135 1    
    19    9   10 ar   
    20    9   14 ar   
    21   10   11 ar   
    22   10  136 1    
    23   11   12 ar   
    24   11  126 1    
    25   12   13 ar   
    26   12  137 1    
    27   13   14 ar   
    28   13   15 1    
    29   14  138 1    
    30   15   16 1    
    31   15  139 1    
    32   15  140 1    
    33   16   17 1    
    34   17   18 1    
    35   17  141 1    
    36   17  142 1    
    37   18   19 1    
    38   18   67 1    
    39   18  143 1    
    40   19   20 am   BACKBONE|DICT|INTERRES
    41   19  144 1    
    42   20   21 2    
    43   20   22 1    
    44   22   23 1    
    45   22   24 1    
    46   22  145 1    
    47   23  146 1    
    48   23  147 1    
    49   23  148 1    
    50   24   25 am   BACKBONE|DICT|INTERRES
    51   24  149 1    
    52   25   26 2    
    53   25   27 1    
    54   27   28 1    
    55   27   29 1    
    56   27  150 1    
    57   28  151 1    
    58   28  152 1    
    59   28  153 1    
    60   29   30 am   BACKBONE|DICT|INTERRES
    61   29  154 1    
    62   30   31 2    
    63   30   32 1    
    64   32   33 1    
    65   32   34 1    
    66   32  155 1    
    67   33  156 1    
    68   33  157 1    
    69   33  158 1    
    70   34   35 am   BACKBONE|DICT|INTERRES
    71   34  159 1    
    72   35   36 2    
    73   35   37 1    
    74   37   38 1    
    75   37   39 1    
    76   37  160 1    
    77   38  161 1    
    78   38  162 1    
    79   38  163 1    
    80   39   40 am   BACKBONE|DICT|INTERRES
    81   39  164 1    
    82   40   41 2    
    83   40   42 1    
    84   42   43 1    
    85   42   44 1    
    86   42  165 1    
    87   43  166 1    
    88   43  167 1    
    89   43  168 1    
    90   44   45 am   BACKBONE|DICT|INTERRES
    91   44  169 1    
    92   45   46 2    
    93   45   47 1    
    94   47   48 1    
    95   47   49 1    
    96   47  170 1    
    97   48  171 1    
    98   48  172 1    
    99   48  173 1    
   100   49   50 am   BACKBONE|DICT|INTERRES
   101   49  174 1    
   102   50   51 2    
   103   50   52 1    
   104   52   53 1    
   105   52   54 1    
   106   52  175 1    
   107   53  176 1    
   108   53  177 1    
   109   53  178 1    
   110   54   55 am   BACKBONE|DICT|INTERRES
   111   54  179 1    
   112   55   56 2    
   113   55   57 1    
   114   57   58 1    
   115   57   59 1    
   116   57  180 1    
   117   58  181 1    
   118   58  182 1    
   119   58  183 1    
   120   59   60 am   BACKBONE|DICT|INTERRES
   121   59  184 1    
   122   60   61 2    
   123   60   62 1    
   124   62   63 1    
   125   62   64 1    
   126   62  185 1    
   127   63  186 1    
   128   63  187 1    
   129   63  188 1    
   130   64   65 am   BACKBONE|DICT|INTERRES
   131   64  189 1    
   132   65   66 2    
   133   67   68 2    
   134   67   69 am   BACKBONE|DICT|INTERRES
   135   69   70 1    
   136   69  190 1    
   137   70   71 1    
   138   70   72 1    
   139   70  191 1    
   140   71  192 1    
   141   71  193 1    
   142   71  194 1    
   143   72   73 2    
   144   72   74 am   BACKBONE|DICT|INTERRES
   145   74   75 1    
   146   74  195 1    
   147   75   76 1    
   148   75   77 1    
   149   75  196 1    
   150   76  197 1    
   151   76  198 1    
   152   76  199 1    
   153   77   78 2    
   154   77   79 am   BACKBONE|DICT|INTERRES
   155   79   80 1    
   156   79  200 1    
   157   80   81 1    
   158   80   82 1    
   159   80  201 1    
   160   81  202 1    
   161   81  203 1    
   162   81  204 1    
   163   82   83 2    
   164   82   84 am   BACKBONE|DICT|INTERRES
   165   84   85 1    
   166   84  205 1    
   167   85   86 1    
   168   85   87 1    
   169   85  206 1    
   170   86  207 1    
   171   86  208 1    
   172   86  209 1    
   173   87   88 2    
   174   87   89 am   BACKBONE|DICT|INTERRES
   175   89   90 1    
   176   89  210 1    
   177   90   91 1    
   178   90   92 1    
   179   90  211 1    
   180   91  212 1    
   181   91  213 1    
   182   91  214 1    
   183   92   93 2    
   184   92   94 am   BACKBONE|DICT|INTERRES
   185   94   95 1    
   186   94  215 1    
   187   95   96 1    
   188   95   97 1    
   189   95  216 1    
   190   96  217 1    
   191   96  218 1    
   192   96  219 1    
   193   97   98 2    
   194   97   99 am   BACKBONE|DICT|INTERRES
   195   99  100 1    
   196   99  220 1    
   197  100  101 1    
   198  100  102 1    
   199  100  221 1    
   200  101  222 1    
   201  101  223 1    
   202  101  224 1    
   203  102  103 2    
   204  102  104 am   BACKBONE|DICT|INTERRES
   205  104  105 1    
   206  104  225 1    
   207  105  106 1    
   208  105  107 1    
   209  105  226 1    
   210  106  227 1    
   211  106  228 1    
   212  106  229 1    
   213  107  108 2    
   214  107  109 am   BACKBONE|DICT|INTERRES
   215  109  110 1    
   216  109  230 1    
   217  110  111 1    
   218  110  112 1    
   219  110  231 1    
   220  111  232 1    
   221  111  233 1    
   222  111  234 1    
   223  112  113 2    
   224  112  114 am   BACKBONE|DICT|INTERRES
   225  114  115 1    
   226  114  235 1    
   227  115  116 1    
   228  115  117 1    
   229  115  236 1    
   230  116  237 1    
   231  116  238 1    
   232  116  239 1    
   233  117  118 2    
   234  117  119 am   BACKBONE|DICT|INTERRES
   235  119  120 1    
   236  119  240 1    
   237  120  121 1    
   238  120  124 1    
   239  120  241 1    
   240  121  122 am   BACKBONE|DICT|INTERRES
   241  121  123 2    
   242  122  242 1    
   243  122  243 1    
   244  124  125 1    
   245  124  244 1    
   246  124  245 1    
   247  125  126 1    
   248  126  246 1    
   249  126  247 1    
@<TRIPOS>SUBSTRUCTURE
     1 UNK         1 GROUP             0       ****    0 ROOT    
