@<TRIPOS>MOLECULE
3R540
247   249    1
SMALL
USER_CHARGES


@<TRIPOS>ATOM
      1 CA          1.6434   -9.9380  -48.7598 C.3       0 UNK        -0.1800 
      2 C           1.0706  -10.4826  -47.4596 C.2       0 UNK         0.5000 
      3 O           1.8168  -10.7172  -46.5092 O.2       0 UNK        -0.5000 
      4 N          -0.2535  -10.6682  -47.4014 N.am      1 UNK        -0.5000 
      5 CA         -1.0037  -11.2336  -46.2699 C.3       1 UNK         0.1400 
      6 C6         -2.3529  -11.8618  -46.7219 C.3       23 UNK        -0.0398 
      7 S7         -2.2554  -12.9198  -48.2089 S.3       23 UNK        -0.2404 
      8 C8         -1.9290  -14.5676  -47.5114 C.3       23 UNK        -0.0205 
      9 C9         -2.4199  -15.6596  -48.4503 C.ar      23 UNK        -0.0193 
     10 C10        -1.7694  -15.8894  -49.6659 C.ar      23 UNK        -0.1150 
     11 C11        -2.2359  -16.8680  -50.5484 C.ar      23 UNK        -0.0193 
     12 C12        -3.3609  -17.6231  -50.2057 C.ar      23 UNK        -0.1150 
     13 C13        -4.0100  -17.4164  -48.9846 C.ar      23 UNK        -0.0193 
     14 C14        -3.5355  -16.4313  -48.1127 C.ar      23 UNK        -0.1150 
     15 C15        -5.2227  -18.2559  -48.6019 C.3       23 UNK        -0.0205 
     16 S16        -4.8492  -20.0372  -48.5004 S.3       23 UNK        -0.2404 
     17 C17        -3.3932  -20.0365  -47.4032 C.3       23 UNK        -0.0398 
     18 CA         -2.9438  -21.4650  -47.0144 C.3       11 UNK         0.1400 
     19 N          -1.4838  -21.5585  -46.9030 N.am      11 UNK        -0.5000 
     20 C          -0.7887  -22.7026  -46.8425 C.2       10 UNK         0.5000 
     21 O          -1.3009  -23.8191  -46.8811 O.2       10 UNK        -0.5000 
     22 CA          0.7341  -22.5834  -46.6585 C.3       10 UNK         0.1400 
     23 CB          1.4268  -22.2950  -47.9986 C.3       10 UNK        -0.1800 
     24 N           1.0986  -21.5647  -45.6734 N.am      10 UNK        -0.5000 
     25 C           0.7565  -21.6141  -44.3776 C.2       9 UNK         0.5000 
     26 O           0.1520  -22.5577  -43.8692 O.2       9 UNK        -0.5000 
     27 CA          1.0847  -20.3799  -43.5194 C.3       9 UNK         0.1400 
     28 CB          2.5551  -20.3910  -43.0771 C.3       9 UNK        -0.1800 
     29 N           0.7866  -19.1245  -44.2080 N.am      9 UNK        -0.5000 
     30 C          -0.4347  -18.7396  -44.6060 C.2       8 UNK         0.5000 
     31 O          -1.4609  -19.3847  -44.3955 O.2       8 UNK        -0.5000 
     32 CA         -0.5130  -17.4362  -45.4193 C.3       8 UNK         0.1400 
     33 CB         -0.4743  -16.2119  -44.4895 C.3       8 UNK        -0.1800 
     34 N           0.5608  -17.3449  -46.4104 N.am      8 UNK        -0.5000 
     35 C           0.6794  -18.1561  -47.4727 C.2       7 UNK         0.5000 
     36 O          -0.1143  -19.0583  -47.7345 O.2       7 UNK        -0.5000 
     37 CA          1.9281  -17.9609  -48.3528 C.3       7 UNK         0.1400 
     38 CB          1.7569  -16.7561  -49.2889 C.3       7 UNK        -0.1800 
     39 N           3.1419  -17.7709  -47.5605 N.am      7 UNK        -0.5000 
     40 C           3.6887  -18.6934  -46.7564 C.2       6 UNK         0.5000 
     41 O           3.2582  -19.8392  -46.6338 O.2       6 UNK        -0.5000 
     42 CA          4.8831  -18.2286  -45.8998 C.3       6 UNK         0.1400 
     43 CB          6.2000  -18.3858  -46.6743 C.3       6 UNK        -0.1800 
     44 N           4.7452  -16.8404  -45.4439 N.am      6 UNK        -0.5000 
     45 C           3.7566  -16.4099  -44.6503 C.2       5 UNK         0.5000 
     46 O           2.8850  -17.1502  -44.1846 O.2       5 UNK        -0.5000 
     47 CA          3.6854  -14.9014  -44.3838 C.3       5 UNK         0.1400 
     48 CB          3.1382  -14.1623  -45.6227 C.3       5 UNK        -0.1800 
     49 N           2.7995  -14.7004  -43.2440 N.am      5 UNK        -0.5000 
     50 C           2.6354  -13.5721  -42.5533 C.2       4 UNK         0.5000 
     51 O           3.2479  -12.5244  -42.7792 O.2       4 UNK        -0.5000 
     52 CA          1.6126  -13.6259  -41.4118 C.3       4 UNK         0.1400 
     53 CB          2.2402  -14.1845  -40.1226 C.3       4 UNK        -0.1800 
     54 N           1.1243  -12.2728  -41.1868 N.am      4 UNK        -0.5000 
     55 C          -0.0591  -11.9398  -40.6617 C.2       3 UNK         0.5000 
     56 O          -0.8835  -12.7535  -40.2443 O.2       3 UNK        -0.5000 
     57 CA         -0.3846  -10.4421  -40.6453 C.3       3 UNK         0.1400 
     58 CB          0.4143   -9.7176  -39.5436 C.3       3 UNK        -0.1800 
     59 N          -0.1096   -9.8756  -41.9653 N.am      3 UNK        -0.5000 
     60 C          -0.5131   -8.6782  -42.4016 C.2       2 UNK         0.5000 
     61 O          -1.1439   -7.8717  -41.7168 O.2       2 UNK        -0.5000 
     62 CA         -0.1606   -8.3234  -43.8582 C.3       2 UNK         0.1400 
     63 CB          1.2008   -7.6144  -43.9243 C.3       2 UNK        -0.1800 
     64 N          -0.1418   -9.4727  -44.7685 N.am      2 UNK        -0.5000 
     65 C          -1.2118  -10.1878  -45.1419 C.2       1 UNK         0.5000 
     66 O          -2.3330  -10.0120  -44.6614 O.2       1 UNK        -0.5000 
     67 C          -3.6865  -21.9787  -45.7604 C.2       11 UNK         0.5000 
     68 O          -4.8123  -22.4648  -45.8732 O.2       11 UNK        -0.5000 
     69 N          -3.0497  -21.8758  -44.5866 N.am      12 UNK        -0.5000 
     70 CA         -3.5319  -22.4693  -43.3415 C.3       12 UNK         0.1400 
     71 CB         -2.8581  -21.7758  -42.1475 C.3       12 UNK        -0.1800 
     72 C          -3.2940  -23.9909  -43.3049 C.2       12 UNK         0.5000 
     73 O          -4.1563  -24.7270  -42.8236 O.2       12 UNK        -0.5000 
     74 N          -2.1326  -24.4330  -43.8073 N.am      13 UNK        -0.5000 
     75 CA         -1.7155  -25.8344  -43.8414 C.3       13 UNK         0.1400 
     76 CB         -0.2080  -25.9112  -44.1284 C.3       13 UNK        -0.1800 
     77 C          -2.5024  -26.6901  -44.8514 C.2       13 UNK         0.5000 
     78 O          -2.8359  -27.8331  -44.5340 O.2       13 UNK        -0.5000 
     79 N          -2.7787  -26.1396  -46.0393 N.am      14 UNK        -0.5000 
     80 CA         -3.4943  -26.8057  -47.1237 C.3       14 UNK         0.1400 
     81 CB         -2.4819  -27.3125  -48.1628 C.3       14 UNK        -0.1800 
     82 C          -4.4810  -25.8285  -47.7715 C.2       14 UNK         0.5000 
     83 O          -4.1625  -24.6478  -47.9205 O.2       14 UNK        -0.5000 
     84 N          -5.6478  -26.3466  -48.1791 N.am      15 UNK        -0.5000 
     85 CA         -6.7281  -25.6006  -48.8284 C.3       15 UNK         0.1400 
     86 CB         -7.8853  -26.5593  -49.1479 C.3       15 UNK        -0.1800 
     87 C          -6.2519  -24.8772  -50.1009 C.2       15 UNK         0.5000 
     88 O          -5.6827  -25.5170  -50.9891 O.2       15 UNK        -0.5000 
     89 N          -6.4442  -23.5504  -50.1287 N.am      16 UNK        -0.5000 
     90 CA         -6.0040  -22.6154  -51.1728 C.3       16 UNK         0.1400 
     91 CB         -6.8225  -22.8309  -52.4618 C.3       16 UNK        -0.1800 
     92 C          -4.4790  -22.6447  -51.4266 C.2       16 UNK         0.5000 
     93 O          -4.0388  -22.3602  -52.5423 O.2       16 UNK        -0.5000 
     94 N          -3.7078  -23.0241  -50.3964 N.am      17 UNK        -0.5000 
     95 CA         -2.2581  -23.2318  -50.3944 C.3       17 UNK         0.1400 
     96 CB         -1.5113  -21.9058  -50.6496 C.3       17 UNK        -0.1800 
     97 C          -1.7995  -24.3731  -51.3249 C.2       17 UNK         0.5000 
     98 O          -0.6552  -24.3598  -51.7800 O.2       17 UNK        -0.5000 
     99 N          -2.7019  -25.3263  -51.6154 N.am      18 UNK        -0.5000 
    100 CA        -2.5740  -26.4982  -52.4967 C.3       18 UNK         0.1400 
    101 CB        -1.4569  -27.4442  -52.0170 C.3       18 UNK        -0.1800 
    102 C         -2.4062  -26.1678  -53.9953 C.2       18 UNK         0.5000 
    103 O         -2.9602  -26.8736  -54.8380 O.2       18 UNK        -0.5000 
    104 N         -1.6675  -25.0971  -54.3027 N.am      19 UNK        -0.5000 
    105 CA        -1.3678  -24.5911  -55.6418 C.3       19 UNK         0.1400 
    106 CB        -0.0869  -23.7464  -55.5528 C.3       19 UNK        -0.1800 
    107 C         -2.5189  -23.7898  -56.2881 C.2       19 UNK         0.5000 
    108 O         -2.3478  -23.3118  -57.4095 O.2       19 UNK        -0.5000 
    109 N         -3.6533  -23.6574  -55.5834 N.am      20 UNK        -0.5000 
    110 CA        -4.8742  -22.9424  -55.9657 C.3       20 UNK         0.1400 
    111 CB        -5.4854  -23.5020  -57.2679 C.3       20 UNK        -0.1800 
    112 C         -4.6373  -21.4227  -56.0061 C.2       20 UNK         0.5000 
    113 O         -4.4765  -20.8385  -57.0788 O.2       20 UNK        -0.5000 
    114 N         -4.5913  -20.8318  -54.8057 N.am      21 UNK        -0.5000 
    115 CA        -4.3082  -19.4274  -54.5016 C.3       21 UNK         0.1400 
    116 CB        -5.3165  -18.4728  -55.1751 C.3       21 UNK        -0.1800 
    117 C         -2.8355  -19.0803  -54.7804 C.2       21 UNK         0.5000 
    118 O         -2.5371  -18.0427  -55.3737 O.2       21 UNK        -0.5000 
    119 N         -1.9457  -19.9708  -54.3221 N.am      22 UNK        -0.5000 
    120 CA        -0.4771  -19.8522  -54.3792 C.3       22 UNK         0.1400 
    121 C          0.1374  -19.9571  -55.8099 C.2       22 UNK         0.5000 
    122 N         -0.6079  -20.3678  -56.8286 N.am      22 UNK        -0.7600 
    123 O          1.3224  -19.6956  -55.9980 O.2       22 UNK        -0.5000 
    124 C124        0.0746  -18.6286  -53.5905 C.3       23 UNK        -0.0398 
    125 S125       -0.4911  -18.5764  -51.8539 S.3       23 UNK        -0.2404 
    126 C126       -1.5453  -17.0936  -51.8832 C.3       23 UNK        -0.0205 
    127 H127        0.8674   -9.7779  -49.5087 H         1 UNK         0.0600 
    128 H128        2.1447   -8.9871  -48.5795 H         1 UNK         0.0600 
    129 H129        2.3723  -10.6372  -49.1693 H         1 UNK         0.0600 
    130 H130       -0.8140  -10.4404  -48.2103 H         1 UNK         0.3000 
    131 H131       -0.4036  -12.0388  -45.8403 H         1 UNK         0.0600 
    132 H132       -2.8015  -12.4289  -45.9047 H         1 UNK         0.0800 
    133 H133       -3.0695  -11.0738  -46.9613 H         1 UNK         0.0800 
    134 H134       -2.4109  -14.6636  -46.5377 H         1 UNK         0.0800 
    135 H135       -0.8568  -14.6807  -47.3467 H         1 UNK         0.0800 
    136 H136       -0.9109  -15.2886  -49.9308 H         1 UNK         0.1150 
    137 H137       -3.7228  -18.3838  -50.8832 H         1 UNK         0.1150 
    138 H138       -4.0395  -16.2602  -47.1719 H         1 UNK         0.1150 
    139 H139       -5.6319  -17.9307  -47.6442 H         1 UNK         0.0800 
    140 H140       -6.0102  -18.1011  -49.3405 H         1 UNK         0.0800 
    141 H141       -3.5772  -19.4119  -46.5268 H         1 UNK         0.0800 
    142 H142       -2.6003  -19.5393  -47.9608 H         1 UNK         0.0800 
    143 H143       -3.2185  -22.1381  -47.8257 H         1 UNK         0.0600 
    144 H144       -0.9729  -20.6809  -46.9141 H         1 UNK         0.3000 
    145 H145        1.1003  -23.5441  -46.2913 H         1 UNK         0.0600 
    146 H146        2.5111  -22.2845  -47.8870 H         1 UNK         0.0600 
    147 H147        1.1831  -23.0612  -48.7359 H         1 UNK         0.0600 
    148 H148        1.1248  -21.3333  -48.4131 H         1 UNK         0.0600 
    149 H149        1.6458  -20.7783  -46.0108 H         1 UNK         0.3000 
    150 H150        0.4606  -20.4224  -42.6244 H         1 UNK         0.0600 
    151 H151        2.7871  -21.2988  -42.5189 H         1 UNK         0.0600 
    152 H152        2.7785  -19.5431  -42.4293 H         1 UNK         0.0600 
    153 H153        3.2331  -20.3476  -43.9293 H         1 UNK         0.0600 
    154 H154        1.5725  -18.5039  -44.3819 H         1 UNK         0.3000 
    155 H155       -1.4642  -17.4294  -45.9560 H         1 UNK         0.0600 
    156 H156        0.4058  -16.2181  -43.8482 H         1 UNK         0.0600 
    157 H157       -1.3484  -16.1966  -43.8376 H         1 UNK         0.0600 
    158 H158       -0.4693  -15.2773  -45.0482 H         1 UNK         0.0600 
    159 H159        1.2914  -16.6750  -46.2299 H         1 UNK         0.3000 
    160 H160        2.0538  -18.8578  -48.9631 H         1 UNK         0.0600 
    161 H161        2.6209  -16.6374  -49.9427 H         1 UNK         0.0600 
    162 H162        1.6210  -15.8255  -48.7363 H         1 UNK         0.0600 
    163 H163        0.8873  -16.8869  -49.9297 H         1 UNK         0.0600 
    164 H164        3.5725  -16.8596  -47.6016 H         1 UNK         0.3000 
    165 H165        4.9275  -18.8697  -45.0171 H         1 UNK         0.0600 
    166 H166        7.0572  -18.1342  -46.0496 H         1 UNK         0.0600 
    167 H167        6.3345  -19.4153  -47.0091 H         1 UNK         0.0600 
    168 H168        6.2282  -17.7468  -47.5577 H         1 UNK         0.0600 
    169 H169        5.4270  -16.1798  -45.7889 H         1 UNK         0.3000 
    170 H170        4.6846  -14.5378  -44.1359 H         1 UNK         0.0600 
    171 H171        3.7636  -14.3376  -46.4985 H         1 UNK         0.0600 
    172 H172        2.1259  -14.4840  -45.8700 H         1 UNK         0.0600 
    173 H173        3.1115  -13.0841  -45.4647 H         1 UNK         0.0600 
    174 H174        2.3075  -15.5435  -42.9731 H         1 UNK         0.3000 
    175 H175        0.7813  -14.2632  -41.7218 H         1 UNK         0.0600 
    176 H176        3.0710  -13.5660  -39.7810 H         1 UNK         0.0600 
    177 H177        1.5083  -14.2365  -39.3164 H         1 UNK         0.0600 
    178 H178        2.6226  -15.1940  -40.2783 H         1 UNK         0.0600 
    179 H179        1.7584  -11.5542  -41.5138 H         1 UNK         0.3000 
    180 H180       -1.4513  -10.3354  -40.4369 H         1 UNK         0.0600 
    181 H181        1.4852   -9.7268  -39.7492 H         1 UNK         0.0600 
    182 H182        0.2613  -10.1938  -38.5743 H         1 UNK         0.0600 
    183 H183        0.1038   -8.6780  -39.4413 H         1 UNK         0.0600 
    184 H184        0.3533  -10.4872  -42.6228 H         1 UNK         0.3000 
    185 H185       -0.9221   -7.6280  -44.2173 H         1 UNK         0.0600 
    186 H186        1.2177   -6.7375  -43.2757 H         1 UNK         0.0600 
    187 H187        2.0122   -8.2721  -43.6098 H         1 UNK         0.0600 
    188 H188        1.4190   -7.2732  -44.9365 H         1 UNK         0.0600 
    189 H189        0.7426   -9.6944  -45.2161 H         1 UNK         0.3000 
    190 H190       -2.1646  -21.3833  -44.5526 H         1 UNK         0.3000 
    191 H191       -4.6073  -22.2952  -43.2644 H         1 UNK         0.0600 
    192 H192       -1.7776  -21.9181  -42.1506 H         1 UNK         0.0600 
    193 H193       -3.2375  -22.1702  -41.2041 H         1 UNK         0.0600 
    194 H194       -3.0526  -20.7030  -42.1546 H         1 UNK         0.0600 
    195 H195       -1.4553  -23.7527  -44.1356 H         1 UNK         0.3000 
    196 H196       -1.8869  -26.2568  -42.8490 H         1 UNK         0.0600 
    197 H197        0.0384  -25.4865  -45.1017 H         1 UNK         0.0600 
    198 H198        0.1385  -26.9454  -44.1243 H         1 UNK         0.0600 
    199 H199        0.3655  -25.3729  -43.3735 H         1 UNK         0.0600 
    200 H200       -2.4639  -25.1927  -46.2441 H         1 UNK         0.3000 
    201 H201       -4.0605  -27.6553  -46.7364 H         1 UNK         0.0600 
    202 H202       -2.9897  -27.8171  -48.9854 H         1 UNK         0.0600 
    203 H203       -1.7862  -28.0261  -47.7213 H         1 UNK         0.0600 
    204 H204       -1.8985  -26.4933  -48.5863 H         1 UNK         0.0600 
    205 H205       -5.8094  -27.3351  -48.0537 H         1 UNK         0.3000 
    206 H206       -7.0874  -24.8589  -48.1120 H         1 UNK         0.0600 
    207 H207       -8.2733  -27.0270  -48.2429 H         1 UNK         0.0600 
    208 H208       -8.7134  -26.0278  -49.6188 H         1 UNK         0.0600 
    209 H209       -7.5744  -27.3519  -49.8298 H         1 UNK         0.0600 
    210 H210       -6.8882  -23.1192  -49.3295 H         1 UNK         0.3000 
    211 H211       -6.2289  -21.6144  -50.8030 H         1 UNK         0.0600 
    212 H212       -6.5700  -23.7739  -52.9478 H         1 UNK         0.0600 
    213 H213       -6.6460  -22.0286  -53.1778 H         1 UNK         0.0600 
    214 H214       -7.8920  -22.8397  -52.2518 H         1 UNK         0.0600 
    215 H215       -4.1696  -23.3002  -49.5358 H         1 UNK         0.3000 
    216 H216       -2.0063  -23.5660  -49.3899 H         1 UNK         0.0600 
    217 H217       -1.6527  -21.5499  -51.6697 H         1 UNK         0.0600 
    218 H218       -0.4387  -22.0211  -50.4928 H         1 UNK         0.0600 
    219 H219       -1.8512  -21.1216  -49.9730 H         1 UNK         0.0600 
    220 H220       -3.6326  -25.2103  -51.2273 H         1 UNK         0.3000 
    221 H221       -3.5198  -27.0343  -52.4022 H         1 UNK         0.0600 
    222 H222       -0.4695  -26.9911  -52.1077 H         1 UNK         0.0600 
    223 H223       -1.5989  -27.7309  -50.9761 H         1 UNK         0.0600 
    224 H224       -1.4468  -28.3616  -52.6067 H         1 UNK         0.0600 
    225 H225       -1.2241  -24.6148  -53.5250 H         1 UNK         0.3000 
    226 H226       -1.1682  -25.4423  -56.2957 H         1 UNK         0.0600 
    227 H227        0.7516  -24.3407  -55.1893 H         1 UNK         0.0600 
    228 H228        0.1984  -23.3487  -56.5276 H         1 UNK         0.0600 
    229 H229       -0.2152  -22.9029  -54.8757 H         1 UNK         0.0600 
    230 H230       -3.6578  -24.0523  -54.6537 H         1 UNK         0.3000 
    231 H231       -5.5985  -23.1344  -55.1737 H         1 UNK         0.0600 
    232 H232       -5.6569  -24.5757  -57.1918 H         1 UNK         0.0600 
    233 H233       -4.8503  -23.3250  -58.1359 H         1 UNK         0.0600 
    234 H234       -6.4479  -23.0323  -57.4729 H         1 UNK         0.0600 
    235 H235       -4.6137  -21.4397  -53.9888 H         1 UNK         0.3000 
    236 H236       -4.4401  -19.3234  -53.4233 H         1 UNK         0.0600 
    237 H237       -5.1834  -17.4527  -54.8132 H         1 UNK         0.0600 
    238 H238       -5.1988  -18.4488  -56.2585 H         1 UNK         0.0600 
    239 H239       -6.3433  -18.7641  -54.9541 H         1 UNK         0.0600 
    240 H240       -2.2999  -20.7943  -53.8564 H         1 UNK         0.3000 
    241 H241       -0.1081  -20.7395  -53.8645 H         1 UNK         0.0600 
    242 H242       -1.5833  -20.5889  -56.7025 H         1 UNK         0.3800 
    243 H243       -0.1942  -20.4445  -57.7440 H         1 UNK         0.3800 
    244 H244        1.1650  -18.6569  -53.5662 H         1 UNK         0.0800 
    245 H245       -0.1857  -17.6978  -54.0962 H         1 UNK         0.0800 
    246 H246       -0.9374  -16.2272  -52.1483 H         1 UNK         0.0800 
    247 H247       -2.2997  -17.1894  -52.6636 H         1 UNK         0.0800 
@<TRIPOS>BOND
     1    1    2 1    
     2    1  127 1    
     3    1  128 1    
     4    1  129 1    
     5    2    3 2    
     6    2    4 am   BACKBONE|DICT|INTERRES
     7    4    5 1    
     8    4  130 1    
     9    5    6 1    
    10    5   65 1    
    11    5  131 1    
    12    6    7 1    
    13    6  132 1    
    14    6  133 1    
    15    7    8 1    
    16    8    9 1    
    17    8  134 1    
    18    8  135 1    
    19    9   10 ar   
    20    9   14 ar   
    21   10   11 ar   
    22   10  136 1    
    23   11   12 ar   
    24   11  126 1    
    25   12   13 ar   
    26   12  137 1    
    27   13   14 ar   
    28   13   15 1    
    29   14  138 1    
    30   15   16 1    
    31   15  139 1    
    32   15  140 1    
    33   16   17 1    
    34   17   18 1    
    35   17  141 1    
    36   17  142 1    
    37   18   19 1    
    38   18   67 1    
    39   18  143 1    
    40   19   20 am   BACKBONE|DICT|INTERRES
    41   19  144 1    
    42   20   21 2    
    43   20   22 1    
    44   22   23 1    
    45   22   24 1    
    46   22  145 1    
    47   23  146 1    
    48   23  147 1    
    49   23  148 1    
    50   24   25 am   BACKBONE|DICT|INTERRES
    51   24  149 1    
    52   25   26 2    
    53   25   27 1    
    54   27   28 1    
    55   27   29 1    
    56   27  150 1    
    57   28  151 1    
    58   28  152 1    
    59   28  153 1    
    60   29   30 am   BACKBONE|DICT|INTERRES
    61   29  154 1    
    62   30   31 2    
    63   30   32 1    
    64   32   33 1    
    65   32   34 1    
    66   32  155 1    
    67   33  156 1    
    68   33  157 1    
    69   33  158 1    
    70   34   35 am   BACKBONE|DICT|INTERRES
    71   34  159 1    
    72   35   36 2    
    73   35   37 1    
    74   37   38 1    
    75   37   39 1    
    76   37  160 1    
    77   38  161 1    
    78   38  162 1    
    79   38  163 1    
    80   39   40 am   BACKBONE|DICT|INTERRES
    81   39  164 1    
    82   40   41 2    
    83   40   42 1    
    84   42   43 1    
    85   42   44 1    
    86   42  165 1    
    87   43  166 1    
    88   43  167 1    
    89   43  168 1    
    90   44   45 am   BACKBONE|DICT|INTERRES
    91   44  169 1    
    92   45   46 2    
    93   45   47 1    
    94   47   48 1    
    95   47   49 1    
    96   47  170 1    
    97   48  171 1    
    98   48  172 1    
    99   48  173 1    
   100   49   50 am   BACKBONE|DICT|INTERRES
   101   49  174 1    
   102   50   51 2    
   103   50   52 1    
   104   52   53 1    
   105   52   54 1    
   106   52  175 1    
   107   53  176 1    
   108   53  177 1    
   109   53  178 1    
   110   54   55 am   BACKBONE|DICT|INTERRES
   111   54  179 1    
   112   55   56 2    
   113   55   57 1    
   114   57   58 1    
   115   57   59 1    
   116   57  180 1    
   117   58  181 1    
   118   58  182 1    
   119   58  183 1    
   120   59   60 am   BACKBONE|DICT|INTERRES
   121   59  184 1    
   122   60   61 2    
   123   60   62 1    
   124   62   63 1    
   125   62   64 1    
   126   62  185 1    
   127   63  186 1    
   128   63  187 1    
   129   63  188 1    
   130   64   65 am   BACKBONE|DICT|INTERRES
   131   64  189 1    
   132   65   66 2    
   133   67   68 2    
   134   67   69 am   BACKBONE|DICT|INTERRES
   135   69   70 1    
   136   69  190 1    
   137   70   71 1    
   138   70   72 1    
   139   70  191 1    
   140   71  192 1    
   141   71  193 1    
   142   71  194 1    
   143   72   73 2    
   144   72   74 am   BACKBONE|DICT|INTERRES
   145   74   75 1    
   146   74  195 1    
   147   75   76 1    
   148   75   77 1    
   149   75  196 1    
   150   76  197 1    
   151   76  198 1    
   152   76  199 1    
   153   77   78 2    
   154   77   79 am   BACKBONE|DICT|INTERRES
   155   79   80 1    
   156   79  200 1    
   157   80   81 1    
   158   80   82 1    
   159   80  201 1    
   160   81  202 1    
   161   81  203 1    
   162   81  204 1    
   163   82   83 2    
   164   82   84 am   BACKBONE|DICT|INTERRES
   165   84   85 1    
   166   84  205 1    
   167   85   86 1    
   168   85   87 1    
   169   85  206 1    
   170   86  207 1    
   171   86  208 1    
   172   86  209 1    
   173   87   88 2    
   174   87   89 am   BACKBONE|DICT|INTERRES
   175   89   90 1    
   176   89  210 1    
   177   90   91 1    
   178   90   92 1    
   179   90  211 1    
   180   91  212 1    
   181   91  213 1    
   182   91  214 1    
   183   92   93 2    
   184   92   94 am   BACKBONE|DICT|INTERRES
   185   94   95 1    
   186   94  215 1    
   187   95   96 1    
   188   95   97 1    
   189   95  216 1    
   190   96  217 1    
   191   96  218 1    
   192   96  219 1    
   193   97   98 2    
   194   97   99 am   BACKBONE|DICT|INTERRES
   195   99  100 1    
   196   99  220 1    
   197  100  101 1    
   198  100  102 1    
   199  100  221 1    
   200  101  222 1    
   201  101  223 1    
   202  101  224 1    
   203  102  103 2    
   204  102  104 am   BACKBONE|DICT|INTERRES
   205  104  105 1    
   206  104  225 1    
   207  105  106 1    
   208  105  107 1    
   209  105  226 1    
   210  106  227 1    
   211  106  228 1    
   212  106  229 1    
   213  107  108 2    
   214  107  109 am   BACKBONE|DICT|INTERRES
   215  109  110 1    
   216  109  230 1    
   217  110  111 1    
   218  110  112 1    
   219  110  231 1    
   220  111  232 1    
   221  111  233 1    
   222  111  234 1    
   223  112  113 2    
   224  112  114 am   BACKBONE|DICT|INTERRES
   225  114  115 1    
   226  114  235 1    
   227  115  116 1    
   228  115  117 1    
   229  115  236 1    
   230  116  237 1    
   231  116  238 1    
   232  116  239 1    
   233  117  118 2    
   234  117  119 am   BACKBONE|DICT|INTERRES
   235  119  120 1    
   236  119  240 1    
   237  120  121 1    
   238  120  124 1    
   239  120  241 1    
   240  121  122 am   BACKBONE|DICT|INTERRES
   241  121  123 2    
   242  122  242 1    
   243  122  243 1    
   244  124  125 1    
   245  124  244 1    
   246  124  245 1    
   247  125  126 1    
   248  126  246 1    
   249  126  247 1    
@<TRIPOS>SUBSTRUCTURE
     1 UNK         1 GROUP             0       ****    0 ROOT    
