@<TRIPOS>MOLECULE
3R540
247   249    1
SMALL
USER_CHARGES


@<TRIPOS>ATOM
      1 CA          0.2084  -13.5502  -48.7831 C.3       0 UNK        -0.1800 
      2 C           1.5605  -12.8551  -48.7899 C.2       0 UNK         0.5000 
      3 O           1.6755  -11.7315  -48.3015 O.2       0 UNK        -0.5000 
      4 N           2.5837  -13.5216  -49.3383 N.am      1 UNK        -0.5000 
      5 CA          3.9639  -13.0232  -49.4035 C.3       1 UNK         0.1400 
      6 C6          4.7077  -13.5694  -50.6478 C.3       23 UNK        -0.0398 
      7 S7          4.9168  -15.3884  -50.6750 S.3       23 UNK        -0.2404 
      8 C8          3.8156  -15.9102  -52.0277 C.3       23 UNK        -0.0205 
      9 C9          2.6311  -16.7127  -51.5126 C.ar      23 UNK        -0.0193 
     10 C10         1.3544  -16.1464  -51.4522 C.ar      23 UNK        -0.1150 
     11 C11         0.2570  -16.9165  -51.0519 C.ar      23 UNK        -0.0193 
     12 C12         0.4469  -18.2516  -50.6824 C.ar      23 UNK        -0.1150 
     13 C13         1.7209  -18.8244  -50.7311 C.ar      23 UNK        -0.0193 
     14 C14         2.8070  -18.0503  -51.1473 C.ar      23 UNK        -0.1150 
     15 C15         1.9209  -20.2933  -50.3921 C.3       23 UNK        -0.0205 
     16 S16         2.7715  -20.5344  -48.8004 S.3       23 UNK        -0.2404 
     17 C17         1.4900  -20.0603  -47.5927 C.3       23 UNK        -0.0398 
     18 CA          0.6724  -21.2791  -47.0914 C.3       11 UNK         0.1400 
     19 N           0.2996  -21.1606  -45.6789 N.am      11 UNK        -0.5000 
     20 C          -0.2393  -22.1461  -44.9469 C.2       10 UNK         0.5000 
     21 O          -0.4191  -23.2876  -45.3694 O.2       10 UNK        -0.5000 
     22 CA         -0.7072  -21.7867  -43.5239 C.3       10 UNK         0.1400 
     23 CB          0.4548  -21.8674  -42.5235 C.3       10 UNK        -0.1800 
     24 N          -1.3352  -20.4657  -43.4586 N.am      10 UNK        -0.5000 
     25 C          -2.4754  -20.1453  -44.0875 C.2       9 UNK         0.5000 
     26 O          -3.1517  -20.9547  -44.7205 O.2       9 UNK        -0.5000 
     27 CA         -2.9075  -18.6687  -44.0544 C.3       9 UNK         0.1400 
     28 CB         -3.6631  -18.3490  -42.7565 C.3       9 UNK        -0.1800 
     29 N          -1.7824  -17.7468  -44.2165 N.am      9 UNK        -0.5000 
     30 C          -1.0117  -17.6674  -45.3110 C.2       8 UNK         0.5000 
     31 O          -1.1991  -18.3335  -46.3289 O.2       8 UNK        -0.5000 
     32 CA          0.2092  -16.7322  -45.2339 C.3       8 UNK         0.1400 
     33 CB         -0.2013  -15.2720  -45.4702 C.3       8 UNK        -0.1800 
     34 N           0.9207  -16.8529  -43.9598 N.am      8 UNK        -0.5000 
     35 C           1.5422  -17.9675  -43.5477 C.2       7 UNK         0.5000 
     36 O           1.6389  -18.9840  -44.2337 O.2       7 UNK        -0.5000 
     37 CA          2.0925  -17.9721  -42.1105 C.3       7 UNK         0.1400 
     38 CB          3.4910  -17.3427  -42.0350 C.3       7 UNK        -0.1800 
     39 N           1.1938  -17.2889  -41.1821 N.am      7 UNK        -0.5000 
     40 C           0.0102  -17.7766  -40.7853 C.2       6 UNK         0.5000 
     41 O          -0.4254  -18.8747  -41.1297 O.2       6 UNK        -0.5000 
     42 CA         -0.8456  -16.8643  -39.8877 C.3       6 UNK         0.1400 
     43 CB         -0.4331  -17.0123  -38.4157 C.3       6 UNK        -0.1800 
     44 N          -0.7579  -15.4558  -40.2768 N.am      6 UNK        -0.5000 
     45 C          -1.2242  -14.9591  -41.4316 C.2       5 UNK         0.5000 
     46 O          -1.8221  -15.6308  -42.2703 O.2       5 UNK        -0.5000 
     47 CA         -0.9245  -13.4770  -41.7209 C.3       5 UNK         0.1400 
     48 CB         -2.0226  -12.5792  -41.1322 C.3       5 UNK        -0.1800 
     49 N           0.3813  -13.0476  -41.2132 N.am      5 UNK        -0.5000 
     50 C           1.5570  -13.5268  -41.6387 C.2       4 UNK         0.5000 
     51 O           1.6730  -14.3928  -42.5105 O.2       4 UNK        -0.5000 
     52 CA          2.8028  -12.9919  -40.9253 C.3       4 UNK         0.1400 
     53 CB          3.0749  -13.7907  -39.6389 C.3       4 UNK        -0.1800 
     54 N           3.9520  -13.1027  -41.8156 N.am      4 UNK        -0.5000 
     55 C           4.9768  -12.2441  -41.8603 C.2       3 UNK         0.5000 
     56 O           5.0717  -11.2641  -41.1195 O.2       3 UNK        -0.5000 
     57 CA          6.0986  -12.5153  -42.8850 C.3       3 UNK         0.1400 
     58 CB          7.3792  -12.9702  -42.1663 C.3       3 UNK        -0.1800 
     59 N           5.7683  -13.5058  -43.9138 N.am      3 UNK        -0.5000 
     60 C           4.9050  -13.3174  -44.9192 C.2       2 UNK         0.5000 
     61 O           4.2191  -12.3011  -45.0521 O.2       2 UNK        -0.5000 
     62 CA          4.7836  -14.4862  -45.9174 C.3       2 UNK         0.1400 
     63 CB          3.9378  -15.6197  -45.3210 C.3       2 UNK        -0.1800 
     64 N           4.1923  -14.0920  -47.1936 N.am      2 UNK        -0.5000 
     65 C           4.7559  -13.2807  -48.0996 C.2       1 UNK         0.5000 
     66 O           5.8649  -12.7628  -47.9538 O.2       1 UNK        -0.5000 
     67 C          -0.5580  -21.5452  -47.9847 C.2       11 UNK         0.5000 
     68 O          -0.5151  -22.4397  -48.8285 O.2       11 UNK        -0.5000 
     69 N          -1.6470  -20.7980  -47.7545 N.am      12 UNK        -0.5000 
     70 CA         -2.9348  -20.9780  -48.4269 C.3       12 UNK         0.1400 
     71 CB         -3.8893  -19.8454  -48.0242 C.3       12 UNK        -0.1800 
     72 C          -3.5632  -22.3555  -48.1437 C.2       12 UNK         0.5000 
     73 O          -4.0614  -22.9963  -49.0690 O.2       12 UNK        -0.5000 
     74 N          -3.4891  -22.8100  -46.8842 N.am      13 UNK        -0.5000 
     75 CA         -3.9058  -24.1456  -46.4552 C.3       13 UNK         0.1400 
     76 CB         -3.8188  -24.2614  -44.9264 C.3       13 UNK        -0.1800 
     77 C          -3.1010  -25.2608  -47.1463 C.2       13 UNK         0.5000 
     78 O          -3.7023  -26.2043  -47.6624 O.2       13 UNK        -0.5000 
     79 N          -1.7693  -25.1008  -47.1922 N.am      14 UNK        -0.5000 
     80 CA         -0.8350  -25.9932  -47.8837 C.3       14 UNK         0.1400 
     81 CB          0.6100  -25.5744  -47.5745 C.3       14 UNK        -0.1800 
     82 C          -1.0726  -26.0653  -49.4043 C.2       14 UNK         0.5000 
     83 O          -0.9186  -27.1383  -49.9881 O.2       14 UNK        -0.5000 
     84 N          -1.5215  -24.9570  -50.0094 N.am      15 UNK        -0.5000 
     85 CA         -1.9870  -24.8536  -51.3969 C.3       15 UNK         0.1400 
     86 CB         -1.8887  -23.3839  -51.8476 C.3       15 UNK        -0.1800 
     87 C          -3.4050  -25.4421  -51.6029 C.2       15 UNK         0.5000 
     88 O          -4.2124  -24.8642  -52.3335 O.2       15 UNK        -0.5000 
     89 N          -3.6799  -26.5794  -50.9459 N.am      16 UNK        -0.5000 
     90 CA         -4.9156  -27.3675  -50.9524 C.3       16 UNK         0.1400 
     91 CB         -5.0319  -28.1545  -52.2724 C.3       16 UNK        -0.1800 
     92 C          -6.1737  -26.5409  -50.6134 C.2       16 UNK         0.5000 
     93 O          -7.1994  -26.6733  -51.2827 O.2       16 UNK        -0.5000 
     94 N          -6.0545  -25.6967  -49.5777 N.am      17 UNK        -0.5000 
     95 CA         -7.0542  -24.7293  -49.1125 C.3       17 UNK         0.1400 
     96 CB         -8.2859  -25.4470  -48.5215 C.3       17 UNK        -0.1800 
     97 C          -7.4068  -23.6917  -50.1984 C.2       17 UNK         0.5000 
     98 O          -8.5779  -23.5214  -50.5434 O.2       17 UNK        -0.5000 
     99 N          -6.3626  -23.0210  -50.7053 N.am      18 UNK        -0.5000 
    100 CA        -6.3812  -21.9618  -51.7173 C.3       18 UNK         0.1400 
    101 CB        -7.0620  -20.7007  -51.1455 C.3       18 UNK        -0.1800 
    102 C         -6.9860  -22.4237  -53.0609 C.2       18 UNK         0.5000 
    103 O         -7.8177  -21.7231  -53.6420 O.2       18 UNK        -0.5000 
    104 N         -6.5715  -23.6095  -53.5281 N.am      19 UNK        -0.5000 
    105 CA        -7.0357  -24.2287  -54.7697 C.3       19 UNK         0.1400 
    106 CB        -6.6182  -25.7069  -54.7864 C.3       19 UNK        -0.1800 
    107 C         -6.4988  -23.4762  -56.0005 C.2       19 UNK         0.5000 
    108 O         -5.3629  -23.7158  -56.4149 O.2       19 UNK        -0.5000 
    109 N         -7.3196  -22.5573  -56.5322 N.am      20 UNK        -0.5000 
    110 CA        -7.0170  -21.6303  -57.6313 C.3       20 UNK         0.1400 
    111 CB        -6.8684  -22.3921  -58.9652 C.3       20 UNK        -0.1800 
    112 C         -5.8114  -20.7180  -57.3139 C.2       20 UNK         0.5000 
    113 O         -4.9747  -20.4599  -58.1817 O.2       20 UNK        -0.5000 
    114 N         -5.7389  -20.2683  -56.0571 N.am      21 UNK        -0.5000 
    115 CA        -4.6462  -19.4881  -55.4912 C.3       21 UNK         0.1400 
    116 CB        -3.5802  -20.4531  -54.9354 C.3       21 UNK        -0.1800 
    117 C         -5.1931  -18.5676  -54.3909 C.2       21 UNK         0.5000 
    118 O         -6.3742  -18.6457  -54.0445 O.2       21 UNK        -0.5000 
    119 N         -4.3161  -17.7146  -53.8574 N.am      22 UNK        -0.5000 
    120 CA        -4.5436  -16.9183  -52.6444 C.3       22 UNK         0.1400 
    121 C         -4.6028  -17.7839  -51.3520 C.2       22 UNK         0.5000 
    122 N         -5.2635  -17.2968  -50.3101 N.am      22 UNK        -0.7600 
    123 O         -4.0365  -18.8716  -51.2722 O.2       22 UNK        -0.5000 
    124 C124       -3.5083  -15.7674  -52.5217 C.3       23 UNK        -0.0398 
    125 S125       -1.7760  -16.2912  -52.7786 S.3       23 UNK        -0.2404 
    126 C126       -1.1423  -16.3250  -51.0761 C.3       23 UNK        -0.0205 
    127 H127       -0.3501  -13.2812  -47.8867 H         1 UNK         0.0600 
    128 H128        0.3180  -14.6347  -48.8017 H         1 UNK         0.0600 
    129 H129       -0.3739  -13.2409  -49.6507 H         1 UNK         0.0600 
    130 H130        2.4385  -14.4441  -49.7250 H         1 UNK         0.3000 
    131 H131        3.9271  -11.9376  -49.5179 H         1 UNK         0.0600 
    132 H132        4.1923  -13.2372  -51.5489 H         1 UNK         0.0800 
    133 H133        5.7008  -13.1213  -50.7128 H         1 UNK         0.0800 
    134 H134        4.3896  -16.5294  -52.7187 H         1 UNK         0.0800 
    135 H135        3.4736  -15.0569  -52.6139 H         1 UNK         0.0800 
    136 H136        1.2033  -15.1206  -51.7585 H         1 UNK         0.1150 
    137 H137       -0.4023  -18.8520  -50.3858 H         1 UNK         0.1150 
    138 H138        3.7909  -18.4953  -51.2017 H         1 UNK         0.1150 
    139 H139        0.9697  -20.8257  -50.3930 H         1 UNK         0.0800 
    140 H140        2.5202  -20.7569  -51.1770 H         1 UNK         0.0800 
    141 H141        0.8552  -19.2666  -47.9898 H         1 UNK         0.0800 
    142 H142        2.0278  -19.6054  -46.7607 H         1 UNK         0.0800 
    143 H143        1.3077  -22.1656  -47.1519 H         1 UNK         0.0600 
    144 H144        0.4697  -20.2641  -45.2346 H         1 UNK         0.3000 
    145 H145       -1.4559  -22.5234  -43.2259 H         1 UNK         0.0600 
    146 H146        0.1154  -21.6642  -41.5077 H         1 UNK         0.0600 
    147 H147        0.9000  -22.8631  -42.5249 H         1 UNK         0.0600 
    148 H148        1.2451  -21.1562  -42.7607 H         1 UNK         0.0600 
    149 H149       -0.8674  -19.7617  -42.8975 H         1 UNK         0.3000 
    150 H150       -3.5901  -18.5053  -44.8906 H         1 UNK         0.0600 
    151 H151       -4.5209  -19.0109  -42.6313 H         1 UNK         0.0600 
    152 H152       -4.0397  -17.3261  -42.7619 H         1 UNK         0.0600 
    153 H153       -3.0269  -18.4665  -41.8795 H         1 UNK         0.0600 
    154 H154       -1.6007  -17.1134  -43.4425 H         1 UNK         0.3000 
    155 H155        0.8980  -17.0216  -46.0305 H         1 UNK         0.0600 
    156 H156       -0.8643  -14.9068  -44.6870 H         1 UNK         0.0600 
    157 H157       -0.7320  -15.1706  -46.4170 H         1 UNK         0.0600 
    158 H158        0.6667  -14.6139  -45.5077 H         1 UNK         0.0600 
    159 H159        0.9338  -16.0358  -43.3579 H         1 UNK         0.3000 
    160 H160        2.1804  -19.0141  -41.7957 H         1 UNK         0.0600 
    161 H161        3.9092  -17.4369  -41.0328 H         1 UNK         0.0600 
    162 H162        3.4760  -16.2839  -42.2894 H         1 UNK         0.0600 
    163 H163        4.1786  -17.8394  -42.7206 H         1 UNK         0.0600 
    164 H164        1.4558  -16.3577  -40.8970 H         1 UNK         0.3000 
    165 H165       -1.8862  -17.1807  -39.9851 H         1 UNK         0.0600 
    166 H166       -1.0817  -16.4267  -37.7639 H         1 UNK         0.0600 
    167 H167       -0.5041  -18.0522  -38.0938 H         1 UNK         0.0600 
    168 H168        0.5943  -16.6861  -38.2488 H         1 UNK         0.0600 
    169 H169       -0.2845  -14.8326  -39.6399 H         1 UNK         0.3000 
    170 H170       -0.9216  -13.3451  -42.8047 H         1 UNK         0.0600 
    171 H171       -3.0048  -12.8654  -41.5108 H         1 UNK         0.0600 
    172 H172       -2.0582  -12.6450  -40.0440 H         1 UNK         0.0600 
    173 H173       -1.8644  -11.5346  -41.4011 H         1 UNK         0.0600 
    174 H174        0.3712  -12.3446  -40.4880 H         1 UNK         0.3000 
    175 H175        2.6254  -11.9439  -40.6742 H         1 UNK         0.0600 
    176 H176        3.2597  -14.8445  -39.8510 H         1 UNK         0.0600 
    177 H177        3.9451  -13.4002  -39.1110 H         1 UNK         0.0600 
    178 H178        2.2292  -13.7349  -38.9525 H         1 UNK         0.0600 
    179 H179        3.8934  -13.8449  -42.4993 H         1 UNK         0.3000 
    180 H180        6.3092  -11.5679  -43.3858 H         1 UNK         0.0600 
    181 H181        7.2358  -13.9230  -41.6551 H         1 UNK         0.0600 
    182 H182        7.6902  -12.2403  -41.4177 H         1 UNK         0.0600 
    183 H183        8.2067  -13.0845  -42.8668 H         1 UNK         0.0600 
    184 H184        6.2775  -14.3766  -43.8664 H         1 UNK         0.3000 
    185 H185        5.7855  -14.8691  -46.1226 H         1 UNK         0.0600 
    186 H186        4.4351  -16.0562  -44.4561 H         1 UNK         0.0600 
    187 H187        2.9627  -15.2584  -44.9952 H         1 UNK         0.0600 
    188 H188        3.7784  -16.4252  -46.0383 H         1 UNK         0.0600 
    189 H189        3.2676  -14.4420  -47.3898 H         1 UNK         0.3000 
    190 H190       -1.5865  -20.0432  -47.0758 H         1 UNK         0.3000 
    191 H191       -2.7605  -20.9061  -49.5026 H         1 UNK         0.0600 
    192 H192       -4.1065  -19.8559  -46.9567 H         1 UNK         0.0600 
    193 H193       -4.8383  -19.9348  -48.5530 H         1 UNK         0.0600 
    194 H194       -3.4665  -18.8713  -48.2712 H         1 UNK         0.0600 
    195 H195       -3.1262  -22.1918  -46.1633 H         1 UNK         0.3000 
    196 H196       -4.9523  -24.2700  -46.7330 H         1 UNK         0.0600 
    197 H197       -4.1729  -25.2364  -44.5897 H         1 UNK         0.0600 
    198 H198       -4.4344  -23.5055  -44.4384 H         1 UNK         0.0600 
    199 H199       -2.7976  -24.1431  -44.5668 H         1 UNK         0.0600 
    200 H200       -1.3570  -24.3097  -46.7046 H         1 UNK         0.3000 
    201 H201       -0.9877  -26.9970  -47.4824 H         1 UNK         0.0600 
    202 H202        0.8060  -25.5964  -46.5024 H         1 UNK         0.0600 
    203 H203        0.8247  -24.5680  -47.9329 H         1 UNK         0.0600 
    204 H204        1.3223  -26.2502  -48.0492 H         1 UNK         0.0600 
    205 H205       -1.5778  -24.1073  -49.4582 H         1 UNK         0.3000 
    206 H206       -1.3123  -25.4357  -52.0274 H         1 UNK         0.0600 
    207 H207       -0.8801  -22.9944  -51.7079 H         1 UNK         0.0600 
    208 H208       -2.1327  -23.2789  -52.9055 H         1 UNK         0.0600 
    209 H209       -2.5725  -22.7448  -51.2893 H         1 UNK         0.0600 
    210 H210       -2.9302  -26.9598  -50.3802 H         1 UNK         0.3000 
    211 H211       -4.8157  -28.0961  -50.1467 H         1 UNK         0.0600 
    212 H212       -5.0848  -27.4904  -53.1330 H         1 UNK         0.0600 
    213 H213       -5.9230  -28.7832  -52.2829 H         1 UNK         0.0600 
    214 H214       -4.1730  -28.8105  -52.4131 H         1 UNK         0.0600 
    215 H215       -5.1631  -25.6783  -49.0940 H         1 UNK         0.3000 
    216 H216       -6.5910  -24.1668  -48.3029 H         1 UNK         0.0600 
    217 H217       -8.9779  -24.7293  -48.0796 H         1 UNK         0.0600 
    218 H218       -7.9953  -26.1437  -47.7353 H         1 UNK         0.0600 
    219 H219       -8.8367  -26.0058  -49.2784 H         1 UNK         0.0600 
    220 H220       -5.4446  -23.2268  -50.3170 H         1 UNK         0.3000 
    221 H221       -5.3385  -21.7109  -51.9185 H         1 UNK         0.0600 
    222 H222       -8.1229  -20.8615  -50.9533 H         1 UNK         0.0600 
    223 H223       -6.5940  -20.3903  -50.2120 H         1 UNK         0.0600 
    224 H224       -6.9810  -19.8634  -51.8368 H         1 UNK         0.0600 
    225 H225       -5.8432  -24.1068  -53.0201 H         1 UNK         0.3000 
    226 H226       -8.1271  -24.1943  -54.7862 H         1 UNK         0.0600 
    227 H227       -6.9407  -26.1941  -55.7072 H         1 UNK         0.0600 
    228 H228       -5.5356  -25.8179  -54.7169 H         1 UNK         0.0600 
    229 H229       -7.0683  -26.2510  -53.9567 H         1 UNK         0.0600 
    230 H230       -8.2054  -22.4021  -56.0693 H         1 UNK         0.3000 
    231 H231       -7.8805  -20.9702  -57.7242 H         1 UNK         0.0600 
    232 H232       -7.7403  -23.0157  -59.1622 H         1 UNK         0.0600 
    233 H233       -5.9879  -23.0353  -58.9700 H         1 UNK         0.0600 
    234 H234       -6.7708  -21.6992  -59.8017 H         1 UNK         0.0600 
    235 H235       -6.4962  -20.4628  -55.4123 H         1 UNK         0.3000 
    236 H236       -4.2032  -18.8562  -56.2639 H         1 UNK         0.0600 
    237 H237       -3.2014  -21.1147  -55.7149 H         1 UNK         0.0600 
    238 H238       -2.7248  -19.9131  -54.5282 H         1 UNK         0.0600 
    239 H239       -3.9837  -21.0782  -54.1376 H         1 UNK         0.0600 
    240 H240       -3.3590  -17.7279  -54.1794 H         1 UNK         0.3000 
    241 H241       -5.5275  -16.4566  -52.7503 H         1 UNK         0.0600 
    242 H242       -5.3034  -17.8398  -49.4639 H         1 UNK         0.3800 
    243 H243       -5.7398  -16.4092  -50.3498 H         1 UNK         0.3800 
    244 H244       -3.7280  -15.0167  -53.2818 H         1 UNK         0.0800 
    245 H245       -3.6049  -15.2452  -51.5681 H         1 UNK         0.0800 
    246 H246       -1.1327  -15.3125  -50.6743 H         1 UNK         0.0800 
    247 H247       -1.8131  -16.9086  -50.4433 H         1 UNK         0.0800 
@<TRIPOS>BOND
     1    1    2 1    
     2    1  127 1    
     3    1  128 1    
     4    1  129 1    
     5    2    3 2    
     6    2    4 am   BACKBONE|DICT|INTERRES
     7    4    5 1    
     8    4  130 1    
     9    5    6 1    
    10    5   65 1    
    11    5  131 1    
    12    6    7 1    
    13    6  132 1    
    14    6  133 1    
    15    7    8 1    
    16    8    9 1    
    17    8  134 1    
    18    8  135 1    
    19    9   10 ar   
    20    9   14 ar   
    21   10   11 ar   
    22   10  136 1    
    23   11   12 ar   
    24   11  126 1    
    25   12   13 ar   
    26   12  137 1    
    27   13   14 ar   
    28   13   15 1    
    29   14  138 1    
    30   15   16 1    
    31   15  139 1    
    32   15  140 1    
    33   16   17 1    
    34   17   18 1    
    35   17  141 1    
    36   17  142 1    
    37   18   19 1    
    38   18   67 1    
    39   18  143 1    
    40   19   20 am   BACKBONE|DICT|INTERRES
    41   19  144 1    
    42   20   21 2    
    43   20   22 1    
    44   22   23 1    
    45   22   24 1    
    46   22  145 1    
    47   23  146 1    
    48   23  147 1    
    49   23  148 1    
    50   24   25 am   BACKBONE|DICT|INTERRES
    51   24  149 1    
    52   25   26 2    
    53   25   27 1    
    54   27   28 1    
    55   27   29 1    
    56   27  150 1    
    57   28  151 1    
    58   28  152 1    
    59   28  153 1    
    60   29   30 am   BACKBONE|DICT|INTERRES
    61   29  154 1    
    62   30   31 2    
    63   30   32 1    
    64   32   33 1    
    65   32   34 1    
    66   32  155 1    
    67   33  156 1    
    68   33  157 1    
    69   33  158 1    
    70   34   35 am   BACKBONE|DICT|INTERRES
    71   34  159 1    
    72   35   36 2    
    73   35   37 1    
    74   37   38 1    
    75   37   39 1    
    76   37  160 1    
    77   38  161 1    
    78   38  162 1    
    79   38  163 1    
    80   39   40 am   BACKBONE|DICT|INTERRES
    81   39  164 1    
    82   40   41 2    
    83   40   42 1    
    84   42   43 1    
    85   42   44 1    
    86   42  165 1    
    87   43  166 1    
    88   43  167 1    
    89   43  168 1    
    90   44   45 am   BACKBONE|DICT|INTERRES
    91   44  169 1    
    92   45   46 2    
    93   45   47 1    
    94   47   48 1    
    95   47   49 1    
    96   47  170 1    
    97   48  171 1    
    98   48  172 1    
    99   48  173 1    
   100   49   50 am   BACKBONE|DICT|INTERRES
   101   49  174 1    
   102   50   51 2    
   103   50   52 1    
   104   52   53 1    
   105   52   54 1    
   106   52  175 1    
   107   53  176 1    
   108   53  177 1    
   109   53  178 1    
   110   54   55 am   BACKBONE|DICT|INTERRES
   111   54  179 1    
   112   55   56 2    
   113   55   57 1    
   114   57   58 1    
   115   57   59 1    
   116   57  180 1    
   117   58  181 1    
   118   58  182 1    
   119   58  183 1    
   120   59   60 am   BACKBONE|DICT|INTERRES
   121   59  184 1    
   122   60   61 2    
   123   60   62 1    
   124   62   63 1    
   125   62   64 1    
   126   62  185 1    
   127   63  186 1    
   128   63  187 1    
   129   63  188 1    
   130   64   65 am   BACKBONE|DICT|INTERRES
   131   64  189 1    
   132   65   66 2    
   133   67   68 2    
   134   67   69 am   BACKBONE|DICT|INTERRES
   135   69   70 1    
   136   69  190 1    
   137   70   71 1    
   138   70   72 1    
   139   70  191 1    
   140   71  192 1    
   141   71  193 1    
   142   71  194 1    
   143   72   73 2    
   144   72   74 am   BACKBONE|DICT|INTERRES
   145   74   75 1    
   146   74  195 1    
   147   75   76 1    
   148   75   77 1    
   149   75  196 1    
   150   76  197 1    
   151   76  198 1    
   152   76  199 1    
   153   77   78 2    
   154   77   79 am   BACKBONE|DICT|INTERRES
   155   79   80 1    
   156   79  200 1    
   157   80   81 1    
   158   80   82 1    
   159   80  201 1    
   160   81  202 1    
   161   81  203 1    
   162   81  204 1    
   163   82   83 2    
   164   82   84 am   BACKBONE|DICT|INTERRES
   165   84   85 1    
   166   84  205 1    
   167   85   86 1    
   168   85   87 1    
   169   85  206 1    
   170   86  207 1    
   171   86  208 1    
   172   86  209 1    
   173   87   88 2    
   174   87   89 am   BACKBONE|DICT|INTERRES
   175   89   90 1    
   176   89  210 1    
   177   90   91 1    
   178   90   92 1    
   179   90  211 1    
   180   91  212 1    
   181   91  213 1    
   182   91  214 1    
   183   92   93 2    
   184   92   94 am   BACKBONE|DICT|INTERRES
   185   94   95 1    
   186   94  215 1    
   187   95   96 1    
   188   95   97 1    
   189   95  216 1    
   190   96  217 1    
   191   96  218 1    
   192   96  219 1    
   193   97   98 2    
   194   97   99 am   BACKBONE|DICT|INTERRES
   195   99  100 1    
   196   99  220 1    
   197  100  101 1    
   198  100  102 1    
   199  100  221 1    
   200  101  222 1    
   201  101  223 1    
   202  101  224 1    
   203  102  103 2    
   204  102  104 am   BACKBONE|DICT|INTERRES
   205  104  105 1    
   206  104  225 1    
   207  105  106 1    
   208  105  107 1    
   209  105  226 1    
   210  106  227 1    
   211  106  228 1    
   212  106  229 1    
   213  107  108 2    
   214  107  109 am   BACKBONE|DICT|INTERRES
   215  109  110 1    
   216  109  230 1    
   217  110  111 1    
   218  110  112 1    
   219  110  231 1    
   220  111  232 1    
   221  111  233 1    
   222  111  234 1    
   223  112  113 2    
   224  112  114 am   BACKBONE|DICT|INTERRES
   225  114  115 1    
   226  114  235 1    
   227  115  116 1    
   228  115  117 1    
   229  115  236 1    
   230  116  237 1    
   231  116  238 1    
   232  116  239 1    
   233  117  118 2    
   234  117  119 am   BACKBONE|DICT|INTERRES
   235  119  120 1    
   236  119  240 1    
   237  120  121 1    
   238  120  124 1    
   239  120  241 1    
   240  121  122 am   BACKBONE|DICT|INTERRES
   241  121  123 2    
   242  122  242 1    
   243  122  243 1    
   244  124  125 1    
   245  124  244 1    
   246  124  245 1    
   247  125  126 1    
   248  126  246 1    
   249  126  247 1    
@<TRIPOS>SUBSTRUCTURE
     1 UNK         1 GROUP             0       ****    0 ROOT    
