@<TRIPOS>MOLECULE
3R540
247   249    1
SMALL
USER_CHARGES


@<TRIPOS>ATOM
      1 CA         -0.0154  -11.9827  -47.6441 C.3       0 UNK        -0.1800 
      2 C           1.4587  -11.8139  -47.9837 C.2       0 UNK         0.5000 
      3 O           2.1279  -10.9658  -47.3951 O.2       0 UNK        -0.5000 
      4 N           1.9645  -12.6153  -48.9314 N.am      1 UNK        -0.5000 
      5 CA          3.3689  -12.6148  -49.3694 C.3       1 UNK         0.1400 
      6 C6          3.5167  -13.1825  -50.8090 C.3       23 UNK        -0.0398 
      7 S7          3.5822  -15.0041  -50.9835 S.3       23 UNK        -0.2404 
      8 C8          1.8384  -15.4760  -50.7945 C.3       23 UNK        -0.0205 
      9 C9          1.6410  -16.9458  -51.1240 C.ar      23 UNK        -0.0193 
     10 C10         1.1456  -17.3246  -52.3730 C.ar      23 UNK        -0.1150 
     11 C11         0.9444  -18.6728  -52.6811 C.ar      23 UNK        -0.0193 
     12 C12         1.2665  -19.6505  -51.7327 C.ar      23 UNK        -0.1150 
     13 C13         1.7932  -19.2842  -50.4885 C.ar      23 UNK        -0.0193 
     14 C14         1.9663  -17.9298  -50.1869 C.ar      23 UNK        -0.1150 
     15 C15         2.2270  -20.3432  -49.4842 C.3       23 UNK        -0.0205 
     16 S16         1.1919  -20.3435  -47.9876 S.3       23 UNK        -0.2404 
     17 C17        -0.3383  -21.1182  -48.5991 C.3       23 UNK        -0.0398 
     18 CA         -0.9135  -22.1467  -47.5975 C.3       11 UNK         0.1400 
     19 N          -1.2847  -21.5506  -46.3095 N.am      11 UNK        -0.5000 
     20 C          -1.7213  -22.2417  -45.2455 C.2       10 UNK         0.5000 
     21 O          -1.7835  -23.4710  -45.2215 O.2       10 UNK        -0.5000 
     22 CA         -2.2408  -21.4492  -44.0297 C.3       10 UNK         0.1400 
     23 CB         -1.2136  -21.4714  -42.8887 C.3       10 UNK        -0.1800 
     24 N          -2.6246  -20.0660  -44.3266 N.am      10 UNK        -0.5000 
     25 C          -3.5958  -19.7000  -45.1767 C.2       9 UNK         0.5000 
     26 O          -4.2785  -20.5017  -45.8151 O.2       9 UNK        -0.5000 
     27 CA         -3.7977  -18.1888  -45.3931 C.3       9 UNK         0.1400 
     28 CB         -4.6785  -17.5897  -44.2873 C.3       9 UNK        -0.1800 
     29 N          -2.5305  -17.4587  -45.4702 N.am      9 UNK        -0.5000 
     30 C          -1.6213  -17.6226  -46.4425 C.2       8 UNK         0.5000 
     31 O          -1.7969  -18.3568  -47.4126 O.2       8 UNK        -0.5000 
     32 CA         -0.2786  -16.8829  -46.2841 C.3       8 UNK         0.1400 
     33 CB         -0.3748  -15.4395  -46.7993 C.3       8 UNK        -0.1800 
     34 N           0.1950  -16.8816  -44.8990 N.am      8 UNK        -0.5000 
     35 C           0.6032  -17.9782  -44.2435 C.2       7 UNK         0.5000 
     36 O           0.6896  -19.0914  -44.7580 O.2       7 UNK        -0.5000 
     37 CA          0.9198  -17.8155  -42.7466 C.3       7 UNK         0.1400 
     38 CB          2.3663  -17.3436  -42.5285 C.3       7 UNK        -0.1800 
     39 N          -0.0109  -16.8980  -42.0881 N.am      7 UNK        -0.5000 
     40 C          -1.3000  -17.1802  -41.8490 C.2       6 UNK         0.5000 
     41 O          -1.8242  -18.2574  -42.1282 O.2       6 UNK        -0.5000 
     42 CA         -2.1571  -16.0589  -41.2326 C.3       6 UNK         0.1400 
     43 CB         -2.0249  -16.0582  -39.7026 C.3       6 UNK        -0.1800 
     44 N          -1.8087  -14.7349  -41.7484 N.am      6 UNK        -0.5000 
     45 C          -1.9817  -14.3414  -43.0186 C.2       5 UNK         0.5000 
     46 O          -2.5106  -15.0381  -43.8829 O.2       5 UNK        -0.5000 
     47 CA         -1.4048  -12.9641  -43.3984 C.3       5 UNK         0.1400 
     48 CB         -2.4376  -11.8550  -43.1526 C.3       5 UNK        -0.1800 
     49 N          -0.1682  -12.6525  -42.6744 N.am      5 UNK        -0.5000 
     50 C           0.9648  -13.3560  -42.7912 C.2       4 UNK         0.5000 
     51 O           1.0987  -14.3110  -43.5628 O.2       4 UNK        -0.5000 
     52 CA          2.1061  -12.9794  -41.8388 C.3       4 UNK         0.1400 
     53 CB          1.8511  -13.5480  -40.4307 C.3       4 UNK        -0.1800 
     54 N           3.3451  -13.5264  -42.3722 N.am      4 UNK        -0.5000 
     55 C           4.5785  -13.0745  -42.1251 C.2       3 UNK         0.5000 
     56 O           4.8249  -12.1613  -41.3358 O.2       3 UNK        -0.5000 
     57 CA          5.7393  -13.7469  -42.8907 C.3       3 UNK         0.1400 
     58 CB          6.4722  -14.7423  -41.9776 C.3       3 UNK        -0.1800 
     59 N           5.3394  -14.4440  -44.1194 N.am      3 UNK        -0.5000 
     60 C           4.7940  -13.8630  -45.1970 C.2       2 UNK         0.5000 
     61 O           4.5641  -12.6535  -45.2664 O.2       2 UNK        -0.5000 
     62 CA          4.4356  -14.8047  -46.3677 C.3       2 UNK         0.1400 
     63 CB          3.5294  -15.9616  -45.9082 C.3       2 UNK        -0.1800 
     64 N           3.7505  -14.1032  -47.4500 N.am      2 UNK        -0.5000 
     65 C           4.3193  -13.2890  -48.3495 C.2       1 UNK         0.5000 
     66 O           5.5309  -13.0712  -48.4089 O.2       1 UNK        -0.5000 
     67 C          -2.0837  -22.9091  -48.2504 C.2       11 UNK         0.5000 
     68 O          -1.8361  -23.9064  -48.9271 O.2       11 UNK        -0.5000 
     69 N          -3.3282  -22.4556  -48.0353 N.am      12 UNK        -0.5000 
     70 CA         -4.5314  -23.1295  -48.5254 C.3       12 UNK         0.1400 
     71 CB         -5.7321  -22.1803  -48.4195 C.3       12 UNK        -0.1800 
     72 C          -4.8116  -24.4431  -47.7752 C.2       12 UNK         0.5000 
     73 O          -5.2205  -25.4210  -48.3999 O.2       12 UNK        -0.5000 
     74 N          -4.5569  -24.4499  -46.4591 N.am      13 UNK        -0.5000 
     75 CA         -4.6887  -25.6239  -45.5939 C.3       13 UNK         0.1400 
     76 CB         -4.6967  -25.1781  -44.1234 C.3       13 UNK        -0.1800 
     77 C          -3.5776  -26.6583  -45.8499 C.2       13 UNK         0.5000 
     78 O          -3.8490  -27.8592  -45.8510 O.2       13 UNK        -0.5000 
     79 N          -2.3546  -26.1689  -46.0955 N.am      14 UNK        -0.5000 
     80 CA         -1.1831  -26.9692  -46.4582 C.3       14 UNK         0.1400 
     81 CB          0.0750  -26.1093  -46.2586 C.3       14 UNK        -0.1800 
     82 C          -1.2276  -27.5130  -47.9015 C.2       14 UNK         0.5000 
     83 O          -0.4429  -28.4036  -48.2289 O.2       14 UNK        -0.5000 
     84 N          -2.1139  -26.9496  -48.7368 N.am      15 UNK        -0.5000 
     85 CA         -2.2741  -27.1893  -50.1761 C.3       15 UNK         0.1400 
     86 CB         -2.6859  -28.6481  -50.4623 C.3       15 UNK        -0.1800 
     87 C          -1.0574  -26.7258  -51.0081 C.2       15 UNK         0.5000 
     88 O          -0.8257  -27.2337  -52.1066 O.2       15 UNK        -0.5000 
     89 N          -0.3166  -25.7448  -50.4762 N.am      16 UNK        -0.5000 
     90 CA          0.7380  -25.0096  -51.1721 C.3       16 UNK         0.1400 
     91 CB          1.6862  -24.3915  -50.1334 C.3       16 UNK        -0.1800 
     92 C           0.1421  -23.9231  -52.0869 C.2       16 UNK         0.5000 
     93 O           0.7208  -23.6193  -53.1300 O.2       16 UNK        -0.5000 
     94 N          -1.0183  -23.3879  -51.6887 N.am      17 UNK        -0.5000 
     95 CA         -1.8936  -22.5610  -52.5080 C.3       17 UNK         0.1400 
     96 CB         -2.4070  -21.3853  -51.6664 C.3       17 UNK        -0.1800 
     97 C          -3.0797  -23.4152  -52.9750 C.2       17 UNK         0.5000 
     98 O          -3.4912  -24.3390  -52.2668 O.2       17 UNK        -0.5000 
     99 N          -3.6468  -23.0620  -54.1332 N.am      18 UNK        -0.5000 
    100 CA        -4.7873  -23.7340  -54.7600 C.3       18 UNK         0.1400 
    101 CB        -4.7685  -23.4234  -56.2677 C.3       18 UNK        -0.1800 
    102 C         -6.1290  -23.3587  -54.0931 C.2       18 UNK         0.5000 
    103 O         -7.0130  -22.8077  -54.7504 O.2       18 UNK        -0.5000 
    104 N         -6.2381  -23.6284  -52.7843 N.am      19 UNK        -0.5000 
    105 CA        -7.3887  -23.4593  -51.8799 C.3       19 UNK         0.1400 
    106 CB        -8.5745  -24.3287  -52.3382 C.3       19 UNK        -0.1800 
    107 C         -7.8468  -22.0056  -51.6239 C.2       19 UNK         0.5000 
    108 O         -8.3922  -21.7281  -50.5565 O.2       19 UNK        -0.5000 
    109 N         -7.6146  -21.1012  -52.5802 N.am      20 UNK        -0.5000 
    110 CA        -7.9916  -19.6869  -52.5307 C.3       20 UNK         0.1400 
    111 CB        -8.0893  -19.1686  -53.9751 C.3       20 UNK        -0.1800 
    112 C         -7.0228  -18.8091  -51.7109 C.2       20 UNK         0.5000 
    113 O         -7.3182  -17.6320  -51.5056 O.2       20 UNK        -0.5000 
    114 N         -5.8799  -19.3791  -51.2951 N.am      21 UNK        -0.5000 
    115 CA        -4.7448  -18.7213  -50.6277 C.3       21 UNK         0.1400 
    116 CB        -5.1555  -18.0813  -49.2846 C.3       21 UNK        -0.1800 
    117 C         -3.9716  -17.7526  -51.5529 C.2       21 UNK         0.5000 
    118 O         -3.2738  -16.8635  -51.0630 O.2       21 UNK        -0.5000 
    119 N         -4.0871  -17.9716  -52.8720 N.am      22 UNK        -0.5000 
    120 CA        -3.4309  -17.2192  -53.9563 C.3       22 UNK         0.1400 
    121 C         -3.8786  -15.7246  -54.0457 C.2       22 UNK         0.5000 
    122 N         -3.1762  -14.8824  -54.7935 N.am      22 UNK        -0.7600 
    123 O         -4.8986  -15.3199  -53.4922 O.2       22 UNK        -0.5000 
    124 C124       -1.8860  -17.4109  -53.9564 C.3       23 UNK        -0.0398 
    125 S125       -1.3983  -19.1644  -54.1097 S.3       23 UNK        -0.2404 
    126 C126        0.4189  -19.0670  -54.0548 C.3       23 UNK        -0.0205 
    127 H127       -0.1257  -12.2824  -46.6022 H         1 UNK         0.0600 
    128 H128       -0.4937  -12.7368  -48.2693 H         1 UNK         0.0600 
    129 H129       -0.5439  -11.0400  -47.7859 H         1 UNK         0.0600 
    130 H130        1.3562  -13.2673  -49.4027 H         1 UNK         0.3000 
    131 H131        3.6812  -11.5692  -49.4190 H         1 UNK         0.0600 
    132 H132        4.4468  -12.8028  -51.2349 H         1 UNK         0.0800 
    133 H133        2.7313  -12.7891  -51.4560 H         1 UNK         0.0800 
    134 H134        1.5161  -15.2923  -49.7692 H         1 UNK         0.0800 
    135 H135        1.2154  -14.8546  -51.4400 H         1 UNK         0.0800 
    136 H136        0.9146  -16.5667  -53.1082 H         1 UNK         0.1150 
    137 H137        1.1283  -20.6954  -51.9744 H         1 UNK         0.1150 
    138 H138        2.3711  -17.6424  -49.2265 H         1 UNK         0.1150 
    139 H139        2.2289  -21.3363  -49.9348 H         1 UNK         0.0800 
    140 H140        3.2586  -20.1440  -49.1908 H         1 UNK         0.0800 
    141 H141       -1.0648  -20.3371  -48.8239 H         1 UNK         0.0800 
    142 H142       -0.1199  -21.6027  -49.5516 H         1 UNK         0.0800 
    143 H143       -0.1348  -22.8834  -47.3922 H         1 UNK         0.0600 
    144 H144       -1.2362  -20.5419  -46.2505 H         1 UNK         0.3000 
    145 H145       -3.1382  -21.9631  -43.6797 H         1 UNK         0.0600 
    146 H146       -1.6093  -20.9968  -41.9909 H         1 UNK         0.0600 
    147 H147       -0.9483  -22.4954  -42.6224 H         1 UNK         0.0600 
    148 H148       -0.2935  -20.9574  -43.1641 H         1 UNK         0.0600 
    149 H149       -2.1432  -19.3437  -43.8008 H         1 UNK         0.3000 
    150 H150       -4.3181  -18.0579  -46.3430 H         1 UNK         0.0600 
    151 H151       -5.6426  -18.0975  -44.2394 H         1 UNK         0.0600 
    152 H152       -4.8759  -16.5333  -44.4699 H         1 UNK         0.0600 
    153 H153       -4.2122  -17.6783  -43.3064 H         1 UNK         0.0600 
    154 H154       -2.3534  -16.7712  -44.7439 H         1 UNK         0.3000 
    155 H155        0.4619  -17.4075  -46.8920 H         1 UNK         0.0600 
    156 H156       -1.1080  -14.8590  -46.2394 H         1 UNK         0.0600 
    157 H157       -0.6735  -15.4218  -47.8482 H         1 UNK         0.0600 
    158 H158        0.5845  -14.9285  -46.7238 H         1 UNK         0.0600 
    159 H159        0.1965  -15.9937  -44.4099 H         1 UNK         0.3000 
    160 H160        0.8158  -18.7964  -42.2776 H         1 UNK         0.0600 
    161 H161        2.5538  -16.3732  -42.9842 H         1 UNK         0.0600 
    162 H162        3.0732  -18.0495  -42.9661 H         1 UNK         0.0600 
    163 H163        2.6005  -17.2656  -41.4668 H         1 UNK         0.0600 
    164 H164        0.3322  -15.9724  -41.8821 H         1 UNK         0.3000 
    165 H165       -3.2004  -16.2580  -41.4862 H         1 UNK         0.0600 
    166 H166       -1.0049  -15.8376  -39.3849 H         1 UNK         0.0600 
    167 H167       -2.6853  -15.3182  -39.2502 H         1 UNK         0.0600 
    168 H168       -2.2953  -17.0301  -39.2875 H         1 UNK         0.0600 
    169 H169       -1.3726  -14.0944  -41.1023 H         1 UNK         0.3000 
    170 H170       -1.1747  -12.9867  -44.4653 H         1 UNK         0.0600 
    171 H171       -3.3615  -12.0553  -43.6971 H         1 UNK         0.0600 
    172 H172       -2.6917  -11.7663  -42.0957 H         1 UNK         0.0600 
    173 H173       -2.0656  -10.8880  -43.4917 H         1 UNK         0.0600 
    174 H174       -0.2078  -11.8830  -42.0213 H         1 UNK         0.3000 
    175 H175        2.1763  -11.8905  -41.7961 H         1 UNK         0.0600 
    176 H176        0.9210  -13.1640  -40.0105 H         1 UNK         0.0600 
    177 H177        1.7844  -14.6366  -40.4425 H         1 UNK         0.0600 
    178 H178        2.6509  -13.2725  -39.7431 H         1 UNK         0.0600 
    179 H179        3.2105  -14.2384  -43.0777 H         1 UNK         0.3000 
    180 H180        6.4408  -12.9582  -43.1702 H         1 UNK         0.0600 
    181 H181        7.3504  -15.1595  -42.4709 H         1 UNK         0.0600 
    182 H182        6.8163  -14.2558  -41.0639 H         1 UNK         0.0600 
    183 H183        5.8247  -15.5698  -41.6846 H         1 UNK         0.0600 
    184 H184        5.5034  -15.4401  -44.1351 H         1 UNK         0.3000 
    185 H185        5.3653  -15.2227  -46.7589 H         1 UNK         0.0600 
    186 H186        3.2246  -16.5862  -46.7485 H         1 UNK         0.0600 
    187 H187        4.0370  -16.6142  -45.1977 H         1 UNK         0.0600 
    188 H188        2.6263  -15.5886  -45.4263 H         1 UNK         0.0600 
    189 H189        2.7455  -14.1731  -47.4596 H         1 UNK         0.3000 
    190 H190       -3.4696  -21.6513  -47.4336 H         1 UNK         0.3000 
    191 H191       -4.3868  -23.3762  -49.5797 H         1 UNK         0.0600 
    192 H192       -6.6463  -22.6720  -48.7510 H         1 UNK         0.0600 
    193 H193       -5.5929  -21.2944  -49.0376 H         1 UNK         0.0600 
    194 H194       -5.9010  -21.8523  -47.3940 H         1 UNK         0.0600 
    195 H195       -4.1927  -23.6100  -46.0336 H         1 UNK         0.3000 
    196 H196       -5.6469  -26.1021  -45.8081 H         1 UNK         0.0600 
    197 H197       -4.8357  -26.0322  -43.4595 H         1 UNK         0.0600 
    198 H198       -5.5101  -24.4792  -43.9276 H         1 UNK         0.0600 
    199 H199       -3.7623  -24.6931  -43.8399 H         1 UNK         0.0600 
    200 H200       -2.2041  -25.1692  -45.9881 H         1 UNK         0.3000 
    201 H201       -1.1265  -27.8256  -45.7832 H         1 UNK         0.0600 
    202 H202        0.0798  -25.2467  -46.9253 H         1 UNK         0.0600 
    203 H203        0.9798  -26.6842  -46.4600 H         1 UNK         0.0600 
    204 H204        0.1447  -25.7415  -45.2347 H         1 UNK         0.0600 
    205 H205       -2.6897  -26.2082  -48.3619 H         1 UNK         0.3000 
    206 H206       -3.1027  -26.5515  -50.4878 H         1 UNK         0.0600 
    207 H207       -3.5427  -28.9414  -49.8557 H         1 UNK         0.0600 
    208 H208       -2.9714  -28.7742  -51.5073 H         1 UNK         0.0600 
    209 H209       -1.8746  -29.3478  -50.2607 H         1 UNK         0.0600 
    210 H210       -0.6429  -25.3449  -49.6037 H         1 UNK         0.3000 
    211 H211        1.3098  -25.7021  -51.7935 H         1 UNK         0.0600 
    212 H212        1.1645  -23.7066  -49.4654 H         1 UNK         0.0600 
    213 H213        2.4876  -23.8338  -50.6195 H         1 UNK         0.0600 
    214 H214        2.1525  -25.1630  -49.5203 H         1 UNK         0.0600 
    215 H215       -1.4364  -23.7470  -50.8365 H         1 UNK         0.3000 
    216 H216       -1.3601  -22.1745  -53.3787 H         1 UNK         0.0600 
    217 H217       -3.0917  -20.7688  -52.2482 H         1 UNK         0.0600 
    218 H218       -1.5891  -20.7416  -51.3438 H         1 UNK         0.0600 
    219 H219       -2.9464  -21.7221  -50.7829 H         1 UNK         0.0600 
    220 H220       -3.2753  -22.2671  -54.6334 H         1 UNK         0.3000 
    221 H221       -4.6648  -24.8131  -54.6450 H         1 UNK         0.0600 
    222 H222       -4.8757  -22.3554  -56.4614 H         1 UNK         0.0600 
    223 H223       -3.8372  -23.7556  -56.7268 H         1 UNK         0.0600 
    224 H224       -5.5822  -23.9350  -56.7835 H         1 UNK         0.0600 
    225 H225       -5.4106  -24.0329  -52.3537 H         1 UNK         0.3000 
    226 H226       -7.0563  -23.8469  -50.9158 H         1 UNK         0.0600 
    227 H227       -8.2806  -25.3732  -52.4416 H         1 UNK         0.0600 
    228 H228       -9.3885  -24.2913  -51.6132 H         1 UNK         0.0600 
    229 H229       -8.9769  -23.9963  -53.2956 H         1 UNK         0.0600 
    230 H230       -7.2443  -21.4498  -53.4598 H         1 UNK         0.3000 
    231 H231       -8.9777  -19.6017  -52.0695 H         1 UNK         0.0600 
    232 H232       -8.4090  -18.1259  -53.9994 H         1 UNK         0.0600 
    233 H233       -8.8162  -19.7422  -54.5508 H         1 UNK         0.0600 
    234 H234       -7.1303  -19.2306  -54.4908 H         1 UNK         0.0600 
    235 H235       -5.7554  -20.3556  -51.5172 H         1 UNK         0.3000 
    236 H236       -4.0411  -19.5157  -50.3818 H         1 UNK         0.0600 
    237 H237       -5.7945  -17.2096  -49.4241 H         1 UNK         0.0600 
    238 H238       -5.6853  -18.7923  -48.6509 H         1 UNK         0.0600 
    239 H239       -4.2754  -17.7497  -48.7328 H         1 UNK         0.0600 
    240 H240       -4.7083  -18.7064  -53.1713 H         1 UNK         0.3000 
    241 H241       -3.8117  -17.6650  -54.8757 H         1 UNK         0.0600 
    242 H242       -2.3572  -15.1712  -55.3041 H         1 UNK         0.3800 
    243 H243       -3.4860  -13.9252  -54.8635 H         1 UNK         0.3800 
    244 H244       -1.4646  -16.9953  -53.0418 H         1 UNK         0.0800 
    245 H245       -1.4207  -16.8775  -54.7854 H         1 UNK         0.0800 
    246 H246        0.8267  -20.0390  -54.3364 H         1 UNK         0.0800 
    247 H247        0.7689  -18.3628  -54.8112 H         1 UNK         0.0800 
@<TRIPOS>BOND
     1    1    2 1    
     2    1  127 1    
     3    1  128 1    
     4    1  129 1    
     5    2    3 2    
     6    2    4 am   BACKBONE|DICT|INTERRES
     7    4    5 1    
     8    4  130 1    
     9    5    6 1    
    10    5   65 1    
    11    5  131 1    
    12    6    7 1    
    13    6  132 1    
    14    6  133 1    
    15    7    8 1    
    16    8    9 1    
    17    8  134 1    
    18    8  135 1    
    19    9   10 ar   
    20    9   14 ar   
    21   10   11 ar   
    22   10  136 1    
    23   11   12 ar   
    24   11  126 1    
    25   12   13 ar   
    26   12  137 1    
    27   13   14 ar   
    28   13   15 1    
    29   14  138 1    
    30   15   16 1    
    31   15  139 1    
    32   15  140 1    
    33   16   17 1    
    34   17   18 1    
    35   17  141 1    
    36   17  142 1    
    37   18   19 1    
    38   18   67 1    
    39   18  143 1    
    40   19   20 am   BACKBONE|DICT|INTERRES
    41   19  144 1    
    42   20   21 2    
    43   20   22 1    
    44   22   23 1    
    45   22   24 1    
    46   22  145 1    
    47   23  146 1    
    48   23  147 1    
    49   23  148 1    
    50   24   25 am   BACKBONE|DICT|INTERRES
    51   24  149 1    
    52   25   26 2    
    53   25   27 1    
    54   27   28 1    
    55   27   29 1    
    56   27  150 1    
    57   28  151 1    
    58   28  152 1    
    59   28  153 1    
    60   29   30 am   BACKBONE|DICT|INTERRES
    61   29  154 1    
    62   30   31 2    
    63   30   32 1    
    64   32   33 1    
    65   32   34 1    
    66   32  155 1    
    67   33  156 1    
    68   33  157 1    
    69   33  158 1    
    70   34   35 am   BACKBONE|DICT|INTERRES
    71   34  159 1    
    72   35   36 2    
    73   35   37 1    
    74   37   38 1    
    75   37   39 1    
    76   37  160 1    
    77   38  161 1    
    78   38  162 1    
    79   38  163 1    
    80   39   40 am   BACKBONE|DICT|INTERRES
    81   39  164 1    
    82   40   41 2    
    83   40   42 1    
    84   42   43 1    
    85   42   44 1    
    86   42  165 1    
    87   43  166 1    
    88   43  167 1    
    89   43  168 1    
    90   44   45 am   BACKBONE|DICT|INTERRES
    91   44  169 1    
    92   45   46 2    
    93   45   47 1    
    94   47   48 1    
    95   47   49 1    
    96   47  170 1    
    97   48  171 1    
    98   48  172 1    
    99   48  173 1    
   100   49   50 am   BACKBONE|DICT|INTERRES
   101   49  174 1    
   102   50   51 2    
   103   50   52 1    
   104   52   53 1    
   105   52   54 1    
   106   52  175 1    
   107   53  176 1    
   108   53  177 1    
   109   53  178 1    
   110   54   55 am   BACKBONE|DICT|INTERRES
   111   54  179 1    
   112   55   56 2    
   113   55   57 1    
   114   57   58 1    
   115   57   59 1    
   116   57  180 1    
   117   58  181 1    
   118   58  182 1    
   119   58  183 1    
   120   59   60 am   BACKBONE|DICT|INTERRES
   121   59  184 1    
   122   60   61 2    
   123   60   62 1    
   124   62   63 1    
   125   62   64 1    
   126   62  185 1    
   127   63  186 1    
   128   63  187 1    
   129   63  188 1    
   130   64   65 am   BACKBONE|DICT|INTERRES
   131   64  189 1    
   132   65   66 2    
   133   67   68 2    
   134   67   69 am   BACKBONE|DICT|INTERRES
   135   69   70 1    
   136   69  190 1    
   137   70   71 1    
   138   70   72 1    
   139   70  191 1    
   140   71  192 1    
   141   71  193 1    
   142   71  194 1    
   143   72   73 2    
   144   72   74 am   BACKBONE|DICT|INTERRES
   145   74   75 1    
   146   74  195 1    
   147   75   76 1    
   148   75   77 1    
   149   75  196 1    
   150   76  197 1    
   151   76  198 1    
   152   76  199 1    
   153   77   78 2    
   154   77   79 am   BACKBONE|DICT|INTERRES
   155   79   80 1    
   156   79  200 1    
   157   80   81 1    
   158   80   82 1    
   159   80  201 1    
   160   81  202 1    
   161   81  203 1    
   162   81  204 1    
   163   82   83 2    
   164   82   84 am   BACKBONE|DICT|INTERRES
   165   84   85 1    
   166   84  205 1    
   167   85   86 1    
   168   85   87 1    
   169   85  206 1    
   170   86  207 1    
   171   86  208 1    
   172   86  209 1    
   173   87   88 2    
   174   87   89 am   BACKBONE|DICT|INTERRES
   175   89   90 1    
   176   89  210 1    
   177   90   91 1    
   178   90   92 1    
   179   90  211 1    
   180   91  212 1    
   181   91  213 1    
   182   91  214 1    
   183   92   93 2    
   184   92   94 am   BACKBONE|DICT|INTERRES
   185   94   95 1    
   186   94  215 1    
   187   95   96 1    
   188   95   97 1    
   189   95  216 1    
   190   96  217 1    
   191   96  218 1    
   192   96  219 1    
   193   97   98 2    
   194   97   99 am   BACKBONE|DICT|INTERRES
   195   99  100 1    
   196   99  220 1    
   197  100  101 1    
   198  100  102 1    
   199  100  221 1    
   200  101  222 1    
   201  101  223 1    
   202  101  224 1    
   203  102  103 2    
   204  102  104 am   BACKBONE|DICT|INTERRES
   205  104  105 1    
   206  104  225 1    
   207  105  106 1    
   208  105  107 1    
   209  105  226 1    
   210  106  227 1    
   211  106  228 1    
   212  106  229 1    
   213  107  108 2    
   214  107  109 am   BACKBONE|DICT|INTERRES
   215  109  110 1    
   216  109  230 1    
   217  110  111 1    
   218  110  112 1    
   219  110  231 1    
   220  111  232 1    
   221  111  233 1    
   222  111  234 1    
   223  112  113 2    
   224  112  114 am   BACKBONE|DICT|INTERRES
   225  114  115 1    
   226  114  235 1    
   227  115  116 1    
   228  115  117 1    
   229  115  236 1    
   230  116  237 1    
   231  116  238 1    
   232  116  239 1    
   233  117  118 2    
   234  117  119 am   BACKBONE|DICT|INTERRES
   235  119  120 1    
   236  119  240 1    
   237  120  121 1    
   238  120  124 1    
   239  120  241 1    
   240  121  122 am   BACKBONE|DICT|INTERRES
   241  121  123 2    
   242  122  242 1    
   243  122  243 1    
   244  124  125 1    
   245  124  244 1    
   246  124  245 1    
   247  125  126 1    
   248  126  246 1    
   249  126  247 1    
@<TRIPOS>SUBSTRUCTURE
     1 UNK         1 GROUP             0       ****    0 ROOT    
