@<TRIPOS>MOLECULE
3R540
247   249    1
SMALL
USER_CHARGES


@<TRIPOS>ATOM
      1 CA          2.3463  -17.1296  -46.9967 C.3       0 UNK        -0.1800 
      2 C           1.5876  -15.8325  -47.2279 C.2       0 UNK         0.5000 
      3 O           1.0185  -15.2702  -46.2954 O.2       0 UNK        -0.5000 
      4 N           1.5995  -15.3363  -48.4693 N.am      1 UNK        -0.5000 
      5 CA          0.9385  -14.1000  -48.9017 C.3       1 UNK         0.1400 
      6 C6          0.8549  -14.0207  -50.4453 C.3       23 UNK        -0.0398 
      7 S7          2.4542  -13.8324  -51.3211 S.3       23 UNK        -0.2404 
      8 C8          3.1995  -15.5045  -51.3013 C.3       23 UNK        -0.0205 
      9 C9          2.2671  -16.6353  -51.7283 C.ar      23 UNK        -0.0193 
     10 C10         1.4225  -16.4953  -52.8321 C.ar      23 UNK        -0.1150 
     11 C11         0.5844  -17.5371  -53.2374 C.ar      23 UNK        -0.0193 
     12 C12         0.6147  -18.7482  -52.5304 C.ar      23 UNK        -0.1150 
     13 C13         1.4642  -18.9127  -51.4281 C.ar      23 UNK        -0.0193 
     14 C14         2.2877  -17.8509  -51.0394 C.ar      23 UNK        -0.1150 
     15 C15         1.5552  -20.2575  -50.7078 C.3       23 UNK        -0.0205 
     16 S16         1.4127  -20.1215  -48.8873 S.3       23 UNK        -0.2404 
     17 C17        -0.1174  -21.0427  -48.5179 C.3       23 UNK        -0.0398 
     18 CA          0.1556  -22.3906  -47.8069 C.3       11 UNK         0.1400 
     19 N           0.6913  -22.1975  -46.4571 N.am      11 UNK        -0.5000 
     20 C           1.2149  -23.1647  -45.6925 C.2       10 UNK         0.5000 
     21 O           1.3605  -24.3291  -46.0638 O.2       10 UNK        -0.5000 
     22 CA          1.5897  -22.7667  -44.2539 C.3       10 UNK         0.1400 
     23 CB          2.9596  -22.0732  -44.2201 C.3       10 UNK        -0.1800 
     24 N           0.5807  -21.8959  -43.6448 N.am      10 UNK        -0.5000 
     25 C          -0.6481  -22.3077  -43.2938 C.2       9 UNK         0.5000 
     26 O          -1.0345  -23.4681  -43.4198 O.2       9 UNK        -0.5000 
     27 CA         -1.6327  -21.2493  -42.7572 C.3       9 UNK         0.1400 
     28 CB         -1.4988  -21.1135  -41.2338 C.3       9 UNK        -0.1800 
     29 N          -1.4634  -19.9335  -43.3687 N.am      9 UNK        -0.5000 
     30 C          -1.5388  -19.6680  -44.6801 C.2       8 UNK         0.5000 
     31 O          -1.8575  -20.4993  -45.5296 O.2       8 UNK        -0.5000 
     32 CA         -1.1402  -18.2516  -45.1315 C.3       8 UNK         0.1400 
     33 CB         -2.3983  -17.4224  -45.4137 C.3       8 UNK        -0.1800 
     34 N          -0.2793  -17.5352  -44.1826 N.am      8 UNK        -0.5000 
     35 C           0.9217  -17.9491  -43.7472 C.2       7 UNK         0.5000 
     36 O           1.4547  -18.9969  -44.1144 O.2       7 UNK        -0.5000 
     37 CA          1.6125  -17.0875  -42.6773 C.3       7 UNK         0.1400 
     38 CB          2.6633  -16.1587  -43.3000 C.3       7 UNK        -0.1800 
     39 N           0.6521  -16.2945  -41.9076 N.am      7 UNK        -0.5000 
     40 C          -0.0126  -16.7565  -40.8400 C.2       6 UNK         0.5000 
     41 O           0.1089  -17.9004  -40.4011 O.2       6 UNK        -0.5000 
     42 CA         -0.9827  -15.7792  -40.1556 C.3       6 UNK         0.1400 
     43 CB         -0.2120  -14.6860  -39.3984 C.3       6 UNK        -0.1800 
     44 N          -1.9058  -15.1523  -41.1000 N.am      6 UNK        -0.5000 
     45 C          -2.9536  -15.7684  -41.6657 C.2       5 UNK         0.5000 
     46 O          -3.2407  -16.9506  -41.4800 O.2       5 UNK        -0.5000 
     47 CA         -3.7972  -14.9213  -42.6271 C.3       5 UNK         0.1400 
     48 CB         -4.6082  -13.8489  -41.8765 C.3       5 UNK        -0.1800 
     49 N          -2.9111  -14.3156  -43.6125 N.am      5 UNK        -0.5000 
     50 C          -3.2449  -13.8336  -44.8090 C.2       4 UNK         0.5000 
     51 O          -4.4103  -13.7424  -45.1981 O.2       4 UNK        -0.5000 
     52 CA         -2.0750  -13.4148  -45.7351 C.3       4 UNK         0.1400 
     53 CB         -2.5622  -12.6527  -46.9813 C.3       4 UNK        -0.1800 
     54 N          -0.9939  -12.6415  -45.1106 N.am      4 UNK        -0.5000 
     55 C          -0.1379  -13.0305  -44.1543 C.2       3 UNK         0.5000 
     56 O          -0.2193  -14.0887  -43.5248 O.2       3 UNK        -0.5000 
     57 CA          1.0664  -12.1092  -43.9460 C.3       3 UNK         0.1400 
     58 CB          1.8264  -12.3760  -42.6336 C.3       3 UNK        -0.1800 
     59 N           1.9375  -12.3303  -45.0920 N.am      3 UNK        -0.5000 
     60 C           2.7062  -11.4065  -45.6784 C.2       2 UNK         0.5000 
     61 O           2.8528  -10.2631  -45.2448 O.2       2 UNK        -0.5000 
     62 CA          3.4174  -11.8199  -46.9841 C.3       2 UNK         0.1400 
     63 CB          4.8623  -12.2534  -46.6935 C.3       2 UNK        -0.1800 
     64 N           2.7371  -12.8991  -47.7054 N.am      2 UNK        -0.5000 
     65 C           1.5254  -12.8115  -48.2755 C.2       1 UNK         0.5000 
     66 O           0.8631  -11.7738  -48.3025 O.2       1 UNK        -0.5000 
     67 C          -1.1085  -23.2759  -47.7747 C.2       11 UNK         0.5000 
     68 O          -1.2438  -24.1792  -48.6001 O.2       11 UNK        -0.5000 
     69 N          -1.9982  -23.0308  -46.8020 N.am      12 UNK        -0.5000 
     70 CA         -3.2119  -23.8146  -46.5704 C.3       12 UNK         0.1400 
     71 CB         -4.0876  -23.1169  -45.5212 C.3       12 UNK        -0.1800 
     72 C          -2.9154  -25.2708  -46.1672 C.2       12 UNK         0.5000 
     73 O          -3.5610  -26.1795  -46.6880 O.2       12 UNK        -0.5000 
     74 N          -1.9114  -25.4783  -45.3021 N.am      13 UNK        -0.5000 
     75 CA         -1.4149  -26.7993  -44.9002 C.3       13 UNK         0.1400 
     76 CB         -0.4033  -26.6439  -43.7549 C.3       13 UNK        -0.1800 
     77 C          -0.7944  -27.5964  -46.0647 C.2       13 UNK         0.5000 
     78 O          -0.8995  -28.8229  -46.0856 O.2       13 UNK        -0.5000 
     79 N          -0.2006  -26.8848  -47.0322 N.am      14 UNK        -0.5000 
     80 CA          0.3075  -27.4320  -48.2916 C.3       14 UNK         0.1400 
     81 CB          1.3852  -26.4830  -48.8429 C.3       14 UNK        -0.1800 
     82 C          -0.7982  -27.6826  -49.3425 C.2       14 UNK         0.5000 
     83 O          -0.4851  -28.1789  -50.4254 O.2       14 UNK        -0.5000 
     84 N          -2.0552  -27.3349  -49.0194 N.am      15 UNK        -0.5000 
     85 CA         -3.2564  -27.4181  -49.8581 C.3       15 UNK         0.1400 
     86 CB         -3.5948  -28.8839  -50.2017 C.3       15 UNK        -0.1800 
     87 C          -3.1858  -26.5004  -51.0965 C.2       15 UNK         0.5000 
     88 O          -3.6982  -26.8517  -52.1608 O.2       15 UNK        -0.5000 
     89 N          -2.5506  -25.3354  -50.9307 N.am      16 UNK        -0.5000 
     90 CA         -2.2922  -24.3521  -51.9758 C.3       16 UNK         0.1400 
     91 CB         -0.8987  -24.6258  -52.5749 C.3       16 UNK        -0.1800 
     92 C          -2.4272  -22.9435  -51.3771 C.2       16 UNK         0.5000 
     93 O          -1.5154  -22.1323  -51.5243 O.2       16 UNK        -0.5000 
     94 N          -3.5431  -22.7097  -50.6661 N.am      17 UNK        -0.5000 
     95 CA         -3.8513  -21.5307  -49.8458 C.3       17 UNK         0.1400 
     96 CB         -5.3224  -21.6021  -49.4122 C.3       17 UNK        -0.1800 
     97 C          -3.5582  -20.1808  -50.5263 C.2       17 UNK         0.5000 
     98 O          -3.9858  -19.9727  -51.6637 O.2       17 UNK        -0.5000 
     99 N          -2.8365  -19.3034  -49.8145 N.am      18 UNK        -0.5000 
    100 CA        -2.3544  -18.0116  -50.3037 C.3       18 UNK         0.1400 
    101 CB        -1.4643  -17.3557  -49.2366 C.3       18 UNK        -0.1800 
    102 C         -3.5077  -17.0763  -50.6950 C.2       18 UNK         0.5000 
    103 O         -4.4273  -16.8809  -49.8981 O.2       18 UNK        -0.5000 
    104 N         -3.4503  -16.5587  -51.9282 N.am      19 UNK        -0.5000 
    105 CA        -4.4302  -15.7217  -52.6345 C.3       19 UNK         0.1400 
    106 CB        -4.6767  -14.3961  -51.8893 C.3       19 UNK        -0.1800 
    107 C         -5.7599  -16.4309  -52.9703 C.2       19 UNK         0.5000 
    108 O         -6.3360  -16.1610  -54.0246 O.2       19 UNK        -0.5000 
    109 N         -6.2234  -17.3184  -52.0837 N.am      20 UNK        -0.5000 
    110 CA        -7.4626  -18.0806  -52.2021 C.3       20 UNK         0.1400 
    111 CB        -7.7945  -18.6969  -50.8348 C.3       20 UNK        -0.1800 
    112 C         -7.4189  -19.1718  -53.2869 C.2       20 UNK         0.5000 
    113 O         -8.4576  -19.4522  -53.8875 O.2       20 UNK        -0.5000 
    114 N         -6.2439  -19.7739  -53.5141 N.am      21 UNK        -0.5000 
    115 CA        -6.0616  -20.8684  -54.4654 C.3       21 UNK         0.1400 
    116 CB        -6.2982  -22.2168  -53.7597 C.3       21 UNK        -0.1800 
    117 C         -4.6787  -20.8251  -55.1275 C.2       21 UNK         0.5000 
    118 O         -4.5969  -20.8282  -56.3559 O.2       21 UNK        -0.5000 
    119 N         -3.6223  -20.8151  -54.3050 N.am      22 UNK        -0.5000 
    120 CA        -2.1994  -20.8682  -54.6933 C.3       22 UNK         0.1400 
    121 C         -1.7495  -22.1683  -55.4325 C.2       22 UNK         0.5000 
    122 N         -2.5608  -23.2171  -55.5008 N.am      22 UNK        -0.7600 
    123 O         -0.6271  -22.2471  -55.9239 O.2       22 UNK        -0.5000 
    124 C124       -1.7185  -19.5841  -55.4188 C.3       23 UNK        -0.0398 
    125 S125       -1.9420  -18.0846  -54.4010 S.3       23 UNK        -0.2404 
    126 C126       -0.2877  -17.3193  -54.4739 C.3       23 UNK        -0.0205 
    127 H127        2.8947  -17.4430  -47.8842 H         1 UNK         0.0600 
    128 H128        1.6564  -17.9272  -46.7270 H         1 UNK         0.0600 
    129 H129        3.0635  -17.0079  -46.1868 H         1 UNK         0.0600 
    130 H130        2.0734  -15.8452  -49.2001 H         1 UNK         0.3000 
    131 H131       -0.0883  -14.1607  -48.5345 H         1 UNK         0.0600 
    132 H132        0.3294  -14.8927  -50.8328 H         1 UNK         0.0800 
    133 H133        0.2296  -13.1727  -50.7300 H         1 UNK         0.0800 
    134 H134        4.0543  -15.5000  -51.9787 H         1 UNK         0.0800 
    135 H135        3.6126  -15.6939  -50.3102 H         1 UNK         0.0800 
    136 H136        1.4244  -15.5665  -53.3851 H         1 UNK         0.1150 
    137 H137       -0.0067  -19.5721  -52.8475 H         1 UNK         0.1150 
    138 H138        2.9659  -17.9863  -50.2093 H         1 UNK         0.1150 
    139 H139        0.8156  -20.9547  -51.1010 H         1 UNK         0.0800 
    140 H140        2.5258  -20.6982  -50.9384 H         1 UNK         0.0800 
    141 H141       -0.6678  -21.1923  -49.4413 H         1 UNK         0.0800 
    142 H142       -0.7499  -20.4058  -47.9004 H         1 UNK         0.0800 
    143 H143        0.9042  -22.9332  -48.3885 H         1 UNK         0.0600 
    144 H144        0.5989  -21.2728  -46.0638 H         1 UNK         0.3000 
    145 H145        1.6571  -23.6804  -43.6595 H         1 UNK         0.0600 
    146 H146        3.2461  -21.8147  -43.2006 H         1 UNK         0.0600 
    147 H147        3.7358  -22.7261  -44.6212 H         1 UNK         0.0600 
    148 H148        2.9647  -21.1571  -44.8120 H         1 UNK         0.0600 
    149 H149        0.8186  -20.9134  -43.5618 H         1 UNK         0.3000 
    150 H150       -2.6447  -21.5889  -42.9822 H         1 UNK         0.0600 
    151 H151       -1.6499  -22.0746  -40.7405 H         1 UNK         0.0600 
    152 H152       -2.2399  -20.4218  -40.8324 H         1 UNK         0.0600 
    153 H153       -0.5115  -20.7478  -40.9480 H         1 UNK         0.0600 
    154 H154       -1.2001  -19.1816  -42.7483 H         1 UNK         0.3000 
    155 H155       -0.5870  -18.3585  -46.0658 H         1 UNK         0.0600 
    156 H156       -2.9528  -17.2069  -44.5005 H         1 UNK         0.0600 
    157 H157       -2.1415  -16.4806  -45.8911 H         1 UNK         0.0600 
    158 H158       -3.0742  -17.9478  -46.0902 H         1 UNK         0.0600 
    159 H159       -0.6122  -16.6433  -43.8477 H         1 UNK         0.3000 
    160 H160        2.1368  -17.7682  -42.0031 H         1 UNK         0.0600 
    161 H161        3.2024  -15.6072  -42.5301 H         1 UNK         0.0600 
    162 H162        2.2135  -15.4354  -43.9790 H         1 UNK         0.0600 
    163 H163        3.4030  -16.7288  -43.8623 H         1 UNK         0.0600 
    164 H164        0.4486  -15.3636  -42.2602 H         1 UNK         0.3000 
    165 H165       -1.5671  -16.3447  -39.4263 H         1 UNK         0.0600 
    166 H166       -0.8908  -14.0409  -38.8404 H         1 UNK         0.0600 
    167 H167        0.4821  -15.1242  -38.6801 H         1 UNK         0.0600 
    168 H168        0.3688  -14.0566  -40.0738 H         1 UNK         0.0600 
    169 H169       -1.7385  -14.1797  -41.3118 H         1 UNK         0.3000 
    170 H170       -4.4897  -15.5904  -43.1423 H         1 UNK         0.0600 
    171 H171       -5.2759  -13.3135  -42.5515 H         1 UNK         0.0600 
    172 H172       -3.9615  -13.1138  -41.3965 H         1 UNK         0.0600 
    173 H173       -5.2277  -14.3007  -41.1008 H         1 UNK         0.0600 
    174 H174       -1.9134  -14.3569  -43.4075 H         1 UNK         0.3000 
    175 H175       -1.6178  -14.3379  -46.0905 H         1 UNK         0.0600 
    176 H176       -1.7389  -12.4284  -47.6586 H         1 UNK         0.0600 
    177 H177       -3.0400  -11.7101  -46.7116 H         1 UNK         0.0600 
    178 H178       -3.2868  -13.2408  -47.5463 H         1 UNK         0.0600 
    179 H179       -0.8112  -11.7504  -45.5489 H         1 UNK         0.3000 
    180 H180        0.7038  -11.0791  -43.9380 H         1 UNK         0.0600 
    181 H181        2.2362  -13.3843  -42.5978 H         1 UNK         0.0600 
    182 H182        1.1688  -12.2559  -41.7722 H         1 UNK         0.0600 
    183 H183        2.6540  -11.6774  -42.5112 H         1 UNK         0.0600 
    184 H184        1.8392  -13.2369  -45.5356 H         1 UNK         0.3000 
    185 H185        3.4446  -10.9441  -47.6358 H         1 UNK         0.0600 
    186 H186        4.8963  -13.1405  -46.0596 H         1 UNK         0.0600 
    187 H187        5.4007  -12.4766  -47.6148 H         1 UNK         0.0600 
    188 H188        5.4119  -11.4626  -46.1811 H         1 UNK         0.0600 
    189 H189        3.2086  -13.7906  -47.7347 H         1 UNK         0.3000 
    190 H190       -1.8465  -22.2342  -46.1875 H         1 UNK         0.3000 
    191 H191       -3.7693  -23.8416  -47.5089 H         1 UNK         0.0600 
    192 H192       -4.3233  -22.0949  -45.8190 H         1 UNK         0.0600 
    193 H193       -5.0328  -23.6450  -45.3899 H         1 UNK         0.0600 
    194 H194       -3.5963  -23.0795  -44.5497 H         1 UNK         0.0600 
    195 H195       -1.4680  -24.6780  -44.8600 H         1 UNK         0.3000 
    196 H196       -2.2646  -27.3742  -44.5264 H         1 UNK         0.0600 
    197 H197       -0.0200  -27.6139  -43.4358 H         1 UNK         0.0600 
    198 H198       -0.8629  -26.1754  -42.8846 H         1 UNK         0.0600 
    199 H199        0.4503  -26.0343  -44.0524 H         1 UNK         0.0600 
    200 H200       -0.1216  -25.8823  -46.9145 H         1 UNK         0.3000 
    201 H201        0.7812  -28.3942  -48.0875 H         1 UNK         0.0600 
    202 H202        2.1771  -26.3181  -48.1120 H         1 UNK         0.0600 
    203 H203        0.9709  -25.5114  -49.1109 H         1 UNK         0.0600 
    204 H204        1.8515  -26.8965  -49.7378 H         1 UNK         0.0600 
    205 H205       -2.2103  -26.9285  -48.1046 H         1 UNK         0.3000 
    206 H206       -4.0751  -27.0319  -49.2499 H         1 UNK         0.0600 
    207 H207       -3.6383  -29.4988  -49.3027 H         1 UNK         0.0600 
    208 H208       -4.5673  -28.9557  -50.6898 H         1 UNK         0.0600 
    209 H209       -2.8596  -29.3248  -50.8753 H         1 UNK         0.0600 
    210 H210       -2.1544  -25.1076  -50.0209 H         1 UNK         0.3000 
    211 H211       -3.0389  -24.4311  -52.7682 H         1 UNK         0.0600 
    212 H212       -0.1215  -24.5786  -51.8109 H         1 UNK         0.0600 
    213 H213       -0.6446  -23.8988  -53.3455 H         1 UNK         0.0600 
    214 H214       -0.8553  -25.6135  -53.0340 H         1 UNK         0.0600 
    215 H215       -4.2222  -23.4548  -50.6249 H         1 UNK         0.3000 
    216 H216       -3.2360  -21.5991  -48.9488 H         1 UNK         0.0600 
    217 H217       -5.5919  -20.7449  -48.7936 H         1 UNK         0.0600 
    218 H218       -5.5199  -22.4984  -48.8241 H         1 UNK         0.0600 
    219 H219       -5.9922  -21.6118  -50.2731 H         1 UNK         0.0600 
    220 H220       -2.6007  -19.5258  -48.8607 H         1 UNK         0.3000 
    221 H221       -1.7437  -18.2061  -51.1862 H         1 UNK         0.0600 
    222 H222       -2.0102  -17.1794  -48.3102 H         1 UNK         0.0600 
    223 H223       -0.5959  -17.9707  -49.0067 H         1 UNK         0.0600 
    224 H224       -1.0910  -16.3923  -49.5825 H         1 UNK         0.0600 
    225 H225       -2.6808  -16.8582  -52.5140 H         1 UNK         0.3000 
    226 H226       -3.9645  -15.4763  -53.5903 H         1 UNK         0.0600 
    227 H227       -3.7409  -13.8705  -51.6992 H         1 UNK         0.0600 
    228 H228       -5.3087  -13.7318  -52.4799 H         1 UNK         0.0600 
    229 H229       -5.1758  -14.5510  -50.9325 H         1 UNK         0.0600 
    230 H230       -5.6923  -17.4336  -51.2260 H         1 UNK         0.3000 
    231 H231       -8.2626  -17.3857  -52.4656 H         1 UNK         0.0600 
    232 H232       -7.0019  -19.3634  -50.4948 H         1 UNK         0.0600 
    233 H233       -8.7178  -19.2762  -50.8779 H         1 UNK         0.0600 
    234 H234       -7.9298  -17.9249  -50.0770 H         1 UNK         0.0600 
    235 H235       -5.4319  -19.5043  -52.9673 H         1 UNK         0.3000 
    236 H236       -6.7917  -20.7750  -55.2724 H         1 UNK         0.0600 
    237 H237       -7.3223  -22.2940  -53.3943 H         1 UNK         0.0600 
    238 H238       -6.1344  -23.0519  -54.4418 H         1 UNK         0.0600 
    239 H239       -5.6312  -22.3489  -52.9069 H         1 UNK         0.0600 
    240 H240       -3.7848  -20.7339  -53.3041 H         1 UNK         0.3000 
    241 H241       -1.6584  -20.9089  -53.7506 H         1 UNK         0.0600 
    242 H242       -3.4975  -23.1658  -55.1384 H         1 UNK         0.3800 
    243 H243       -2.2508  -24.0484  -55.9787 H         1 UNK         0.3800 
    244 H244       -0.6643  -19.6750  -55.6825 H         1 UNK         0.0800 
    245 H245       -2.2526  -19.4502  -56.3601 H         1 UNK         0.0800 
    246 H246       -0.4478  -16.2497  -54.6185 H         1 UNK         0.0800 
    247 H247        0.2565  -17.6540  -55.3573 H         1 UNK         0.0800 
@<TRIPOS>BOND
     1    1    2 1    
     2    1  127 1    
     3    1  128 1    
     4    1  129 1    
     5    2    3 2    
     6    2    4 am   BACKBONE|DICT|INTERRES
     7    4    5 1    
     8    4  130 1    
     9    5    6 1    
    10    5   65 1    
    11    5  131 1    
    12    6    7 1    
    13    6  132 1    
    14    6  133 1    
    15    7    8 1    
    16    8    9 1    
    17    8  134 1    
    18    8  135 1    
    19    9   10 ar   
    20    9   14 ar   
    21   10   11 ar   
    22   10  136 1    
    23   11   12 ar   
    24   11  126 1    
    25   12   13 ar   
    26   12  137 1    
    27   13   14 ar   
    28   13   15 1    
    29   14  138 1    
    30   15   16 1    
    31   15  139 1    
    32   15  140 1    
    33   16   17 1    
    34   17   18 1    
    35   17  141 1    
    36   17  142 1    
    37   18   19 1    
    38   18   67 1    
    39   18  143 1    
    40   19   20 am   BACKBONE|DICT|INTERRES
    41   19  144 1    
    42   20   21 2    
    43   20   22 1    
    44   22   23 1    
    45   22   24 1    
    46   22  145 1    
    47   23  146 1    
    48   23  147 1    
    49   23  148 1    
    50   24   25 am   BACKBONE|DICT|INTERRES
    51   24  149 1    
    52   25   26 2    
    53   25   27 1    
    54   27   28 1    
    55   27   29 1    
    56   27  150 1    
    57   28  151 1    
    58   28  152 1    
    59   28  153 1    
    60   29   30 am   BACKBONE|DICT|INTERRES
    61   29  154 1    
    62   30   31 2    
    63   30   32 1    
    64   32   33 1    
    65   32   34 1    
    66   32  155 1    
    67   33  156 1    
    68   33  157 1    
    69   33  158 1    
    70   34   35 am   BACKBONE|DICT|INTERRES
    71   34  159 1    
    72   35   36 2    
    73   35   37 1    
    74   37   38 1    
    75   37   39 1    
    76   37  160 1    
    77   38  161 1    
    78   38  162 1    
    79   38  163 1    
    80   39   40 am   BACKBONE|DICT|INTERRES
    81   39  164 1    
    82   40   41 2    
    83   40   42 1    
    84   42   43 1    
    85   42   44 1    
    86   42  165 1    
    87   43  166 1    
    88   43  167 1    
    89   43  168 1    
    90   44   45 am   BACKBONE|DICT|INTERRES
    91   44  169 1    
    92   45   46 2    
    93   45   47 1    
    94   47   48 1    
    95   47   49 1    
    96   47  170 1    
    97   48  171 1    
    98   48  172 1    
    99   48  173 1    
   100   49   50 am   BACKBONE|DICT|INTERRES
   101   49  174 1    
   102   50   51 2    
   103   50   52 1    
   104   52   53 1    
   105   52   54 1    
   106   52  175 1    
   107   53  176 1    
   108   53  177 1    
   109   53  178 1    
   110   54   55 am   BACKBONE|DICT|INTERRES
   111   54  179 1    
   112   55   56 2    
   113   55   57 1    
   114   57   58 1    
   115   57   59 1    
   116   57  180 1    
   117   58  181 1    
   118   58  182 1    
   119   58  183 1    
   120   59   60 am   BACKBONE|DICT|INTERRES
   121   59  184 1    
   122   60   61 2    
   123   60   62 1    
   124   62   63 1    
   125   62   64 1    
   126   62  185 1    
   127   63  186 1    
   128   63  187 1    
   129   63  188 1    
   130   64   65 am   BACKBONE|DICT|INTERRES
   131   64  189 1    
   132   65   66 2    
   133   67   68 2    
   134   67   69 am   BACKBONE|DICT|INTERRES
   135   69   70 1    
   136   69  190 1    
   137   70   71 1    
   138   70   72 1    
   139   70  191 1    
   140   71  192 1    
   141   71  193 1    
   142   71  194 1    
   143   72   73 2    
   144   72   74 am   BACKBONE|DICT|INTERRES
   145   74   75 1    
   146   74  195 1    
   147   75   76 1    
   148   75   77 1    
   149   75  196 1    
   150   76  197 1    
   151   76  198 1    
   152   76  199 1    
   153   77   78 2    
   154   77   79 am   BACKBONE|DICT|INTERRES
   155   79   80 1    
   156   79  200 1    
   157   80   81 1    
   158   80   82 1    
   159   80  201 1    
   160   81  202 1    
   161   81  203 1    
   162   81  204 1    
   163   82   83 2    
   164   82   84 am   BACKBONE|DICT|INTERRES
   165   84   85 1    
   166   84  205 1    
   167   85   86 1    
   168   85   87 1    
   169   85  206 1    
   170   86  207 1    
   171   86  208 1    
   172   86  209 1    
   173   87   88 2    
   174   87   89 am   BACKBONE|DICT|INTERRES
   175   89   90 1    
   176   89  210 1    
   177   90   91 1    
   178   90   92 1    
   179   90  211 1    
   180   91  212 1    
   181   91  213 1    
   182   91  214 1    
   183   92   93 2    
   184   92   94 am   BACKBONE|DICT|INTERRES
   185   94   95 1    
   186   94  215 1    
   187   95   96 1    
   188   95   97 1    
   189   95  216 1    
   190   96  217 1    
   191   96  218 1    
   192   96  219 1    
   193   97   98 2    
   194   97   99 am   BACKBONE|DICT|INTERRES
   195   99  100 1    
   196   99  220 1    
   197  100  101 1    
   198  100  102 1    
   199  100  221 1    
   200  101  222 1    
   201  101  223 1    
   202  101  224 1    
   203  102  103 2    
   204  102  104 am   BACKBONE|DICT|INTERRES
   205  104  105 1    
   206  104  225 1    
   207  105  106 1    
   208  105  107 1    
   209  105  226 1    
   210  106  227 1    
   211  106  228 1    
   212  106  229 1    
   213  107  108 2    
   214  107  109 am   BACKBONE|DICT|INTERRES
   215  109  110 1    
   216  109  230 1    
   217  110  111 1    
   218  110  112 1    
   219  110  231 1    
   220  111  232 1    
   221  111  233 1    
   222  111  234 1    
   223  112  113 2    
   224  112  114 am   BACKBONE|DICT|INTERRES
   225  114  115 1    
   226  114  235 1    
   227  115  116 1    
   228  115  117 1    
   229  115  236 1    
   230  116  237 1    
   231  116  238 1    
   232  116  239 1    
   233  117  118 2    
   234  117  119 am   BACKBONE|DICT|INTERRES
   235  119  120 1    
   236  119  240 1    
   237  120  121 1    
   238  120  124 1    
   239  120  241 1    
   240  121  122 am   BACKBONE|DICT|INTERRES
   241  121  123 2    
   242  122  242 1    
   243  122  243 1    
   244  124  125 1    
   245  124  244 1    
   246  124  245 1    
   247  125  126 1    
   248  126  246 1    
   249  126  247 1    
@<TRIPOS>SUBSTRUCTURE
     1 UNK         1 GROUP             0       ****    0 ROOT    
