@<TRIPOS>MOLECULE
3R540
247   249    1
SMALL
USER_CHARGES


@<TRIPOS>ATOM
      1 CA         -1.9523   -8.0105  -51.3332 C.3       0 UNK        -0.1800 
      2 C          -0.8083   -8.9699  -51.0357 C.2       0 UNK         0.5000 
      3 O           0.3568   -8.6007  -51.1874 O.2       0 UNK        -0.5000 
      4 N          -1.1356  -10.1997  -50.6228 N.am      1 UNK        -0.5000 
      5 CA         -0.1813  -11.2340  -50.2127 C.3       1 UNK         0.1400 
      6 C6         -0.8194  -12.6458  -50.2209 C.3       23 UNK        -0.0398 
      7 S7         -2.3724  -12.7946  -49.2651 S.3       23 UNK        -0.2404 
      8 C8         -3.2018  -14.1562  -50.1474 C.3       23 UNK        -0.0205 
      9 C9         -2.3990  -15.4449  -50.0622 C.ar      23 UNK        -0.0193 
     10 C10        -1.6343  -15.8766  -51.1495 C.ar      23 UNK        -0.1150 
     11 C11        -0.8555  -17.0338  -51.0551 C.ar      23 UNK        -0.0193 
     12 C12        -0.8625  -17.7735  -49.8690 C.ar      23 UNK        -0.1150 
     13 C13        -1.6315  -17.3543  -48.7794 C.ar      23 UNK        -0.0193 
     14 C14        -2.3983  -16.1914  -48.8820 C.ar      23 UNK        -0.1150 
     15 C15        -1.6018  -18.1239  -47.4726 C.3       23 UNK        -0.0205 
     16 S16        -3.0864  -19.1443  -47.2541 S.3       23 UNK        -0.2404 
     17 C17        -2.7341  -19.8405  -45.6069 C.3       23 UNK        -0.0398 
     18 CA         -1.9903  -21.1960  -45.6977 C.3       11 UNK         0.1400 
     19 N          -0.9475  -21.3151  -44.6765 N.am      11 UNK        -0.5000 
     20 C           0.0088  -22.2530  -44.6506 C.2       10 UNK         0.5000 
     21 O           0.1243  -23.1274  -45.5102 O.2       10 UNK        -0.5000 
     22 CA          0.9446  -22.2595  -43.4252 C.3       10 UNK         0.1400 
     23 CB          2.2667  -21.5471  -43.7433 C.3       10 UNK        -0.1800 
     24 N           0.3576  -21.6740  -42.2133 N.am      10 UNK        -0.5000 
     25 C          -0.7489  -22.1235  -41.5978 C.2       9 UNK         0.5000 
     26 O          -1.4375  -23.0426  -42.0438 O.2       9 UNK        -0.5000 
     27 CA         -1.1736  -21.4171  -40.2918 C.3       9 UNK         0.1400 
     28 CB         -2.0025  -22.3274  -39.3616 C.3       9 UNK        -0.1800 
     29 N          -0.0539  -20.8056  -39.5700 N.am      9 UNK        -0.5000 
     30 C           1.0229  -21.4182  -39.0513 C.2       8 UNK         0.5000 
     31 O           1.1702  -22.6411  -39.0309 O.2       8 UNK        -0.5000 
     32 CA          2.1266  -20.5054  -38.4662 C.3       8 UNK         0.1400 
     33 CB          3.5407  -21.0837  -38.6847 C.3       8 UNK        -0.1800 
     34 N           2.0624  -19.1113  -38.9322 N.am      8 UNK        -0.5000 
     35 C           2.1614  -18.6750  -40.1966 C.2       7 UNK         0.5000 
     36 O           2.3517  -19.4099  -41.1685 O.2       7 UNK        -0.5000 
     37 CA          1.9865  -17.1575  -40.3958 C.3       7 UNK         0.1400 
     38 CB          3.3551  -16.4608  -40.4231 C.3       7 UNK        -0.1800 
     39 N           1.2538  -16.8110  -41.6141 N.am      7 UNK        -0.5000 
     40 C           0.0453  -17.2643  -41.9782 C.2       6 UNK         0.5000 
     41 O          -0.6295  -18.0498  -41.3097 O.2       6 UNK        -0.5000 
     42 CA         -0.5079  -16.7466  -43.3178 C.3       6 UNK         0.1400 
     43 CB         -1.3503  -15.4796  -43.1065 C.3       6 UNK        -0.1800 
     44 N           0.5553  -16.4611  -44.2815 N.am      6 UNK        -0.5000 
     45 C           1.1127  -17.3750  -45.0877 C.2       5 UNK         0.5000 
     46 O           0.7476  -18.5487  -45.1366 O.2       5 UNK        -0.5000 
     47 CA          2.2610  -16.9015  -46.0003 C.3       5 UNK         0.1400 
     48 CB          1.7244  -16.4923  -47.3803 C.3       5 UNK        -0.1800 
     49 N           3.0029  -15.7796  -45.4241 N.am      5 UNK        -0.5000 
     50 C           3.9306  -15.9119  -44.4639 C.2       4 UNK         0.5000 
     51 O           4.3079  -16.9997  -44.0294 O.2       4 UNK        -0.5000 
     52 CA          4.5308  -14.6201  -43.8700 C.3       4 UNK         0.1400 
     53 CB          5.8780  -14.3005  -44.5353 C.3       4 UNK        -0.1800 
     54 N           3.6592  -13.4493  -43.9847 N.am      4 UNK        -0.5000 
     55 C           2.4370  -13.3316  -43.4474 C.2       3 UNK         0.5000 
     56 O           1.9181  -14.1992  -42.7468 O.2       3 UNK        -0.5000 
     57 CA          1.6364  -12.0628  -43.7995 C.3       3 UNK         0.1400 
     58 CB          1.7398  -11.0327  -42.6655 C.3       3 UNK        -0.1800 
     59 N           2.0474  -11.4354  -45.0608 N.am      3 UNK        -0.5000 
     60 C           1.9543  -12.0062  -46.2696 C.2       2 UNK         0.5000 
     61 O           1.5328  -13.1502  -46.4578 O.2       2 UNK        -0.5000 
     62 CA          2.5016  -11.1861  -47.4505 C.3       2 UNK         0.1400 
     63 CB          3.9598  -11.5804  -47.7340 C.3       2 UNK        -0.1800 
     64 N           1.7134  -11.3804  -48.6663 N.am      2 UNK        -0.5000 
     65 C           0.4780  -10.8995  -48.8554 C.2       1 UNK         0.5000 
     66 O          -0.1250  -10.2186  -48.0203 O.2       1 UNK        -0.5000 
     67 C          -2.9781  -22.3851  -45.7184 C.2       11 UNK         0.5000 
     68 O          -3.6665  -22.5684  -46.7224 O.2       11 UNK        -0.5000 
     69 N          -3.0197  -23.1975  -44.6498 N.am      12 UNK        -0.5000 
     70 CA         -3.7930  -24.4401  -44.5979 C.3       12 UNK         0.1400 
     71 CB         -3.8039  -24.9851  -43.1626 C.3       12 UNK        -0.1800 
     72 C          -3.2648  -25.5053  -45.5781 C.2       12 UNK         0.5000 
     73 O          -4.0649  -26.2415  -46.1544 O.2       12 UNK        -0.5000 
     74 N          -1.9401  -25.5368  -45.7933 N.am      13 UNK        -0.5000 
     75 CA         -1.2852  -26.4098  -46.7723 C.3       13 UNK         0.1400 
     76 CB          0.2154  -26.4977  -46.4563 C.3       13 UNK        -0.1800 
     77 C          -1.5107  -25.9333  -48.2201 C.2       13 UNK         0.5000 
     78 O          -1.5709  -26.7575  -49.1322 O.2       13 UNK        -0.5000 
     79 N          -1.6661  -24.6138  -48.3957 N.am      14 UNK        -0.5000 
     80 CA         -2.0261  -23.9667  -49.6591 C.3       14 UNK         0.1400 
     81 CB         -1.5555  -22.5038  -49.6075 C.3       14 UNK        -0.1800 
     82 C          -3.5382  -24.0331  -49.9594 C.2       14 UNK         0.5000 
     83 O          -3.9453  -23.6572  -51.0602 O.2       14 UNK        -0.5000 
     84 N          -4.3329  -24.4755  -48.9723 N.am      15 UNK        -0.5000 
     85 CA         -5.7956  -24.5444  -48.9357 C.3       15 UNK         0.1400 
     86 CB         -6.3212  -25.6003  -49.9262 C.3       15 UNK        -0.1800 
     87 C          -6.4416  -23.1608  -49.1345 C.2       15 UNK         0.5000 
     88 O          -7.3112  -23.0008  -49.9908 O.2       15 UNK        -0.5000 
     89 N          -5.9596  -22.1698  -48.3699 N.am      16 UNK        -0.5000 
     90 CA         -6.3247  -20.7500  -48.4557 C.3       16 UNK         0.1400 
     91 CB         -7.7937  -20.5269  -48.0385 C.3       16 UNK        -0.1800 
     92 C          -5.9831  -20.1524  -49.8387 C.2       16 UNK         0.5000 
     93 O          -6.7751  -19.3988  -50.4058 O.2       16 UNK        -0.5000 
     94 N          -4.8158  -20.5582  -50.3605 N.am      17 UNK        -0.5000 
     95 CA         -4.2345  -20.2586  -51.6743 C.3       17 UNK         0.1400 
     96 CB         -4.1401  -18.7387  -51.9200 C.3       17 UNK        -0.1800 
     97 C          -4.9027  -20.9849  -52.8609 C.2       17 UNK         0.5000 
     98 O          -4.3901  -20.8795  -53.9759 O.2       17 UNK        -0.5000 
     99 N          -6.0041  -21.7163  -52.6345 N.am      18 UNK        -0.5000 
    100 CA        -6.7967  -22.3508  -53.6891 C.3       18 UNK         0.1400 
    101 CB        -8.1854  -22.7169  -53.1452 C.3       18 UNK        -0.1800 
    102 C         -6.1250  -23.5849  -54.3160 C.2       18 UNK         0.5000 
    103 O         -6.2692  -23.7924  -55.5214 O.2       18 UNK        -0.5000 
    104 N         -5.4072  -24.3785  -53.5083 N.am      19 UNK        -0.5000 
    105 CA        -4.6817  -25.5626  -53.9790 C.3       19 UNK         0.1400 
    106 CB        -4.5560  -26.5993  -52.8523 C.3       19 UNK        -0.1800 
    107 C         -3.2976  -25.1911  -54.5300 C.2       19 UNK         0.5000 
    108 O         -2.8288  -25.8293  -55.4732 O.2       19 UNK        -0.5000 
    109 N         -2.6781  -24.1560  -53.9460 N.am      20 UNK        -0.5000 
    110 CA        -1.4132  -23.5890  -54.4129 C.3       20 UNK         0.1400 
    111 CB        -0.8422  -22.6677  -53.3262 C.3       20 UNK        -0.1800 
    112 C         -1.5574  -22.8269  -55.7438 C.2       20 UNK         0.5000 
    113 O         -0.6148  -22.8168  -56.5360 O.2       20 UNK        -0.5000 
    114 N         -2.7258  -22.1969  -55.9489 N.am      21 UNK        -0.5000 
    115 CA        -3.0900  -21.3281  -57.0749 C.3       21 UNK         0.1400 
    116 CB        -3.1552  -22.1289  -58.3917 C.3       21 UNK        -0.1800 
    117 C         -2.1940  -20.0734  -57.1678 C.2       21 UNK         0.5000 
    118 O         -1.9359  -19.5699  -58.2626 O.2       21 UNK        -0.5000 
    119 N         -1.7205  -19.6080  -56.0062 N.am      22 UNK        -0.5000 
    120 CA        -0.7530  -18.5135  -55.8508 C.3       22 UNK         0.1400 
    121 C         -1.3817  -17.0905  -55.7808 C.2       22 UNK         0.5000 
    122 N         -2.7013  -16.9451  -55.7815 N.am      22 UNK        -0.7600 
    123 O         -0.6579  -16.0993  -55.7431 O.2       22 UNK        -0.5000 
    124 C124        0.2140  -18.8024  -54.6730 C.3       23 UNK        -0.0398 
    125 S125       -0.6226  -18.9390  -53.0531 S.3       23 UNK        -0.2404 
    126 C126        0.0216  -17.4566  -52.2218 C.3       23 UNK        -0.0205 
    127 H127       -1.9063   -7.6815  -52.3714 H         1 UNK         0.0600 
    128 H128       -2.9246   -8.4750  -51.1665 H         1 UNK         0.0600 
    129 H129       -1.8810   -7.1319  -50.6921 H         1 UNK         0.0600 
    130 H130       -2.1073  -10.4357  -50.4787 H         1 UNK         0.3000 
    131 H131        0.6178  -11.2428  -50.9577 H         1 UNK         0.0600 
    132 H132       -1.0283  -12.9207  -51.2555 H         1 UNK         0.0800 
    133 H133       -0.1139  -13.3953  -49.8568 H         1 UNK         0.0800 
    134 H134       -3.3695  -13.8708  -51.1871 H         1 UNK         0.0800 
    135 H135       -4.1890  -14.3139  -49.7106 H         1 UNK         0.0800 
    136 H136       -1.6283  -15.2995  -52.0635 H         1 UNK         0.1150 
    137 H137       -0.2585  -18.6667  -49.7928 H         1 UNK         0.1150 
    138 H138       -2.9812  -15.8565  -48.0354 H         1 UNK         0.1150 
    139 H139       -0.7204  -18.7652  -47.4280 H         1 UNK         0.0800 
    140 H140       -1.5180  -17.4186  -46.6445 H         1 UNK         0.0800 
    141 H141       -2.1388  -19.1118  -45.0583 H         1 UNK         0.0800 
    142 H142       -3.6683  -19.9226  -45.0478 H         1 UNK         0.0800 
    143 H143       -1.4565  -21.2319  -46.6495 H         1 UNK         0.0600 
    144 H144       -0.9515  -20.6298  -43.9358 H         1 UNK         0.3000 
    145 H145        1.1697  -23.3046  -43.2042 H         1 UNK         0.0600 
    146 H146        2.9829  -21.6667  -42.9301 H         1 UNK         0.0600 
    147 H147        2.7266  -21.9534  -44.6451 H         1 UNK         0.0600 
    148 H148        2.1196  -20.4784  -43.9004 H         1 UNK         0.0600 
    149 H149        0.8726  -20.9084  -41.7924 H         1 UNK         0.3000 
    150 H150       -1.8175  -20.5917  -40.5985 H         1 UNK         0.0600 
    151 H151       -2.9207  -22.6545  -39.8511 H         1 UNK         0.0600 
    152 H152       -2.2918  -21.8027  -38.4512 H         1 UNK         0.0600 
    153 H153       -1.4517  -23.2230  -39.0734 H         1 UNK         0.0600 
    154 H154       -0.0596  -19.7944  -39.5609 H         1 UNK         0.3000 
    155 H155        1.9473  -20.4738  -37.3906 H         1 UNK         0.0600 
    156 H156        4.3040  -20.4295  -38.2634 H         1 UNK         0.0600 
    157 H157        3.7633  -21.2210  -39.7433 H         1 UNK         0.0600 
    158 H158        3.6469  -22.0553  -38.2010 H         1 UNK         0.0600 
    159 H159        1.8959  -18.4282  -38.2057 H         1 UNK         0.3000 
    160 H160        1.4125  -16.7596  -39.5568 H         1 UNK         0.0600 
    161 H161        3.9638  -16.8107  -41.2575 H         1 UNK         0.0600 
    162 H162        3.9129  -16.6557  -39.5063 H         1 UNK         0.0600 
    163 H163        3.2484  -15.3797  -40.5145 H         1 UNK         0.0600 
    164 H164        1.6867  -16.1109  -42.2053 H         1 UNK         0.3000 
    165 H165       -1.1642  -17.5173  -43.7229 H         1 UNK         0.0600 
    166 H166       -0.7598  -14.6646  -42.6871 H         1 UNK         0.0600 
    167 H167       -1.7816  -15.1327  -44.0457 H         1 UNK         0.0600 
    168 H168       -2.1764  -15.6717  -42.4207 H         1 UNK         0.0600 
    169 H169        0.9396  -15.5265  -44.2658 H         1 UNK         0.3000 
    170 H170        2.9446  -17.7416  -46.1409 H         1 UNK         0.0600 
    171 H171        1.2865  -17.3487  -47.8921 H         1 UNK         0.0600 
    172 H172        0.9545  -15.7230  -47.3063 H         1 UNK         0.0600 
    173 H173        2.5205  -16.1093  -48.0189 H         1 UNK         0.0600 
    174 H174        2.7329  -14.8527  -45.7316 H         1 UNK         0.3000 
    175 H175        4.7057  -14.7998  -42.8074 H         1 UNK         0.0600 
    176 H176        5.7599  -14.0818  -45.5974 H         1 UNK         0.0600 
    177 H177        6.3567  -13.4410  -44.0657 H         1 UNK         0.0600 
    178 H178        6.5669  -15.1418  -44.4477 H         1 UNK         0.0600 
    179 H179        4.0034  -12.6855  -44.5467 H         1 UNK         0.3000 
    180 H180        0.5899  -12.3583  -43.8999 H         1 UNK         0.0600 
    181 H181        1.4156  -11.4627  -41.7166 H         1 UNK         0.0600 
    182 H182        2.7635  -10.6802  -42.5334 H         1 UNK         0.0600 
    183 H183        1.1074  -10.1663  -42.8600 H         1 UNK         0.0600 
    184 H184        2.4202  -10.4992  -44.9909 H         1 UNK         0.3000 
    185 H185        2.4732  -10.1258  -47.1900 H         1 UNK         0.0600 
    186 H186        4.5888  -11.4147  -46.8585 H         1 UNK         0.0600 
    187 H187        4.0474  -12.6335  -48.0056 H         1 UNK         0.0600 
    188 H188        4.3780  -10.9879  -48.5480 H         1 UNK         0.0600 
    189 H189        2.1345  -11.9557  -49.3808 H         1 UNK         0.3000 
    190 H190       -2.4289  -23.0013  -43.8480 H         1 UNK         0.3000 
    191 H191       -4.8222  -24.2081  -44.8805 H         1 UNK         0.0600 
    192 H192       -4.4334  -25.8726  -43.0875 H         1 UNK         0.0600 
    193 H193       -4.1957  -24.2472  -42.4622 H         1 UNK         0.0600 
    194 H194       -2.8034  -25.2642  -42.8302 H         1 UNK         0.0600 
    195 H195       -1.3476  -24.8712  -45.3132 H         1 UNK         0.3000 
    196 H196       -1.7096  -27.4120  -46.6810 H         1 UNK         0.0600 
    197 H197        0.7150  -27.1912  -47.1338 H         1 UNK         0.0600 
    198 H198        0.3852  -26.8562  -45.4409 H         1 UNK         0.0600 
    199 H199        0.7081  -25.5304  -46.5581 H         1 UNK         0.0600 
    200 H200       -1.5869  -24.0139  -47.5874 H         1 UNK         0.3000 
    201 H201       -1.5051  -24.4700  -50.4760 H         1 UNK         0.0600 
    202 H202       -0.4955  -22.4363  -49.3621 H         1 UNK         0.0600 
    203 H203       -2.1089  -21.9243  -48.8690 H         1 UNK         0.0600 
    204 H204       -1.6916  -22.0140  -50.5702 H         1 UNK         0.0600 
    205 H205       -3.8785  -24.7283  -48.1064 H         1 UNK         0.3000 
    206 H206       -6.0620  -24.8717  -47.9297 H         1 UNK         0.0600 
    207 H207       -5.8012  -26.5509  -49.8082 H         1 UNK         0.0600 
    208 H208       -7.3837  -25.7860  -49.7663 H         1 UNK         0.0600 
    209 H209       -6.2040  -25.2734  -50.9576 H         1 UNK         0.0600 
    210 H210       -5.1995  -22.3872  -47.7268 H         1 UNK         0.3000 
    211 H211       -5.7028  -20.2293  -47.7289 H         1 UNK         0.0600 
    212 H212       -8.4926  -20.9626  -48.7530 H         1 UNK         0.0600 
    213 H213       -8.0203  -19.4624  -47.9700 H         1 UNK         0.0600 
    214 H214       -7.9960  -20.9647  -47.0611 H         1 UNK         0.0600 
    215 H215       -4.2825  -21.2119  -49.8064 H         1 UNK         0.3000 
    216 H216       -3.2138  -20.6369  -51.6358 H         1 UNK         0.0600 
    217 H217       -5.1199  -18.2818  -52.0558 H         1 UNK         0.0600 
    218 H218       -3.5627  -18.5222  -52.8190 H         1 UNK         0.0600 
    219 H219       -3.6460  -18.2360  -51.0890 H         1 UNK         0.0600 
    220 H220       -6.3515  -21.8056  -51.6881 H         1 UNK         0.3000 
    221 H221       -6.9378  -21.6148  -54.4838 H         1 UNK         0.0600 
    222 H222       -8.1316  -23.5196  -52.4095 H         1 UNK         0.0600 
    223 H223       -8.6677  -21.8598  -52.6749 H         1 UNK         0.0600 
    224 H224       -8.8383  -23.0586  -53.9492 H         1 UNK         0.0600 
    225 H225       -5.2668  -24.1062  -52.5407 H         1 UNK         0.3000 
    226 H226       -5.2440  -26.0305  -54.7901 H         1 UNK         0.0600 
    227 H227       -5.5365  -26.9408  -52.5217 H         1 UNK         0.0600 
    228 H228       -4.0102  -27.4795  -53.1942 H         1 UNK         0.0600 
    229 H229       -4.0227  -26.2035  -51.9885 H         1 UNK         0.0600 
    230 H230       -3.1252  -23.7130  -53.1537 H         1 UNK         0.3000 
    231 H231       -0.7057  -24.4052  -54.5735 H         1 UNK         0.0600 
    232 H232       -1.5453  -21.8784  -53.0602 H         1 UNK         0.0600 
    233 H233       -0.6028  -23.2287  -52.4238 H         1 UNK         0.0600 
    234 H234        0.0787  -22.1881  -53.6606 H         1 UNK         0.0600 
    235 H235       -3.4060  -22.2092  -55.1972 H         1 UNK         0.3000 
    236 H236       -4.0963  -20.9649  -56.8617 H         1 UNK         0.0600 
    237 H237       -3.7934  -23.0063  -58.2863 H         1 UNK         0.0600 
    238 H238       -3.5693  -21.5223  -59.1978 H         1 UNK         0.0600 
    239 H239       -2.1693  -22.4670  -58.7113 H         1 UNK         0.0600 
    240 H240       -2.0161  -20.0578  -55.1513 H         1 UNK         0.3000 
    241 H241       -0.1347  -18.4963  -56.7502 H         1 UNK         0.0600 
    242 H242       -3.3026  -17.7523  -55.8143 H         1 UNK         0.3800 
    243 H243       -3.0998  -16.0206  -55.7443 H         1 UNK         0.3800 
    244 H244        1.0014  -18.0481  -54.6310 H         1 UNK         0.0800 
    245 H245        0.7315  -19.7450  -54.8560 H         1 UNK         0.0800 
    246 H246        0.0997  -16.6394  -52.9407 H         1 UNK         0.0800 
    247 H247        1.0344  -17.6534  -51.8676 H         1 UNK         0.0800 
@<TRIPOS>BOND
     1    1    2 1    
     2    1  127 1    
     3    1  128 1    
     4    1  129 1    
     5    2    3 2    
     6    2    4 am   BACKBONE|DICT|INTERRES
     7    4    5 1    
     8    4  130 1    
     9    5    6 1    
    10    5   65 1    
    11    5  131 1    
    12    6    7 1    
    13    6  132 1    
    14    6  133 1    
    15    7    8 1    
    16    8    9 1    
    17    8  134 1    
    18    8  135 1    
    19    9   10 ar   
    20    9   14 ar   
    21   10   11 ar   
    22   10  136 1    
    23   11   12 ar   
    24   11  126 1    
    25   12   13 ar   
    26   12  137 1    
    27   13   14 ar   
    28   13   15 1    
    29   14  138 1    
    30   15   16 1    
    31   15  139 1    
    32   15  140 1    
    33   16   17 1    
    34   17   18 1    
    35   17  141 1    
    36   17  142 1    
    37   18   19 1    
    38   18   67 1    
    39   18  143 1    
    40   19   20 am   BACKBONE|DICT|INTERRES
    41   19  144 1    
    42   20   21 2    
    43   20   22 1    
    44   22   23 1    
    45   22   24 1    
    46   22  145 1    
    47   23  146 1    
    48   23  147 1    
    49   23  148 1    
    50   24   25 am   BACKBONE|DICT|INTERRES
    51   24  149 1    
    52   25   26 2    
    53   25   27 1    
    54   27   28 1    
    55   27   29 1    
    56   27  150 1    
    57   28  151 1    
    58   28  152 1    
    59   28  153 1    
    60   29   30 am   BACKBONE|DICT|INTERRES
    61   29  154 1    
    62   30   31 2    
    63   30   32 1    
    64   32   33 1    
    65   32   34 1    
    66   32  155 1    
    67   33  156 1    
    68   33  157 1    
    69   33  158 1    
    70   34   35 am   BACKBONE|DICT|INTERRES
    71   34  159 1    
    72   35   36 2    
    73   35   37 1    
    74   37   38 1    
    75   37   39 1    
    76   37  160 1    
    77   38  161 1    
    78   38  162 1    
    79   38  163 1    
    80   39   40 am   BACKBONE|DICT|INTERRES
    81   39  164 1    
    82   40   41 2    
    83   40   42 1    
    84   42   43 1    
    85   42   44 1    
    86   42  165 1    
    87   43  166 1    
    88   43  167 1    
    89   43  168 1    
    90   44   45 am   BACKBONE|DICT|INTERRES
    91   44  169 1    
    92   45   46 2    
    93   45   47 1    
    94   47   48 1    
    95   47   49 1    
    96   47  170 1    
    97   48  171 1    
    98   48  172 1    
    99   48  173 1    
   100   49   50 am   BACKBONE|DICT|INTERRES
   101   49  174 1    
   102   50   51 2    
   103   50   52 1    
   104   52   53 1    
   105   52   54 1    
   106   52  175 1    
   107   53  176 1    
   108   53  177 1    
   109   53  178 1    
   110   54   55 am   BACKBONE|DICT|INTERRES
   111   54  179 1    
   112   55   56 2    
   113   55   57 1    
   114   57   58 1    
   115   57   59 1    
   116   57  180 1    
   117   58  181 1    
   118   58  182 1    
   119   58  183 1    
   120   59   60 am   BACKBONE|DICT|INTERRES
   121   59  184 1    
   122   60   61 2    
   123   60   62 1    
   124   62   63 1    
   125   62   64 1    
   126   62  185 1    
   127   63  186 1    
   128   63  187 1    
   129   63  188 1    
   130   64   65 am   BACKBONE|DICT|INTERRES
   131   64  189 1    
   132   65   66 2    
   133   67   68 2    
   134   67   69 am   BACKBONE|DICT|INTERRES
   135   69   70 1    
   136   69  190 1    
   137   70   71 1    
   138   70   72 1    
   139   70  191 1    
   140   71  192 1    
   141   71  193 1    
   142   71  194 1    
   143   72   73 2    
   144   72   74 am   BACKBONE|DICT|INTERRES
   145   74   75 1    
   146   74  195 1    
   147   75   76 1    
   148   75   77 1    
   149   75  196 1    
   150   76  197 1    
   151   76  198 1    
   152   76  199 1    
   153   77   78 2    
   154   77   79 am   BACKBONE|DICT|INTERRES
   155   79   80 1    
   156   79  200 1    
   157   80   81 1    
   158   80   82 1    
   159   80  201 1    
   160   81  202 1    
   161   81  203 1    
   162   81  204 1    
   163   82   83 2    
   164   82   84 am   BACKBONE|DICT|INTERRES
   165   84   85 1    
   166   84  205 1    
   167   85   86 1    
   168   85   87 1    
   169   85  206 1    
   170   86  207 1    
   171   86  208 1    
   172   86  209 1    
   173   87   88 2    
   174   87   89 am   BACKBONE|DICT|INTERRES
   175   89   90 1    
   176   89  210 1    
   177   90   91 1    
   178   90   92 1    
   179   90  211 1    
   180   91  212 1    
   181   91  213 1    
   182   91  214 1    
   183   92   93 2    
   184   92   94 am   BACKBONE|DICT|INTERRES
   185   94   95 1    
   186   94  215 1    
   187   95   96 1    
   188   95   97 1    
   189   95  216 1    
   190   96  217 1    
   191   96  218 1    
   192   96  219 1    
   193   97   98 2    
   194   97   99 am   BACKBONE|DICT|INTERRES
   195   99  100 1    
   196   99  220 1    
   197  100  101 1    
   198  100  102 1    
   199  100  221 1    
   200  101  222 1    
   201  101  223 1    
   202  101  224 1    
   203  102  103 2    
   204  102  104 am   BACKBONE|DICT|INTERRES
   205  104  105 1    
   206  104  225 1    
   207  105  106 1    
   208  105  107 1    
   209  105  226 1    
   210  106  227 1    
   211  106  228 1    
   212  106  229 1    
   213  107  108 2    
   214  107  109 am   BACKBONE|DICT|INTERRES
   215  109  110 1    
   216  109  230 1    
   217  110  111 1    
   218  110  112 1    
   219  110  231 1    
   220  111  232 1    
   221  111  233 1    
   222  111  234 1    
   223  112  113 2    
   224  112  114 am   BACKBONE|DICT|INTERRES
   225  114  115 1    
   226  114  235 1    
   227  115  116 1    
   228  115  117 1    
   229  115  236 1    
   230  116  237 1    
   231  116  238 1    
   232  116  239 1    
   233  117  118 2    
   234  117  119 am   BACKBONE|DICT|INTERRES
   235  119  120 1    
   236  119  240 1    
   237  120  121 1    
   238  120  124 1    
   239  120  241 1    
   240  121  122 am   BACKBONE|DICT|INTERRES
   241  121  123 2    
   242  122  242 1    
   243  122  243 1    
   244  124  125 1    
   245  124  244 1    
   246  124  245 1    
   247  125  126 1    
   248  126  246 1    
   249  126  247 1    
@<TRIPOS>SUBSTRUCTURE
     1 UNK         1 GROUP             0       ****    0 ROOT    
