@<TRIPOS>MOLECULE
3R540
247   249    1
SMALL
USER_CHARGES


@<TRIPOS>ATOM
      1 CA          4.3299   -8.5312  -46.9004 C.3       0 UNK        -0.1800 
      2 C           3.9438   -9.9968  -46.7662 C.2       0 UNK         0.5000 
      3 O           3.7142  -10.4679  -45.6539 O.2       0 UNK        -0.5000 
      4 N           3.8544  -10.7127  -47.8946 N.am      1 UNK        -0.5000 
      5 CA          3.5201  -12.1409  -47.9882 C.3       1 UNK         0.1400 
      6 C6          3.6406  -12.6218  -49.4573 C.3       23 UNK        -0.0398 
      7 S7          3.4025  -14.4156  -49.7012 S.3       23 UNK        -0.2404 
      8 C8          1.8731  -14.4077  -50.6881 C.3       23 UNK        -0.0205 
      9 C9          1.3605  -15.8179  -50.9249 C.ar      23 UNK        -0.0193 
     10 C10         1.9228  -16.6137  -51.9275 C.ar      23 UNK        -0.1150 
     11 C11         1.4686  -17.9192  -52.1394 C.ar      23 UNK        -0.0193 
     12 C12         0.4353  -18.4198  -51.3405 C.ar      23 UNK        -0.1150 
     13 C13        -0.1373  -17.6326  -50.3378 C.ar      23 UNK        -0.0193 
     14 C14         0.3276  -16.3307  -50.1362 C.ar      23 UNK        -0.1150 
     15 C15        -1.2401  -18.1948  -49.4543 C.3       23 UNK        -0.0205 
     16 S16        -0.6006  -18.6533  -47.8132 S.3       23 UNK        -0.2404 
     17 C17         0.5261  -20.0324  -48.2310 C.3       23 UNK        -0.0398 
     18 CA          0.3112  -21.3399  -47.4326 C.3       11 UNK         0.1400 
     19 N           0.8549  -21.2641  -46.0721 N.am      11 UNK        -0.5000 
     20 C           1.1975  -22.3374  -45.3452 C.2       10 UNK         0.5000 
     21 O           1.0261  -23.4962  -45.7250 O.2       10 UNK        -0.5000 
     22 CA          1.8140  -22.0802  -43.9596 C.3       10 UNK         0.1400 
     23 CB          3.2901  -21.6736  -44.0847 C.3       10 UNK        -0.1800 
     24 N           1.0839  -21.0709  -43.1941 N.am      10 UNK        -0.5000 
     25 C          -0.1542  -21.2431  -42.7101 C.2       9 UNK         0.5000 
     26 O          -0.8017  -22.2811  -42.8468 O.2       9 UNK        -0.5000 
     27 CA         -0.7823  -20.0565  -41.9575 C.3       9 UNK         0.1400 
     28 CB         -0.3117  -20.0336  -40.4955 C.3       9 UNK        -0.1800 
     29 N          -0.4900  -18.7695  -42.5876 N.am      9 UNK        -0.5000 
     30 C          -0.9576  -18.3899  -43.7853 C.2       8 UNK         0.5000 
     31 O          -1.7362  -19.0660  -44.4566 O.2       8 UNK        -0.5000 
     32 CA         -0.4425  -17.0476  -44.3396 C.3       8 UNK         0.1400 
     33 CB         -1.2173  -15.8675  -43.7346 C.3       8 UNK        -0.1800 
     34 N           0.9912  -16.8538  -44.1231 N.am      8 UNK        -0.5000 
     35 C           1.9558  -17.6495  -44.6085 C.2       7 UNK         0.5000 
     36 O           1.7507  -18.6375  -45.3126 O.2       7 UNK        -0.5000 
     37 CA          3.3937  -17.3213  -44.1782 C.3       7 UNK         0.1400 
     38 CB          3.9614  -16.1542  -44.9994 C.3       7 UNK        -0.1800 
     39 N           3.4687  -17.0143  -42.7498 N.am      7 UNK        -0.5000 
     40 C           3.2817  -17.9177  -41.7764 C.2       6 UNK         0.5000 
     41 O           3.0625  -19.1111  -41.9825 O.2       6 UNK        -0.5000 
     42 CA          3.3017  -17.3898  -40.3307 C.3       6 UNK         0.1400 
     43 CB          4.7445  -17.2394  -39.8259 C.3       6 UNK        -0.1800 
     44 N           2.6007  -16.1131  -40.1901 N.am      6 UNK        -0.5000 
     45 C           1.2813  -15.9525  -40.3645 C.2       5 UNK         0.5000 
     46 O           0.5102  -16.8724  -40.6320 O.2       5 UNK        -0.5000 
     47 CA          0.7380  -14.5160  -40.2645 C.3       5 UNK         0.1400 
     48 CB          0.3927  -14.1699  -38.8087 C.3       5 UNK        -0.1800 
     49 N           1.6515  -13.5040  -40.8005 N.am      5 UNK        -0.5000 
     50 C           2.0729  -13.4481  -42.0707 C.2       4 UNK         0.5000 
     51 O           1.7782  -14.2836  -42.9274 O.2       4 UNK        -0.5000 
     52 CA          2.9768  -12.2587  -42.4394 C.3       4 UNK         0.1400 
     53 CB          4.2438  -12.7238  -43.1749 C.3       4 UNK        -0.1800 
     54 N           2.2671  -11.2959  -43.2760 N.am      4 UNK        -0.5000 
     55 C           1.2290  -10.5442  -42.8863 C.2       3 UNK         0.5000 
     56 O           0.7827  -10.5325  -41.7384 O.2       3 UNK        -0.5000 
     57 CA          0.5824   -9.6492  -43.9574 C.3       3 UNK         0.1400 
     58 CB          1.3163   -8.3026  -44.0544 C.3       3 UNK        -0.1800 
     59 N           0.5587  -10.2853  -45.2751 N.am      3 UNK        -0.5000 
     60 C          -0.3280  -11.2171  -45.6525 C.2       2 UNK         0.5000 
     61 O          -1.2295  -11.6343  -44.9248 O.2       2 UNK        -0.5000 
     62 CA         -0.2100  -11.7586  -47.0911 C.3       2 UNK         0.1400 
     63 CB         -1.1964  -11.0341  -48.0200 C.3       2 UNK        -0.1800 
     64 N           1.1400  -11.6282  -47.6425 N.am      2 UNK        -0.5000 
     65 C           2.1435  -12.4719  -47.3649 C.2       1 UNK         0.5000 
     66 O           2.0254  -13.4511  -46.6290 O.2       1 UNK        -0.5000 
     67 C          -1.1457  -21.8503  -47.4924 C.2       11 UNK         0.5000 
     68 O          -1.5946  -22.2477  -48.5669 O.2       11 UNK        -0.5000 
     69 N          -1.8466  -21.8570  -46.3486 N.am      12 UNK        -0.5000 
     70 CA         -3.2039  -22.3818  -46.1888 C.3       12 UNK         0.1400 
     71 CB         -3.7886  -21.8725  -44.8629 C.3       12 UNK        -0.1800 
     72 C          -3.2960  -23.9206  -46.2680 C.2       12 UNK         0.5000 
     73 O          -4.4098  -24.4457  -46.3261 O.2       12 UNK        -0.5000 
     74 N          -2.1504  -24.6188  -46.2806 N.am      13 UNK        -0.5000 
     75 CA         -2.0325  -26.0695  -46.4399 C.3       13 UNK         0.1400 
     76 CB         -0.5447  -26.4485  -46.4565 C.3       13 UNK        -0.1800 
     77 C          -2.7347  -26.6010  -47.7063 C.2       13 UNK         0.5000 
     78 O          -2.7324  -25.9317  -48.7437 O.2       13 UNK        -0.5000 
     79 N          -3.3357  -27.7933  -47.5816 N.am      14 UNK        -0.5000 
     80 CA         -4.1392  -28.4814  -48.6009 C.3       14 UNK         0.1400 
     81 CB         -3.2457  -28.9634  -49.7635 C.3       14 UNK        -0.1800 
     82 C          -5.3457  -27.6415  -49.0749 C.2       14 UNK         0.5000 
     83 O          -5.6505  -27.6200  -50.2681 O.2       14 UNK        -0.5000 
     84 N          -5.9832  -26.9364  -48.1262 N.am      15 UNK        -0.5000 
     85 CA         -7.0835  -25.9846  -48.3204 C.3       15 UNK         0.1400 
     86 CB         -8.3672  -26.7167  -48.7659 C.3       15 UNK        -0.1800 
     87 C          -6.6845  -24.8364  -49.2691 C.2       15 UNK         0.5000 
     88 O          -7.3703  -24.5825  -50.2583 O.2       15 UNK        -0.5000 
     89 N          -5.5446  -24.2013  -48.9664 N.am      16 UNK        -0.5000 
     90 CA         -4.8673  -23.1668  -49.7554 C.3       16 UNK         0.1400 
     91 CB         -5.6740  -21.8526  -49.7466 C.3       16 UNK        -0.1800 
     92 C          -4.5069  -23.6498  -51.1744 C.2       16 UNK         0.5000 
     93 O          -4.7856  -22.9572  -52.1563 O.2       16 UNK        -0.5000 
     94 N          -3.9194  -24.8537  -51.2458 N.am      17 UNK        -0.5000 
     95 CA         -3.5668  -25.5905  -52.4632 C.3       17 UNK         0.1400 
     96 CB         -2.3892  -24.9018  -53.1844 C.3       17 UNK        -0.1800 
     97 C          -4.7884  -25.8193  -53.3791 C.2       17 UNK         0.5000 
     98 O          -4.7690  -25.4311  -54.5475 O.2       17 UNK        -0.5000 
     99 N          -5.8456  -26.4141  -52.8078 N.am      18 UNK        -0.5000 
    100 CA        -7.1552  -26.6708  -53.4174 C.3       18 UNK         0.1400 
    101 CB        -7.0419  -27.7354  -54.5284 C.3       18 UNK        -0.1800 
    102 C         -7.8557  -25.3750  -53.8812 C.2       18 UNK         0.5000 
    103 O         -8.3556  -25.3004  -55.0052 O.2       18 UNK        -0.5000 
    104 N         -7.8584  -24.3739  -52.9906 N.am      19 UNK        -0.5000 
    105 CA        -8.4357  -23.0340  -53.1252 C.3       19 UNK         0.1400 
    106 CB        -9.9708  -23.1132  -53.2587 C.3       19 UNK        -0.1800 
    107 C         -7.7874  -22.1588  -54.2191 C.2       19 UNK         0.5000 
    108 O         -8.3927  -21.1700  -54.6375 O.2       19 UNK        -0.5000 
    109 N         -6.5719  -22.5116  -54.6589 N.am      20 UNK        -0.5000 
    110 CA        -5.8069  -21.7488  -55.6429 C.3       20 UNK         0.1400 
    111 CB        -4.7248  -22.6425  -56.2661 C.3       20 UNK        -0.1800 
    112 C         -5.1747  -20.4898  -55.0292 C.2       20 UNK         0.5000 
    113 O         -5.2062  -19.4315  -55.6590 O.2       20 UNK        -0.5000 
    114 N         -4.5933  -20.6354  -53.8264 N.am      21 UNK        -0.5000 
    115 CA        -3.9213  -19.6019  -53.0240 C.3       21 UNK         0.1400 
    116 CB        -4.9757  -18.6747  -52.3869 C.3       21 UNK        -0.1800 
    117 C         -2.8222  -18.8146  -53.7799 C.2       21 UNK         0.5000 
    118 O         -2.5892  -17.6433  -53.4781 O.2       21 UNK        -0.5000 
    119 N         -2.1940  -19.4669  -54.7691 N.am      22 UNK        -0.5000 
    120 CA        -1.2451  -18.8897  -55.7406 C.3       22 UNK         0.1400 
    121 C         -1.8637  -17.8284  -56.7055 C.2       22 UNK         0.5000 
    122 N         -3.1806  -17.7472  -56.8563 N.am      22 UNK        -0.7600 
    123 O         -1.1399  -17.0835  -57.3616 O.2       22 UNK        -0.5000 
    124 C124        0.0832  -18.4051  -55.0949 C.3       23 UNK        -0.0398 
    125 S125        0.9537  -19.7448  -54.2152 S.3       23 UNK        -0.2404 
    126 C126        2.1317  -18.7903  -53.2023 C.3       23 UNK        -0.0205 
    127 H127        3.5090   -7.8950  -46.5702 H         1 UNK         0.0600 
    128 H128        4.5724   -8.2680  -47.9302 H         1 UNK         0.0600 
    129 H129        5.2002   -8.3155  -46.2807 H         1 UNK         0.0600 
    130 H130        4.0542  -10.2545  -48.7724 H         1 UNK         0.3000 
    131 H131        4.2687  -12.6768  -47.4005 H         1 UNK         0.0600 
    132 H132        2.9482  -12.0687  -50.0941 H         1 UNK         0.0800 
    133 H133        4.6365  -12.3832  -49.8333 H         1 UNK         0.0800 
    134 H134        1.1135  -13.8129  -50.1776 H         1 UNK         0.0800 
    135 H135        2.0594  -13.9184  -51.6454 H         1 UNK         0.0800 
    136 H136        2.7287  -16.2184  -52.5300 H         1 UNK         0.1150 
    137 H137        0.0831  -19.4298  -51.4936 H         1 UNK         0.1150 
    138 H138       -0.1043  -15.7247  -49.3519 H         1 UNK         0.1150 
    139 H139       -2.0256  -17.4475  -49.3339 H         1 UNK         0.0800 
    140 H140       -1.7112  -19.0624  -49.9196 H         1 UNK         0.0800 
    141 H141        1.5513  -19.6813  -48.1055 H         1 UNK         0.0800 
    142 H142        0.4292  -20.2645  -49.2909 H         1 UNK         0.0800 
    143 H143        0.9003  -22.1004  -47.9506 H         1 UNK         0.0600 
    144 H144        1.0415  -20.3307  -45.7094 H         1 UNK         0.3000 
    145 H145        1.7732  -23.0182  -43.4017 H         1 UNK         0.0600 
    146 H146        3.7580  -21.5857  -43.1042 H         1 UNK         0.0600 
    147 H147        3.8543  -22.4178  -44.6481 H         1 UNK         0.0600 
    148 H148        3.4048  -20.7178  -44.5962 H         1 UNK         0.0600 
    149 H149        1.5707  -20.2017  -43.0061 H         1 UNK         0.3000 
    150 H150       -1.8653  -20.1962  -41.9629 H         1 UNK         0.0600 
    151 H151       -0.5198  -20.9837  -40.0020 H         1 UNK         0.0600 
    152 H152       -0.8234  -19.2548  -39.9299 H         1 UNK         0.0600 
    153 H153        0.7609  -19.8509  -40.4208 H         1 UNK         0.0600 
    154 H154        0.0928  -18.1263  -42.0598 H         1 UNK         0.3000 
    155 H155       -0.6135  -17.0407  -45.4163 H         1 UNK         0.0600 
    156 H156       -2.2848  -15.9576  -43.9386 H         1 UNK         0.0600 
    157 H157       -0.8834  -14.9181  -44.1549 H         1 UNK         0.0600 
    158 H158       -1.0931  -15.8170  -42.6533 H         1 UNK         0.0600 
    159 H159        1.2641  -16.0360  -43.5847 H         1 UNK         0.3000 
    160 H160        4.0128  -18.2005  -44.3691 H         1 UNK         0.0600 
    161 H161        3.3527  -15.2563  -44.8965 H         1 UNK         0.0600 
    162 H162        3.9876  -16.4044  -46.0607 H         1 UNK         0.0600 
    163 H163        4.9792  -15.9102  -44.6954 H         1 UNK         0.0600 
    164 H164        3.5769  -16.0431  -42.4990 H         1 UNK         0.3000 
    165 H165        2.7952  -18.1251  -39.7017 H         1 UNK         0.0600 
    166 H166        4.7662  -16.9423  -38.7773 H         1 UNK         0.0600 
    167 H167        5.2857  -18.1831  -39.9064 H         1 UNK         0.0600 
    168 H168        5.2979  -16.4937  -40.3981 H         1 UNK         0.0600 
    169 H169        3.1603  -15.3020  -39.9723 H         1 UNK         0.3000 
    170 H170       -0.1818  -14.4707  -40.8506 H         1 UNK         0.0600 
    171 H171       -0.3048  -14.8966  -38.3897 H         1 UNK         0.0600 
    172 H172        1.2798  -14.1625  -38.1742 H         1 UNK         0.0600 
    173 H173       -0.0800  -13.1901  -38.7377 H         1 UNK         0.0600 
    174 H174        1.9139  -12.7597  -40.1704 H         1 UNK         0.3000 
    175 H175        3.2878  -11.7532  -41.5229 H         1 UNK         0.0600 
    176 H176        4.0103  -13.1254  -44.1613 H         1 UNK         0.0600 
    177 H177        4.9401  -11.8967  -43.3145 H         1 UNK         0.0600 
    178 H178        4.7660  -13.4996  -42.6138 H         1 UNK         0.0600 
    179 H179        2.6025  -11.2002  -44.2298 H         1 UNK         0.3000 
    180 H180       -0.4458   -9.4485  -43.6482 H         1 UNK         0.0600 
    181 H181        2.3622   -8.4305  -44.3343 H         1 UNK         0.0600 
    182 H182        1.2969   -7.7805  -43.0970 H         1 UNK         0.0600 
    183 H183        0.8481   -7.6488  -44.7903 H         1 UNK         0.0600 
    184 H184        1.2974  -10.0343  -45.9147 H         1 UNK         0.3000 
    185 H185       -0.4835  -12.8159  -47.0685 H         1 UNK         0.0600 
    186 H186       -2.2199  -11.1329  -47.6561 H         1 UNK         0.0600 
    187 H187       -0.9749   -9.9686  -48.0915 H         1 UNK         0.0600 
    188 H188       -1.1693  -11.4521  -49.0266 H         1 UNK         0.0600 
    189 H189        1.3156  -10.8378  -48.2457 H         1 UNK         0.3000 
    190 H190       -1.4084  -21.4782  -45.5198 H         1 UNK         0.3000 
    191 H191       -3.8161  -21.9811  -46.9987 H         1 UNK         0.0600 
    192 H192       -3.8019  -20.7832  -44.8297 H         1 UNK         0.0600 
    193 H193       -4.8175  -22.2101  -44.7321 H         1 UNK         0.0600 
    194 H194       -3.2161  -22.2290  -44.0068 H         1 UNK         0.0600 
    195 H195       -1.2811  -24.1049  -46.2327 H         1 UNK         0.3000 
    196 H196       -2.4984  -26.5279  -45.5656 H         1 UNK         0.0600 
    197 H197       -0.4136  -27.5262  -46.5621 H         1 UNK         0.0600 
    198 H198       -0.0513  -26.1510  -45.5309 H         1 UNK         0.0600 
    199 H199       -0.0193  -25.9698  -47.2841 H         1 UNK         0.0600 
    200 H200       -3.2781  -28.2657  -46.6897 H         1 UNK         0.3000 
    201 H201       -4.5591  -29.3665  -48.1209 H         1 UNK         0.0600 
    202 H202       -2.4290  -29.5861  -49.3986 H         1 UNK         0.0600 
    203 H203       -2.8091  -28.1303  -50.3137 H         1 UNK         0.0600 
    204 H204       -3.8157  -29.5626  -50.4745 H         1 UNK         0.0600 
    205 H205       -5.6257  -26.9950  -47.1829 H         1 UNK         0.3000 
    206 H206       -7.2803  -25.5292  -47.3487 H         1 UNK         0.0600 
    207 H207       -8.6342  -27.5061  -48.0634 H         1 UNK         0.0600 
    208 H208       -9.2106  -26.0271  -48.8153 H         1 UNK         0.0600 
    209 H209       -8.2585  -27.1686  -49.7523 H         1 UNK         0.0600 
    210 H210       -5.0624  -24.4884  -48.1191 H         1 UNK         0.3000 
    211 H211       -3.9205  -22.9765  -49.2551 H         1 UNK         0.0600 
    212 H212       -6.6202  -21.9525  -50.2788 H         1 UNK         0.0600 
    213 H213       -5.1117  -21.0504  -50.2250 H         1 UNK         0.0600 
    214 H214       -5.8933  -21.5316  -48.7285 H         1 UNK         0.0600 
    215 H215       -3.6995  -25.3227  -50.3712 H         1 UNK         0.3000 
    216 H216       -3.2293  -26.5772  -52.1447 H         1 UNK         0.0600 
    217 H217       -2.0645  -25.4859  -54.0462 H         1 UNK         0.0600 
    218 H218       -1.5307  -24.7965  -52.5212 H         1 UNK         0.0600 
    219 H219       -2.6563  -23.9081  -53.5451 H         1 UNK         0.0600 
    220 H220       -5.7593  -26.7137  -51.8372 H         1 UNK         0.3000 
    221 H221       -7.7798  -27.0875  -52.6259 H         1 UNK         0.0600 
    222 H222       -6.4609  -27.3764  -55.3783 H         1 UNK         0.0600 
    223 H223       -6.5667  -28.6430  -54.1562 H         1 UNK         0.0600 
    224 H224       -8.0276  -28.0153  -54.9016 H         1 UNK         0.0600 
    225 H225       -7.4509  -24.5530  -52.0739 H         1 UNK         0.3000 
    226 H226       -8.2179  -22.5298  -52.1829 H         1 UNK         0.0600 
    227 H227      -10.4043  -23.7181  -52.4622 H         1 UNK         0.0600 
    228 H228      -10.4228  -22.1229  -53.1925 H         1 UNK         0.0600 
    229 H229      -10.2725  -23.5463  -54.2127 H         1 UNK         0.0600 
    230 H230       -6.1220  -23.3210  -54.2505 H         1 UNK         0.3000 
    231 H231       -6.4813  -21.4332  -56.4419 H         1 UNK         0.0600 
    232 H232       -4.0054  -22.9850  -55.5215 H         1 UNK         0.0600 
    233 H233       -4.1702  -22.1052  -57.0364 H         1 UNK         0.0600 
    234 H234       -5.1640  -23.5234  -56.7349 H         1 UNK         0.0600 
    235 H235       -4.6496  -21.5496  -53.3803 H         1 UNK         0.3000 
    236 H236       -3.4125  -20.1294  -52.2160 H         1 UNK         0.0600 
    237 H237       -5.7342  -19.2471  -51.8530 H         1 UNK         0.0600 
    238 H238       -4.5187  -17.9936  -51.6680 H         1 UNK         0.0600 
    239 H239       -5.4827  -18.0692  -53.1390 H         1 UNK         0.0600 
    240 H240       -2.4576  -20.4261  -54.9374 H         1 UNK         0.3000 
    241 H241       -0.9861  -19.7171  -56.4020 H         1 UNK         0.0600 
    242 H242       -3.8134  -18.3569  -56.3443 H         1 UNK         0.3800 
    243 H243       -3.5608  -17.0643  -57.4919 H         1 UNK         0.3800 
    244 H244        0.7670  -18.0235  -55.8547 H         1 UNK         0.0800 
    245 H245       -0.1065  -17.5758  -54.4126 H         1 UNK         0.0800 
    246 H246        2.8063  -19.4870  -52.7036 H         1 UNK         0.0800 
    247 H247        2.7500  -18.1848  -53.8669 H         1 UNK         0.0800 
@<TRIPOS>BOND
     1    1    2 1    
     2    1  127 1    
     3    1  128 1    
     4    1  129 1    
     5    2    3 2    
     6    2    4 am   BACKBONE|DICT|INTERRES
     7    4    5 1    
     8    4  130 1    
     9    5    6 1    
    10    5   65 1    
    11    5  131 1    
    12    6    7 1    
    13    6  132 1    
    14    6  133 1    
    15    7    8 1    
    16    8    9 1    
    17    8  134 1    
    18    8  135 1    
    19    9   10 ar   
    20    9   14 ar   
    21   10   11 ar   
    22   10  136 1    
    23   11   12 ar   
    24   11  126 1    
    25   12   13 ar   
    26   12  137 1    
    27   13   14 ar   
    28   13   15 1    
    29   14  138 1    
    30   15   16 1    
    31   15  139 1    
    32   15  140 1    
    33   16   17 1    
    34   17   18 1    
    35   17  141 1    
    36   17  142 1    
    37   18   19 1    
    38   18   67 1    
    39   18  143 1    
    40   19   20 am   BACKBONE|DICT|INTERRES
    41   19  144 1    
    42   20   21 2    
    43   20   22 1    
    44   22   23 1    
    45   22   24 1    
    46   22  145 1    
    47   23  146 1    
    48   23  147 1    
    49   23  148 1    
    50   24   25 am   BACKBONE|DICT|INTERRES
    51   24  149 1    
    52   25   26 2    
    53   25   27 1    
    54   27   28 1    
    55   27   29 1    
    56   27  150 1    
    57   28  151 1    
    58   28  152 1    
    59   28  153 1    
    60   29   30 am   BACKBONE|DICT|INTERRES
    61   29  154 1    
    62   30   31 2    
    63   30   32 1    
    64   32   33 1    
    65   32   34 1    
    66   32  155 1    
    67   33  156 1    
    68   33  157 1    
    69   33  158 1    
    70   34   35 am   BACKBONE|DICT|INTERRES
    71   34  159 1    
    72   35   36 2    
    73   35   37 1    
    74   37   38 1    
    75   37   39 1    
    76   37  160 1    
    77   38  161 1    
    78   38  162 1    
    79   38  163 1    
    80   39   40 am   BACKBONE|DICT|INTERRES
    81   39  164 1    
    82   40   41 2    
    83   40   42 1    
    84   42   43 1    
    85   42   44 1    
    86   42  165 1    
    87   43  166 1    
    88   43  167 1    
    89   43  168 1    
    90   44   45 am   BACKBONE|DICT|INTERRES
    91   44  169 1    
    92   45   46 2    
    93   45   47 1    
    94   47   48 1    
    95   47   49 1    
    96   47  170 1    
    97   48  171 1    
    98   48  172 1    
    99   48  173 1    
   100   49   50 am   BACKBONE|DICT|INTERRES
   101   49  174 1    
   102   50   51 2    
   103   50   52 1    
   104   52   53 1    
   105   52   54 1    
   106   52  175 1    
   107   53  176 1    
   108   53  177 1    
   109   53  178 1    
   110   54   55 am   BACKBONE|DICT|INTERRES
   111   54  179 1    
   112   55   56 2    
   113   55   57 1    
   114   57   58 1    
   115   57   59 1    
   116   57  180 1    
   117   58  181 1    
   118   58  182 1    
   119   58  183 1    
   120   59   60 am   BACKBONE|DICT|INTERRES
   121   59  184 1    
   122   60   61 2    
   123   60   62 1    
   124   62   63 1    
   125   62   64 1    
   126   62  185 1    
   127   63  186 1    
   128   63  187 1    
   129   63  188 1    
   130   64   65 am   BACKBONE|DICT|INTERRES
   131   64  189 1    
   132   65   66 2    
   133   67   68 2    
   134   67   69 am   BACKBONE|DICT|INTERRES
   135   69   70 1    
   136   69  190 1    
   137   70   71 1    
   138   70   72 1    
   139   70  191 1    
   140   71  192 1    
   141   71  193 1    
   142   71  194 1    
   143   72   73 2    
   144   72   74 am   BACKBONE|DICT|INTERRES
   145   74   75 1    
   146   74  195 1    
   147   75   76 1    
   148   75   77 1    
   149   75  196 1    
   150   76  197 1    
   151   76  198 1    
   152   76  199 1    
   153   77   78 2    
   154   77   79 am   BACKBONE|DICT|INTERRES
   155   79   80 1    
   156   79  200 1    
   157   80   81 1    
   158   80   82 1    
   159   80  201 1    
   160   81  202 1    
   161   81  203 1    
   162   81  204 1    
   163   82   83 2    
   164   82   84 am   BACKBONE|DICT|INTERRES
   165   84   85 1    
   166   84  205 1    
   167   85   86 1    
   168   85   87 1    
   169   85  206 1    
   170   86  207 1    
   171   86  208 1    
   172   86  209 1    
   173   87   88 2    
   174   87   89 am   BACKBONE|DICT|INTERRES
   175   89   90 1    
   176   89  210 1    
   177   90   91 1    
   178   90   92 1    
   179   90  211 1    
   180   91  212 1    
   181   91  213 1    
   182   91  214 1    
   183   92   93 2    
   184   92   94 am   BACKBONE|DICT|INTERRES
   185   94   95 1    
   186   94  215 1    
   187   95   96 1    
   188   95   97 1    
   189   95  216 1    
   190   96  217 1    
   191   96  218 1    
   192   96  219 1    
   193   97   98 2    
   194   97   99 am   BACKBONE|DICT|INTERRES
   195   99  100 1    
   196   99  220 1    
   197  100  101 1    
   198  100  102 1    
   199  100  221 1    
   200  101  222 1    
   201  101  223 1    
   202  101  224 1    
   203  102  103 2    
   204  102  104 am   BACKBONE|DICT|INTERRES
   205  104  105 1    
   206  104  225 1    
   207  105  106 1    
   208  105  107 1    
   209  105  226 1    
   210  106  227 1    
   211  106  228 1    
   212  106  229 1    
   213  107  108 2    
   214  107  109 am   BACKBONE|DICT|INTERRES
   215  109  110 1    
   216  109  230 1    
   217  110  111 1    
   218  110  112 1    
   219  110  231 1    
   220  111  232 1    
   221  111  233 1    
   222  111  234 1    
   223  112  113 2    
   224  112  114 am   BACKBONE|DICT|INTERRES
   225  114  115 1    
   226  114  235 1    
   227  115  116 1    
   228  115  117 1    
   229  115  236 1    
   230  116  237 1    
   231  116  238 1    
   232  116  239 1    
   233  117  118 2    
   234  117  119 am   BACKBONE|DICT|INTERRES
   235  119  120 1    
   236  119  240 1    
   237  120  121 1    
   238  120  124 1    
   239  120  241 1    
   240  121  122 am   BACKBONE|DICT|INTERRES
   241  121  123 2    
   242  122  242 1    
   243  122  243 1    
   244  124  125 1    
   245  124  244 1    
   246  124  245 1    
   247  125  126 1    
   248  126  246 1    
   249  126  247 1    
@<TRIPOS>SUBSTRUCTURE
     1 UNK         1 GROUP             0       ****    0 ROOT    
