@<TRIPOS>MOLECULE
3R540
247   249    1
SMALL
USER_CHARGES


@<TRIPOS>ATOM
      1 CA          5.3127  -11.1954  -48.4905 C.3       0 UNK        -0.1800 
      2 C           4.1237  -11.8488  -47.8019 C.2       0 UNK         0.5000 
      3 O           3.8068  -11.5021  -46.6642 O.2       0 UNK        -0.5000 
      4 N           3.4505  -12.7807  -48.4912 N.am      1 UNK        -0.5000 
      5 CA          2.3116  -13.5629  -47.9832 C.3       1 UNK         0.1400 
      6 C6          1.8839  -14.6814  -48.9631 C.3       23 UNK        -0.0398 
      7 S7          3.2468  -15.8278  -49.3647 S.3       23 UNK        -0.2404 
      8 C8          2.6785  -16.5158  -50.9526 C.3       23 UNK        -0.0205 
      9 C9          1.6389  -17.6082  -50.7515 C.ar      23 UNK        -0.0193 
     10 C10         0.2900  -17.2809  -50.5837 C.ar      23 UNK        -0.1150 
     11 C11        -0.6700  -18.2773  -50.3821 C.ar      23 UNK        -0.0193 
     12 C12        -0.2585  -19.6154  -50.3446 C.ar      23 UNK        -0.1150 
     13 C13         1.0802  -19.9605  -50.5476 C.ar      23 UNK        -0.0193 
     14 C14         2.0255  -18.9511  -50.7456 C.ar      23 UNK        -0.1150 
     15 C15         1.4912  -21.4265  -50.5864 C.3       23 UNK        -0.0205 
     16 S16         2.7082  -21.8804  -49.3061 S.3       23 UNK        -0.2404 
     17 C17         1.8994  -21.3517  -47.7591 C.3       23 UNK        -0.0398 
     18 CA          1.0164  -22.4503  -47.1168 C.3       11 UNK         0.1400 
     19 N           0.9544  -22.3230  -45.6580 N.am      11 UNK        -0.5000 
     20 C           0.3669  -23.2014  -44.8324 C.2       10 UNK         0.5000 
     21 O          -0.1346  -24.2618  -45.2049 O.2       10 UNK        -0.5000 
     22 CA          0.2766  -22.8049  -43.3474 C.3       10 UNK         0.1400 
     23 CB          1.5887  -23.1200  -42.6145 C.3       10 UNK        -0.1800 
     24 N          -0.0691  -21.3939  -43.1648 N.am      10 UNK        -0.5000 
     25 C          -1.2307  -20.8445  -43.5496 C.2       9 UNK         0.5000 
     26 O          -2.1593  -21.4876  -44.0380 O.2       9 UNK        -0.5000 
     27 CA         -1.3574  -19.3152  -43.4211 C.3       9 UNK         0.1400 
     28 CB         -1.6984  -18.9078  -41.9804 C.3       9 UNK        -0.1800 
     29 N          -0.1492  -18.6154  -43.8567 N.am      9 UNK        -0.5000 
     30 C           0.3420  -18.6427  -45.1033 C.2       8 UNK         0.5000 
     31 O          -0.2033  -19.2212  -46.0416 O.2       8 UNK        -0.5000 
     32 CA          1.7010  -17.9591  -45.3248 C.3       8 UNK         0.1400 
     33 CB          1.5339  -16.4453  -45.5209 C.3       8 UNK        -0.1800 
     34 N           2.6271  -18.2170  -44.2213 N.am      8 UNK        -0.5000 
     35 C           3.1733  -19.4124  -43.9570 C.2       7 UNK         0.5000 
     36 O           2.9743  -20.4182  -44.6366 O.2       7 UNK        -0.5000 
     37 CA          4.0562  -19.5095  -42.6994 C.3       7 UNK         0.1400 
     38 CB          5.4748  -18.9985  -42.9916 C.3       7 UNK        -0.1800 
     39 N           3.4984  -18.7733  -41.5646 N.am      7 UNK        -0.5000 
     40 C           2.3627  -19.1031  -40.9331 C.2       6 UNK         0.5000 
     41 O           1.6879  -20.0931  -41.2132 O.2       6 UNK        -0.5000 
     42 CA          1.8706  -18.1316  -39.8423 C.3       6 UNK         0.1400 
     43 CB          2.5069  -18.4746  -38.4873 C.3       6 UNK        -0.1800 
     44 N           2.1214  -16.7199  -40.1555 N.am      6 UNK        -0.5000 
     45 C           1.6487  -16.0860  -41.2369 C.2       5 UNK         0.5000 
     46 O           0.9745  -16.6410  -42.1074 O.2       5 UNK        -0.5000 
     47 CA          2.0509  -14.6077  -41.3995 C.3       5 UNK         0.1400 
     48 CB          3.4950  -14.5040  -41.9166 C.3       5 UNK        -0.1800 
     49 N           1.1782  -13.8981  -42.3340 N.am      5 UNK        -0.5000 
     50 C          -0.1197  -13.6322  -42.1356 C.2       4 UNK         0.5000 
     51 O          -0.7176  -13.8785  -41.0857 O.2       4 UNK        -0.5000 
     52 CA         -0.8530  -12.9713  -43.3216 C.3       4 UNK         0.1400 
     53 CB         -2.2544  -12.4390  -42.9556 C.3       4 UNK        -0.1800 
     54 N          -0.0509  -11.9308  -43.9757 N.am      4 UNK        -0.5000 
     55 C           0.4033  -10.7894  -43.4291 C.2       3 UNK         0.5000 
     56 O           0.1989  -10.4595  -42.2603 O.2       3 UNK        -0.5000 
     57 CA          1.2351   -9.8502  -44.3298 C.3       3 UNK         0.1400 
     58 CB          2.7197   -9.9167  -43.9389 C.3       3 UNK        -0.1800 
     59 N           1.1066  -10.1439  -45.7588 N.am      3 UNK        -0.5000 
     60 C          -0.0015   -9.9315  -46.4859 C.2       2 UNK         0.5000 
     61 O          -0.9975   -9.3540  -46.0488 O.2       2 UNK        -0.5000 
     62 CA         -0.0249  -10.4765  -47.9305 C.3       2 UNK         0.1400 
     63 CB          0.1485   -9.3307  -48.9394 C.3       2 UNK        -0.1800 
     64 N           0.9839  -11.5027  -48.2082 N.am      2 UNK        -0.5000 
     65 C           1.0921  -12.6944  -47.6013 C.2       1 UNK         0.5000 
     66 O           0.3091  -13.0932  -46.7381 O.2       1 UNK        -0.5000 
     67 C          -0.3935  -22.4774  -47.7411 C.2       11 UNK         0.5000 
     68 O          -0.6914  -23.3746  -48.5288 O.2       11 UNK        -0.5000 
     69 N          -1.2484  -21.5245  -47.3415 N.am      12 UNK        -0.5000 
     70 CA         -2.6459  -21.4260  -47.7609 C.3       12 UNK         0.1400 
     71 CB         -3.2724  -20.1469  -47.1883 C.3       12 UNK        -0.1800 
     72 C          -3.4725  -22.6602  -47.3675 C.2       12 UNK         0.5000 
     73 O          -4.2379  -23.1549  -48.1931 O.2       12 UNK        -0.5000 
     74 N          -3.2752  -23.1594  -46.1393 N.am      13 UNK        -0.5000 
     75 CA         -3.8973  -24.3818  -45.6317 C.3       13 UNK         0.1400 
     76 CB         -3.5964  -24.5359  -44.1334 C.3       13 UNK        -0.1800 
     77 C          -3.4663  -25.6358  -46.4140 C.2       13 UNK         0.5000 
     78 O          -4.3241  -26.4373  -46.7847 O.2       13 UNK        -0.5000 
     79 N          -2.1603  -25.7625  -46.6913 N.am      14 UNK        -0.5000 
     80 CA         -1.5782  -26.8458  -47.4890 C.3       14 UNK         0.1400 
     81 CB         -0.0456  -26.7735  -47.4115 C.3       14 UNK        -0.1800 
     82 C          -2.0517  -26.8350  -48.9555 C.2       14 UNK         0.5000 
     83 O          -2.3077  -27.8976  -49.5224 O.2       14 UNK        -0.5000 
     84 N          -2.1930  -25.6329  -49.5278 N.am      15 UNK        -0.5000 
     85 CA         -2.7269  -25.3909  -50.8689 C.3       15 UNK         0.1400 
     86 CB         -2.2963  -23.9825  -51.3107 C.3       15 UNK        -0.1800 
     87 C          -4.2613  -25.5252  -50.9622 C.2       15 UNK         0.5000 
     88 O          -4.7981  -25.4817  -52.0712 O.2       15 UNK        -0.5000 
     89 N          -4.9421  -25.6200  -49.8079 N.am      16 UNK        -0.5000 
     90 CA         -6.3982  -25.5727  -49.6226 C.3       16 UNK         0.1400 
     91 CB         -7.0517  -26.8618  -50.1602 C.3       16 UNK        -0.1800 
     92 C          -7.0199  -24.2894  -50.2175 C.2       16 UNK         0.5000 
     93 O          -8.1127  -24.3318  -50.7862 O.2       16 UNK        -0.5000 
     94 N          -6.2617  -23.1859  -50.1327 N.am      17 UNK        -0.5000 
     95 CA         -6.4110  -21.8781  -50.7784 C.3       17 UNK         0.1400 
     96 CB         -7.6760  -21.1518  -50.2874 C.3       17 UNK        -0.1800 
     97 C          -6.3534  -21.9084  -52.3201 C.2       17 UNK         0.5000 
     98 O          -5.6874  -21.0621  -52.9160 O.2       17 UNK        -0.5000 
     99 N          -7.0591  -22.8613  -52.9369 N.am      18 UNK        -0.5000 
    100 CA        -7.2931  -22.9797  -54.3724 C.3       18 UNK         0.1400 
    101 CB        -8.2971  -24.1153  -54.6214 C.3       18 UNK        -0.1800 
    102 C         -6.0263  -23.1887  -55.2174 C.2       18 UNK         0.5000 
    103 O         -5.9128  -22.5703  -56.2762 O.2       18 UNK        -0.5000 
    104 N         -5.0968  -24.0395  -54.7551 N.am      19 UNK        -0.5000 
    105 CA        -3.9059  -24.4189  -55.5271 C.3       19 UNK         0.1400 
    106 CB        -3.2673  -25.6773  -54.9207 C.3       19 UNK        -0.1800 
    107 C         -2.8654  -23.2900  -55.6574 C.2       19 UNK         0.5000 
    108 O         -2.0954  -23.2881  -56.6185 O.2       19 UNK        -0.5000 
    109 N         -2.8701  -22.3535  -54.7013 N.am      20 UNK        -0.5000 
    110 CA        -2.0004  -21.1761  -54.6729 C.3       20 UNK         0.1400 
    111 CB        -1.3544  -21.0847  -53.2826 C.3       20 UNK        -0.1800 
    112 C         -2.7548  -19.8804  -55.0376 C.2       20 UNK         0.5000 
    113 O         -2.1259  -18.8243  -55.1139 O.2       20 UNK        -0.5000 
    114 N         -4.0726  -19.9846  -55.2735 N.am      21 UNK        -0.5000 
    115 CA        -5.0150  -18.9121  -55.6071 C.3       21 UNK         0.1400 
    116 CB        -4.7243  -18.3510  -57.0146 C.3       21 UNK        -0.1800 
    117 C         -5.0905  -17.8211  -54.5172 C.2       21 UNK         0.5000 
    118 O         -5.0323  -16.6283  -54.8235 O.2       21 UNK        -0.5000 
    119 N         -5.2111  -18.2575  -53.2573 N.am      22 UNK        -0.5000 
    120 CA        -5.2578  -17.3888  -52.0667 C.3       22 UNK         0.1400 
    121 C         -6.5950  -16.6134  -51.8758 C.2       22 UNK         0.5000 
    122 N         -7.6628  -16.9343  -52.5965 N.am      22 UNK        -0.7600 
    123 O         -6.6630  -15.6994  -51.0588 O.2       22 UNK        -0.5000 
    124 C124       -4.8879  -18.1476  -50.7649 C.3       23 UNK        -0.0398 
    125 S125       -3.3231  -19.0731  -50.8893 S.3       23 UNK        -0.2404 
    126 C126       -2.1331  -17.8755  -50.1977 C.3       23 UNK        -0.0205 
    127 H127        5.1535  -10.1202  -48.5726 H         1 UNK         0.0600 
    128 H128        5.4703  -11.5945  -49.4928 H         1 UNK         0.0600 
    129 H129        6.2199  -11.3638  -47.9103 H         1 UNK         0.0600 
    130 H130        3.7672  -13.0319  -49.4172 H         1 UNK         0.3000 
    131 H131        2.6493  -14.0373  -47.0605 H         1 UNK         0.0600 
    132 H132        1.0673  -15.2695  -48.5414 H         1 UNK         0.0800 
    133 H133        1.5023  -14.2429  -49.8868 H         1 UNK         0.0800 
    134 H134        2.2801  -15.7244  -51.5890 H         1 UNK         0.0800 
    135 H135        3.5418  -16.9200  -51.4834 H         1 UNK         0.0800 
    136 H136       -0.0130  -16.2439  -50.6070 H         1 UNK         0.1150 
    137 H137       -0.9848  -20.3980  -50.1854 H         1 UNK         0.1150 
    138 H138        3.0637  -19.2140  -50.8929 H         1 UNK         0.1150 
    139 H139        0.6203  -22.0769  -50.5004 H         1 UNK         0.0800 
    140 H140        1.9233  -21.6390  -51.5651 H         1 UNK         0.0800 
    141 H141        1.3574  -20.4158  -47.9003 H         1 UNK         0.0800 
    142 H142        2.7197  -21.1043  -47.0865 H         1 UNK         0.0800 
    143 H143        1.4781  -23.4203  -47.3138 H         1 UNK         0.0600 
    144 H144        1.3910  -21.4996  -45.2570 H         1 UNK         0.3000 
    145 H145       -0.5156  -23.4030  -42.8927 H         1 UNK         0.0600 
    146 H146        1.8551  -24.1718  -42.7257 H         1 UNK         0.0600 
    147 H147        2.4193  -22.5281  -42.9989 H         1 UNK         0.0600 
    148 H148        1.5011  -22.9179  -41.5469 H         1 UNK         0.0600 
    149 H149        0.6260  -20.8092  -42.7107 H         1 UNK         0.3000 
    150 H150       -2.1765  -18.9940  -44.0677 H         1 UNK         0.0600 
    151 H151       -1.8251  -17.8282  -41.8952 H         1 UNK         0.0600 
    152 H152       -0.9187  -19.2085  -41.2811 H         1 UNK         0.0600 
    153 H153       -2.6292  -19.3733  -41.6543 H         1 UNK         0.0600 
    154 H154        0.3400  -18.0634  -43.1563 H         1 UNK         0.3000 
    155 H155        2.1361  -18.3707  -46.2383 H         1 UNK         0.0600 
    156 H156        1.1009  -15.9626  -44.6452 H         1 UNK         0.0600 
    157 H157        0.8758  -16.2351  -46.3641 H         1 UNK         0.0600 
    158 H158        2.4935  -15.9719  -45.7257 H         1 UNK         0.0600 
    159 H159        2.7818  -17.4591  -43.5739 H         1 UNK         0.3000 
    160 H160        4.1237  -20.5633  -42.4207 H         1 UNK         0.0600 
    161 H161        5.9202  -19.5414  -43.8264 H         1 UNK         0.0600 
    162 H162        5.4783  -17.9387  -43.2498 H         1 UNK         0.0600 
    163 H163        6.1284  -19.1365  -42.1302 H         1 UNK         0.0600 
    164 H164        3.9906  -17.9438  -41.2685 H         1 UNK         0.3000 
    165 H165        0.7903  -18.2609  -39.7524 H         1 UNK         0.0600 
    166 H166        2.0941  -17.8568  -37.6896 H         1 UNK         0.0600 
    167 H167        2.3188  -19.5155  -38.2202 H         1 UNK         0.0600 
    168 H168        3.5878  -18.3292  -38.5007 H         1 UNK         0.0600 
    169 H169        2.6794  -16.2048  -39.4897 H         1 UNK         0.3000 
    170 H170        1.9824  -14.1189  -40.4255 H         1 UNK         0.0600 
    171 H171        3.8034  -13.4629  -42.0163 H         1 UNK         0.0600 
    172 H172        4.1964  -14.9822  -41.2319 H         1 UNK         0.0600 
    173 H173        3.6097  -14.9812  -42.8910 H         1 UNK         0.0600 
    174 H174        1.5774  -13.6625  -43.2297 H         1 UNK         0.3000 
    175 H175       -0.9886  -13.7583  -44.0651 H         1 UNK         0.0600 
    176 H176       -2.2109  -11.6830  -42.1713 H         1 UNK         0.0600 
    177 H177       -2.7452  -11.9955  -43.8221 H         1 UNK         0.0600 
    178 H178       -2.8959  -13.2447  -42.5970 H         1 UNK         0.0600 
    179 H179        0.1732  -12.1163  -44.9479 H         1 UNK         0.3000 
    180 H180        0.8818   -8.8314  -44.1577 H         1 UNK         0.0600 
    181 H181        2.8633   -9.6292  -42.8966 H         1 UNK         0.0600 
    182 H182        3.3206   -9.2411  -44.5480 H         1 UNK         0.0600 
    183 H183        3.1216  -10.9237  -44.0586 H         1 UNK         0.0600 
    184 H184        1.8944  -10.6134  -46.1914 H         1 UNK         0.3000 
    185 H185       -1.0063  -10.9281  -48.0879 H         1 UNK         0.0600 
    186 H186       -0.6069   -8.5582  -48.7891 H         1 UNK         0.0600 
    187 H187        1.1263   -8.8567  -48.8442 H         1 UNK         0.0600 
    188 H188        0.0453   -9.6874  -49.9644 H         1 UNK         0.0600 
    189 H189        1.6902  -11.2593  -48.8874 H         1 UNK         0.3000 
    190 H190       -0.9106  -20.7928  -46.7198 H         1 UNK         0.3000 
    191 H191       -2.6589  -21.3537  -48.8495 H         1 UNK         0.0600 
    192 H192       -3.3476  -20.1836  -46.1016 H         1 UNK         0.0600 
    193 H193       -4.2773  -19.9954  -47.5845 H         1 UNK         0.0600 
    194 H194       -2.6826  -19.2692  -47.4476 H         1 UNK         0.0600 
    195 H195       -2.6669  -22.6563  -45.4992 H         1 UNK         0.3000 
    196 H196       -4.9777  -24.2746  -45.7486 H         1 UNK         0.0600 
    197 H197       -4.0743  -25.4290  -43.7290 H         1 UNK         0.0600 
    198 H198       -3.9697  -23.6822  -43.5674 H         1 UNK         0.0600 
    199 H199       -2.5268  -24.6204  -43.9423 H         1 UNK         0.0600 
    200 H200       -1.5107  -25.0743  -46.3197 H         1 UNK         0.3000 
    201 H201       -1.8957  -27.7922  -47.0465 H         1 UNK         0.0600 
    202 H202        0.3009  -26.8643  -46.3819 H         1 UNK         0.0600 
    203 H203        0.3340  -25.8318  -47.8090 H         1 UNK         0.0600 
    204 H204        0.4139  -27.5812  -47.9824 H         1 UNK         0.0600 
    205 H205       -1.8842  -24.8124  -49.0122 H         1 UNK         0.3000 
    206 H206       -2.2909  -26.1185  -51.5561 H         1 UNK         0.0600 
    207 H207       -2.6585  -23.7545  -52.3116 H         1 UNK         0.0600 
    208 H208       -2.6860  -23.2145  -50.6417 H         1 UNK         0.0600 
    209 H209       -1.2104  -23.8891  -51.3297 H         1 UNK         0.0600 
    210 H210       -4.4028  -25.6206  -48.9518 H         1 UNK         0.3000 
    211 H211       -6.5718  -25.5300  -48.5466 H         1 UNK         0.0600 
    212 H212       -6.9604  -26.9402  -51.2441 H         1 UNK         0.0600 
    213 H213       -8.1145  -26.8923  -49.9179 H         1 UNK         0.0600 
    214 H214       -6.5934  -27.7474  -49.7200 H         1 UNK         0.0600 
    215 H215       -5.4109  -23.2773  -49.5792 H         1 UNK         0.3000 
    216 H216       -5.5478  -21.2979  -50.4496 H         1 UNK         0.0600 
    217 H217       -7.7525  -20.1571  -50.7281 H         1 UNK         0.0600 
    218 H218       -7.6614  -21.0282  -49.2045 H         1 UNK         0.0600 
    219 H219       -8.5853  -21.6922  -50.5510 H         1 UNK         0.0600 
    220 H220       -7.5607  -23.5136  -52.3389 H         1 UNK         0.3000 
    221 H221       -7.7523  -22.0453  -54.7018 H         1 UNK         0.0600 
    222 H222       -7.9168  -25.0726  -54.2622 H         1 UNK         0.0600 
    223 H223       -9.2440  -23.9216  -54.1170 H         1 UNK         0.0600 
    224 H224       -8.5121  -24.2236  -55.6854 H         1 UNK         0.0600 
    225 H225       -5.2327  -24.5005  -53.8602 H         1 UNK         0.3000 
    226 H226       -4.2335  -24.6728  -56.5376 H         1 UNK         0.0600 
    227 H227       -3.9954  -26.4821  -54.8173 H         1 UNK         0.0600 
    228 H228       -2.4613  -26.0473  -55.5554 H         1 UNK         0.0600 
    229 H229       -2.8404  -25.4814  -53.9386 H         1 UNK         0.0600 
    230 H230       -3.5534  -22.4280  -53.9607 H         1 UNK         0.3000 
    231 H231       -1.1954  -21.2779  -55.4034 H         1 UNK         0.0600 
    232 H232       -2.1039  -21.0983  -52.4929 H         1 UNK         0.0600 
    233 H233       -0.6778  -21.9214  -53.1098 H         1 UNK         0.0600 
    234 H234       -0.7710  -20.1696  -53.1733 H         1 UNK         0.0600 
    235 H235       -4.4886  -20.9007  -55.1816 H         1 UNK         0.3000 
    236 H236       -6.0014  -19.3771  -55.6382 H         1 UNK         0.0600 
    237 H237       -3.7641  -17.8361  -57.0567 H         1 UNK         0.0600 
    238 H238       -4.7114  -19.1465  -57.7597 H         1 UNK         0.0600 
    239 H239       -5.4916  -17.6372  -57.3164 H         1 UNK         0.0600 
    240 H240       -5.2548  -19.2601  -53.0894 H         1 UNK         0.3000 
    241 H241       -4.4948  -16.6213  -52.2100 H         1 UNK         0.0600 
    242 H242       -8.5215  -16.4223  -52.4678 H         1 UNK         0.3800 
    243 H243       -7.6186  -17.6790  -53.2728 H         1 UNK         0.3800 
    244 H244       -4.8225  -17.4585  -49.9210 H         1 UNK         0.0800 
    245 H245       -5.6739  -18.8581  -50.5098 H         1 UNK         0.0800 
    246 H246       -2.3305  -17.7350  -49.1354 H         1 UNK         0.0800 
    247 H247       -2.3092  -16.9112  -50.6768 H         1 UNK         0.0800 
@<TRIPOS>BOND
     1    1    2 1    
     2    1  127 1    
     3    1  128 1    
     4    1  129 1    
     5    2    3 2    
     6    2    4 am   BACKBONE|DICT|INTERRES
     7    4    5 1    
     8    4  130 1    
     9    5    6 1    
    10    5   65 1    
    11    5  131 1    
    12    6    7 1    
    13    6  132 1    
    14    6  133 1    
    15    7    8 1    
    16    8    9 1    
    17    8  134 1    
    18    8  135 1    
    19    9   10 ar   
    20    9   14 ar   
    21   10   11 ar   
    22   10  136 1    
    23   11   12 ar   
    24   11  126 1    
    25   12   13 ar   
    26   12  137 1    
    27   13   14 ar   
    28   13   15 1    
    29   14  138 1    
    30   15   16 1    
    31   15  139 1    
    32   15  140 1    
    33   16   17 1    
    34   17   18 1    
    35   17  141 1    
    36   17  142 1    
    37   18   19 1    
    38   18   67 1    
    39   18  143 1    
    40   19   20 am   BACKBONE|DICT|INTERRES
    41   19  144 1    
    42   20   21 2    
    43   20   22 1    
    44   22   23 1    
    45   22   24 1    
    46   22  145 1    
    47   23  146 1    
    48   23  147 1    
    49   23  148 1    
    50   24   25 am   BACKBONE|DICT|INTERRES
    51   24  149 1    
    52   25   26 2    
    53   25   27 1    
    54   27   28 1    
    55   27   29 1    
    56   27  150 1    
    57   28  151 1    
    58   28  152 1    
    59   28  153 1    
    60   29   30 am   BACKBONE|DICT|INTERRES
    61   29  154 1    
    62   30   31 2    
    63   30   32 1    
    64   32   33 1    
    65   32   34 1    
    66   32  155 1    
    67   33  156 1    
    68   33  157 1    
    69   33  158 1    
    70   34   35 am   BACKBONE|DICT|INTERRES
    71   34  159 1    
    72   35   36 2    
    73   35   37 1    
    74   37   38 1    
    75   37   39 1    
    76   37  160 1    
    77   38  161 1    
    78   38  162 1    
    79   38  163 1    
    80   39   40 am   BACKBONE|DICT|INTERRES
    81   39  164 1    
    82   40   41 2    
    83   40   42 1    
    84   42   43 1    
    85   42   44 1    
    86   42  165 1    
    87   43  166 1    
    88   43  167 1    
    89   43  168 1    
    90   44   45 am   BACKBONE|DICT|INTERRES
    91   44  169 1    
    92   45   46 2    
    93   45   47 1    
    94   47   48 1    
    95   47   49 1    
    96   47  170 1    
    97   48  171 1    
    98   48  172 1    
    99   48  173 1    
   100   49   50 am   BACKBONE|DICT|INTERRES
   101   49  174 1    
   102   50   51 2    
   103   50   52 1    
   104   52   53 1    
   105   52   54 1    
   106   52  175 1    
   107   53  176 1    
   108   53  177 1    
   109   53  178 1    
   110   54   55 am   BACKBONE|DICT|INTERRES
   111   54  179 1    
   112   55   56 2    
   113   55   57 1    
   114   57   58 1    
   115   57   59 1    
   116   57  180 1    
   117   58  181 1    
   118   58  182 1    
   119   58  183 1    
   120   59   60 am   BACKBONE|DICT|INTERRES
   121   59  184 1    
   122   60   61 2    
   123   60   62 1    
   124   62   63 1    
   125   62   64 1    
   126   62  185 1    
   127   63  186 1    
   128   63  187 1    
   129   63  188 1    
   130   64   65 am   BACKBONE|DICT|INTERRES
   131   64  189 1    
   132   65   66 2    
   133   67   68 2    
   134   67   69 am   BACKBONE|DICT|INTERRES
   135   69   70 1    
   136   69  190 1    
   137   70   71 1    
   138   70   72 1    
   139   70  191 1    
   140   71  192 1    
   141   71  193 1    
   142   71  194 1    
   143   72   73 2    
   144   72   74 am   BACKBONE|DICT|INTERRES
   145   74   75 1    
   146   74  195 1    
   147   75   76 1    
   148   75   77 1    
   149   75  196 1    
   150   76  197 1    
   151   76  198 1    
   152   76  199 1    
   153   77   78 2    
   154   77   79 am   BACKBONE|DICT|INTERRES
   155   79   80 1    
   156   79  200 1    
   157   80   81 1    
   158   80   82 1    
   159   80  201 1    
   160   81  202 1    
   161   81  203 1    
   162   81  204 1    
   163   82   83 2    
   164   82   84 am   BACKBONE|DICT|INTERRES
   165   84   85 1    
   166   84  205 1    
   167   85   86 1    
   168   85   87 1    
   169   85  206 1    
   170   86  207 1    
   171   86  208 1    
   172   86  209 1    
   173   87   88 2    
   174   87   89 am   BACKBONE|DICT|INTERRES
   175   89   90 1    
   176   89  210 1    
   177   90   91 1    
   178   90   92 1    
   179   90  211 1    
   180   91  212 1    
   181   91  213 1    
   182   91  214 1    
   183   92   93 2    
   184   92   94 am   BACKBONE|DICT|INTERRES
   185   94   95 1    
   186   94  215 1    
   187   95   96 1    
   188   95   97 1    
   189   95  216 1    
   190   96  217 1    
   191   96  218 1    
   192   96  219 1    
   193   97   98 2    
   194   97   99 am   BACKBONE|DICT|INTERRES
   195   99  100 1    
   196   99  220 1    
   197  100  101 1    
   198  100  102 1    
   199  100  221 1    
   200  101  222 1    
   201  101  223 1    
   202  101  224 1    
   203  102  103 2    
   204  102  104 am   BACKBONE|DICT|INTERRES
   205  104  105 1    
   206  104  225 1    
   207  105  106 1    
   208  105  107 1    
   209  105  226 1    
   210  106  227 1    
   211  106  228 1    
   212  106  229 1    
   213  107  108 2    
   214  107  109 am   BACKBONE|DICT|INTERRES
   215  109  110 1    
   216  109  230 1    
   217  110  111 1    
   218  110  112 1    
   219  110  231 1    
   220  111  232 1    
   221  111  233 1    
   222  111  234 1    
   223  112  113 2    
   224  112  114 am   BACKBONE|DICT|INTERRES
   225  114  115 1    
   226  114  235 1    
   227  115  116 1    
   228  115  117 1    
   229  115  236 1    
   230  116  237 1    
   231  116  238 1    
   232  116  239 1    
   233  117  118 2    
   234  117  119 am   BACKBONE|DICT|INTERRES
   235  119  120 1    
   236  119  240 1    
   237  120  121 1    
   238  120  124 1    
   239  120  241 1    
   240  121  122 am   BACKBONE|DICT|INTERRES
   241  121  123 2    
   242  122  242 1    
   243  122  243 1    
   244  124  125 1    
   245  124  244 1    
   246  124  245 1    
   247  125  126 1    
   248  126  246 1    
   249  126  247 1    
@<TRIPOS>SUBSTRUCTURE
     1 UNK         1 GROUP             0       ****    0 ROOT    
