@<TRIPOS>MOLECULE
3R540
247   249    1
SMALL
USER_CHARGES


@<TRIPOS>ATOM
      1 CA          6.3132  -16.1142  -44.8176 C.3       0 UNK        -0.1800 
      2 C           5.1624  -15.1589  -45.1000 C.2       0 UNK         0.5000 
      3 O           4.5244  -14.6747  -44.1648 O.2       0 UNK        -0.5000 
      4 N           4.8848  -14.9031  -46.3836 N.am      1 UNK        -0.5000 
      5 CA          3.8448  -13.9777  -46.8430 C.3       1 UNK         0.1400 
      6 C6          3.4826  -14.2031  -48.3291 C.3       23 UNK        -0.0398 
      7 S7          2.6215  -15.7880  -48.5649 S.3       23 UNK        -0.2404 
      8 C8          3.8400  -16.7570  -49.4962 C.3       23 UNK        -0.0205 
      9 C9          3.3070  -18.1487  -49.8005 C.ar      23 UNK        -0.0193 
     10 C10         2.3461  -18.3260  -50.8012 C.ar      23 UNK        -0.1150 
     11 C11         1.8749  -19.6035  -51.1139 C.ar      23 UNK        -0.0193 
     12 C12         2.3618  -20.7060  -50.4051 C.ar      23 UNK        -0.1150 
     13 C13         3.3185  -20.5457  -49.3987 C.ar      23 UNK        -0.0193 
     14 C14         3.7894  -19.2611  -49.1032 C.ar      23 UNK        -0.1150 
     15 C15         3.8774  -21.7781  -48.6934 C.3       23 UNK        -0.0205 
     16 S16         4.0163  -21.6206  -46.8813 S.3       23 UNK        -0.2404 
     17 C17         2.2869  -21.3737  -46.3660 C.3       23 UNK        -0.0398 
     18 CA          1.4786  -22.6964  -46.2636 C.3       11 UNK         0.1400 
     19 N           0.7482  -22.7915  -44.9958 N.am      11 UNK        -0.5000 
     20 C           0.1026  -23.8803  -44.5529 C.2       10 UNK         0.5000 
     21 O           0.0926  -24.9578  -45.1454 O.2       10 UNK        -0.5000 
     22 CA         -0.7114  -23.7203  -43.2535 C.3       10 UNK         0.1400 
     23 CB          0.1545  -24.0597  -42.0317 C.3       10 UNK        -0.1800 
     24 N          -1.2666  -22.3760  -43.0878 N.am      10 UNK        -0.5000 
     25 C          -2.1179  -21.7728  -43.9276 C.2       9 UNK         0.5000 
     26 O          -2.5893  -22.3213  -44.9238 O.2       9 UNK        -0.5000 
     27 CA         -2.4299  -20.2890  -43.6663 C.3       9 UNK         0.1400 
     28 CB         -3.6973  -20.1122  -42.8102 C.3       9 UNK        -0.1800 
     29 N          -1.2822  -19.5319  -43.1426 N.am      9 UNK        -0.5000 
     30 C          -0.7329  -19.5592  -41.9178 C.2       8 UNK         0.5000 
     31 O          -1.1613  -20.2655  -41.0050 O.2       8 UNK        -0.5000 
     32 CA          0.5461  -18.7243  -41.6806 C.3       8 UNK         0.1400 
     33 CB          1.6377  -19.5702  -41.0014 C.3       8 UNK        -0.1800 
     34 N           1.1072  -18.1617  -42.9101 N.am      8 UNK        -0.5000 
     35 C           0.7191  -17.0226  -43.4952 C.2       7 UNK         0.5000 
     36 O          -0.1550  -16.2852  -43.0385 O.2       7 UNK        -0.5000 
     37 CA          1.3825  -16.6627  -44.8410 C.3       7 UNK         0.1400 
     38 CB          2.5566  -17.5900  -45.2329 C.3       7 UNK        -0.1800 
     39 N           0.3817  -16.6072  -45.9104 N.am      7 UNK        -0.5000 
     40 C          -0.4346  -17.5964  -46.3096 C.2       6 UNK         0.5000 
     41 O          -0.3812  -18.7471  -45.8680 O.2       6 UNK        -0.5000 
     42 CA         -1.5302  -17.2396  -47.3339 C.3       6 UNK         0.1400 
     43 CB         -2.9225  -17.5866  -46.7779 C.3       6 UNK        -0.1800 
     44 N          -1.5290  -15.8196  -47.6836 N.am      6 UNK        -0.5000 
     45 C          -1.0124  -15.2937  -48.8022 C.2       5 UNK         0.5000 
     46 O          -0.4788  -15.9570  -49.6900 O.2       5 UNK        -0.5000 
     47 CA         -1.1112  -13.7626  -48.9601 C.3       5 UNK         0.1400 
     48 CB         -2.1233  -13.4018  -50.0593 C.3       5 UNK        -0.1800 
     49 N          -1.5021  -13.0814  -47.7212 N.am      5 UNK        -0.5000 
     50 C          -0.6691  -12.7818  -46.7181 C.2       4 UNK         0.5000 
     51 O           0.5438  -13.0106  -46.7294 O.2       4 UNK        -0.5000 
     52 CA         -1.3021  -12.1334  -45.4768 C.3       4 UNK         0.1400 
     53 CB         -1.1075  -13.0269  -44.2411 C.3       4 UNK        -0.1800 
     54 N          -0.6741  -10.8398  -45.2408 N.am      4 UNK        -0.5000 
     55 C          -0.9948   -9.7077  -45.8830 C.2       3 UNK         0.5000 
     56 O          -1.9776   -9.5878  -46.6153 O.2       3 UNK        -0.5000 
     57 CA         -0.0209   -8.5247  -45.7070 C.3       3 UNK         0.1400 
     58 CB         -0.4113   -7.6736  -44.4891 C.3       3 UNK        -0.1800 
     59 N           1.3664   -8.9759  -45.5607 N.am      3 UNK        -0.5000 
     60 C           2.0685   -9.5802  -46.5298 C.2       2 UNK         0.5000 
     61 O           1.6721   -9.6875  -47.6916 O.2       2 UNK        -0.5000 
     62 CA          3.4039  -10.2282  -46.1390 C.3       2 UNK         0.1400 
     63 CB          3.8506   -9.9626  -44.6839 C.3       2 UNK        -0.1800 
     64 N           3.2602  -11.6616  -46.3676 N.am      2 UNK        -0.5000 
     65 C           4.2602  -12.5138  -46.6022 C.2       1 UNK         0.5000 
     66 O           5.4487  -12.1854  -46.6573 O.2       1 UNK        -0.5000 
     67 C           0.5287  -22.8645  -47.4670 C.2       11 UNK         0.5000 
     68 O           0.8131  -23.6474  -48.3734 O.2       11 UNK        -0.5000 
     69 N          -0.6102  -22.1587  -47.4238 N.am      12 UNK        -0.5000 
     70 CA         -1.6551  -22.2324  -48.4418 C.3       12 UNK         0.1400 
     71 CB         -2.6236  -21.0576  -48.2700 C.3       12 UNK        -0.1800 
     72 C          -2.4043  -23.5730  -48.4195 C.2       12 UNK         0.5000 
     73 O          -2.7850  -24.0672  -49.4799 O.2       12 UNK        -0.5000 
     74 N          -2.5803  -24.1544  -47.2249 N.am      13 UNK        -0.5000 
     75 CA         -3.1493  -25.4885  -47.0341 C.3       13 UNK         0.1400 
     76 CB         -3.4286  -25.7299  -45.5443 C.3       13 UNK        -0.1800 
     77 C          -2.2483  -26.5913  -47.6188 C.2       13 UNK         0.5000 
     78 O          -2.7544  -27.4813  -48.3014 O.2       13 UNK        -0.5000 
     79 N          -0.9298  -26.4830  -47.3964 N.am      14 UNK        -0.5000 
     80 CA          0.0903  -27.3620  -47.9750 C.3       14 UNK         0.1400 
     81 CB          1.4504  -27.0726  -47.3220 C.3       14 UNK        -0.1800 
     82 C           0.1835  -27.2414  -49.5084 C.2       14 UNK         0.5000 
     83 O           0.3728  -28.2511  -50.1872 O.2       14 UNK        -0.5000 
     84 N           0.0061  -26.0184  -50.0271 N.am      15 UNK        -0.5000 
     85 CA         -0.0881  -25.7189  -51.4585 C.3       15 UNK         0.1400 
     86 CB          0.1481  -24.2144  -51.6647 C.3       15 UNK        -0.1800 
     87 C          -1.4302  -26.1449  -52.0941 C.2       15 UNK         0.5000 
     88 O          -1.5353  -26.1423  -53.3211 O.2       15 UNK        -0.5000 
     89 N          -2.4238  -26.4872  -51.2586 N.am      16 UNK        -0.5000 
     90 CA         -3.8060  -26.8426  -51.5948 C.3       16 UNK         0.1400 
     91 CB         -3.8582  -28.1674  -52.3838 C.3       16 UNK        -0.1800 
     92 C          -4.5647  -25.6881  -52.2838 C.2       16 UNK         0.5000 
     93 O          -5.3358  -25.9207  -53.2168 O.2       16 UNK        -0.5000 
     94 N          -4.3221  -24.4600  -51.8091 N.am      17 UNK        -0.5000 
     95 CA         -4.8435  -23.2150  -52.3728 C.3       17 UNK         0.1400 
     96 CB         -3.7296  -22.5376  -53.1870 C.3       17 UNK        -0.1800 
     97 C          -5.4157  -22.2807  -51.2905 C.2       17 UNK         0.5000 
     98 O          -5.6326  -21.0987  -51.5644 O.2       17 UNK        -0.5000 
     99 N          -5.6755  -22.8101  -50.0848 N.am      18 UNK        -0.5000 
    100 CA        -6.2198  -22.0774  -48.9345 C.3       18 UNK         0.1400 
    101 CB        -6.2729  -23.0046  -47.7117 C.3       18 UNK        -0.1800 
    102 C         -7.5975  -21.4400  -49.1919 C.2       18 UNK         0.5000 
    103 O         -7.8661  -20.3544  -48.6781 O.2       18 UNK        -0.5000 
    104 N         -8.4161  -22.0860  -50.0341 N.am      19 UNK        -0.5000 
    105 CA        -9.7180  -21.5884  -50.4900 C.3       19 UNK         0.1400 
    106 CB       -10.4308  -22.7053  -51.2675 C.3       19 UNK        -0.1800 
    107 C         -9.6282  -20.3081  -51.3483 C.2       19 UNK         0.5000 
    108 O        -10.5970  -19.5504  -51.4054 O.2       19 UNK        -0.5000 
    109 N         -8.4692  -20.0854  -51.9814 N.am      20 UNK        -0.5000 
    110 CA        -8.1413  -18.8978  -52.7700 C.3       20 UNK         0.1400 
    111 CB        -7.5338  -19.3639  -54.1050 C.3       20 UNK        -0.1800 
    112 C         -7.1635  -17.9682  -52.0219 C.2       20 UNK         0.5000 
    113 O         -6.6587  -17.0200  -52.6257 O.2       20 UNK        -0.5000 
    114 N         -6.8655  -18.2767  -50.7477 N.am      21 UNK        -0.5000 
    115 CA        -5.8705  -17.6296  -49.8818 C.3       21 UNK         0.1400 
    116 CB        -6.3593  -16.2316  -49.4516 C.3       21 UNK        -0.1800 
    117 C         -4.4536  -17.6046  -50.4986 C.2       21 UNK         0.5000 
    118 O         -3.7070  -16.6500  -50.2895 O.2       21 UNK        -0.5000 
    119 N         -4.1298  -18.6468  -51.2750 N.am      22 UNK        -0.5000 
    120 CA        -2.9202  -18.7821  -52.0996 C.3       22 UNK         0.1400 
    121 C         -2.7950  -17.7673  -53.2790 C.2       22 UNK         0.5000 
    122 N         -3.8442  -17.0421  -53.6517 N.am      22 UNK        -0.7600 
    123 O         -1.7408  -17.6592  -53.8992 O.2       22 UNK        -0.5000 
    124 C124       -1.6202  -18.9214  -51.2512 C.3       23 UNK        -0.0398 
    125 S125       -0.7113  -20.4454  -51.6716 S.3       23 UNK        -0.2404 
    126 C126        0.8875  -19.8080  -52.2542 C.3       23 UNK        -0.0205 
    127 H127        6.7650  -16.4880  -45.7368 H         1 UNK         0.0600 
    128 H128        5.9580  -16.9692  -44.2424 H         1 UNK         0.0600 
    129 H129        7.0864  -15.6093  -44.2387 H         1 UNK         0.0600 
    130 H130        5.4620  -15.3069  -47.1056 H         1 UNK         0.3000 
    131 H131        2.9502  -14.1635  -46.2451 H         1 UNK         0.0600 
    132 H132        2.8041  -13.4243  -48.6833 H         1 UNK         0.0800 
    133 H133        4.3682  -14.1491  -48.9644 H         1 UNK         0.0800 
    134 H134        4.0766  -16.2449  -50.4299 H         1 UNK         0.0800 
    135 H135        4.7683  -16.8172  -48.9266 H         1 UNK         0.0800 
    136 H136        1.9758  -17.4667  -51.3428 H         1 UNK         0.1150 
    137 H137        2.0035  -21.6951  -50.6542 H         1 UNK         0.1150 
    138 H138        4.5409  -19.1291  -48.3376 H         1 UNK         0.1150 
    139 H139        3.2773  -22.6598  -48.9217 H         1 UNK         0.0800 
    140 H140        4.8707  -21.9780  -49.0967 H         1 UNK         0.0800 
    141 H141        2.3482  -20.9027  -45.3851 H         1 UNK         0.0800 
    142 H142        1.8099  -20.6273  -47.0055 H         1 UNK         0.0800 
    143 H143        2.1703  -23.5418  -46.2813 H         1 UNK         0.0600 
    144 H144        0.6872  -21.9511  -44.4419 H         1 UNK         0.3000 
    145 H145       -1.5453  -24.4228  -43.2901 H         1 UNK         0.0600 
    146 H146        0.5687  -25.0655  -42.1137 H         1 UNK         0.0600 
    147 H147        0.9902  -23.3669  -41.9248 H         1 UNK         0.0600 
    148 H148       -0.4302  -24.0238  -41.1123 H         1 UNK         0.0600 
    149 H149       -0.9783  -21.8538  -42.2679 H         1 UNK         0.3000 
    150 H150       -2.6410  -19.8501  -44.6408 H         1 UNK         0.0600 
    151 H151       -4.5613  -20.5556  -43.3066 H         1 UNK         0.0600 
    152 H152       -3.9205  -19.0575  -42.6494 H         1 UNK         0.0600 
    153 H153       -3.6067  -20.5908  -41.8350 H         1 UNK         0.0600 
    154 H154       -0.8093  -18.9758  -43.8466 H         1 UNK         0.3000 
    155 H155        0.2778  -17.9100  -41.0045 H         1 UNK         0.0600 
    156 H156        2.5354  -18.9801  -40.8161 H         1 UNK         0.0600 
    157 H157        1.9203  -20.4289  -41.6117 H         1 UNK         0.0600 
    158 H158        1.3006  -19.9501  -40.0361 H         1 UNK         0.0600 
    159 H159        1.8191  -18.7113  -43.3682 H         1 UNK         0.3000 
    160 H160        1.7780  -15.6528  -44.7260 H         1 UNK         0.0600 
    161 H161        2.2328  -18.6127  -45.4112 H         1 UNK         0.0600 
    162 H162        3.3225  -17.6098  -44.4569 H         1 UNK         0.0600 
    163 H163        3.0426  -17.2459  -46.1435 H         1 UNK         0.0600 
    164 H164        0.2628  -15.7039  -46.3459 H         1 UNK         0.3000 
    165 H165       -1.3495  -17.8433  -48.2235 H         1 UNK         0.0600 
    166 H166       -3.1224  -17.0673  -45.8397 H         1 UNK         0.0600 
    167 H167       -3.7075  -17.3153  -47.4830 H         1 UNK         0.0600 
    168 H168       -3.0201  -18.6541  -46.5876 H         1 UNK         0.0600 
    169 H169       -1.9673  -15.1943  -47.0249 H         1 UNK         0.3000 
    170 H170       -0.1273  -13.4019  -49.2683 H         1 UNK         0.0600 
    171 H171       -1.8492  -13.8633  -51.0091 H         1 UNK         0.0600 
    172 H172       -3.1277  -13.7465  -49.8094 H         1 UNK         0.0600 
    173 H173       -2.1651  -12.3247  -50.2215 H         1 UNK         0.0600 
    174 H174       -2.4776  -12.8315  -47.6402 H         1 UNK         0.3000 
    175 H175       -2.3740  -11.9963  -45.6353 H         1 UNK         0.0600 
    176 H176       -0.0523  -13.1979  -44.0231 H         1 UNK         0.0600 
    177 H177       -1.5627  -12.5805  -43.3569 H         1 UNK         0.0600 
    178 H178       -1.5717  -14.0032  -44.3868 H         1 UNK         0.0600 
    179 H179        0.1652  -10.8481  -44.6815 H         1 UNK         0.3000 
    180 H180       -0.0878   -7.8992  -46.5997 H         1 UNK         0.0600 
    181 H181       -0.3496   -8.2434  -43.5611 H         1 UNK         0.0600 
    182 H182       -1.4346   -7.3074  -44.5820 H         1 UNK         0.0600 
    183 H183        0.2370   -6.8025  -44.3928 H         1 UNK         0.0600 
    184 H184        1.7696   -8.9127  -44.6371 H         1 UNK         0.3000 
    185 H185        4.1597   -9.8270  -46.8174 H         1 UNK         0.0600 
    186 H186        4.8310  -10.3985  -44.4913 H         1 UNK         0.0600 
    187 H187        3.9368   -8.8937  -44.4844 H         1 UNK         0.0600 
    188 H188        3.1567  -10.3898  -43.9589 H         1 UNK         0.0600 
    189 H189        2.3041  -12.0039  -46.4229 H         1 UNK         0.3000 
    190 H190       -0.7934  -21.5643  -46.6284 H         1 UNK         0.3000 
    191 H191       -1.1746  -22.1379  -49.4151 H         1 UNK         0.0600 
    192 H192       -3.2810  -20.9741  -49.1354 H         1 UNK         0.0600 
    193 H193       -2.0784  -20.1200  -48.1871 H         1 UNK         0.0600 
    194 H194       -3.2449  -21.1653  -47.3801 H         1 UNK         0.0600 
    195 H195       -2.3149  -23.6404  -46.3910 H         1 UNK         0.3000 
    196 H196       -4.1031  -25.5229  -47.5647 H         1 UNK         0.0600 
    197 H197       -3.9518  -26.6754  -45.3969 H         1 UNK         0.0600 
    198 H198       -4.0544  -24.9412  -45.1257 H         1 UNK         0.0600 
    199 H199       -2.5084  -25.7739  -44.9635 H         1 UNK         0.0600 
    200 H200       -0.5950  -25.7525  -46.7743 H         1 UNK         0.3000 
    201 H201       -0.1857  -28.3922  -47.7408 H         1 UNK         0.0600 
    202 H202        1.4130  -27.2387  -46.2453 H         1 UNK         0.0600 
    203 H203        1.7681  -26.0432  -47.4898 H         1 UNK         0.0600 
    204 H204        2.2250  -27.7260  -47.7253 H         1 UNK         0.0600 
    205 H205       -0.0620  -25.2288  -49.3939 H         1 UNK         0.3000 
    206 H206        0.7055  -26.2614  -51.9761 H         1 UNK         0.0600 
    207 H207        1.1047  -23.9030  -51.2455 H         1 UNK         0.0600 
    208 H208        0.1590  -23.9590  -52.7249 H         1 UNK         0.0600 
    209 H209       -0.6344  -23.6187  -51.1956 H         1 UNK         0.0600 
    210 H210       -2.2280  -26.4391  -50.2674 H         1 UNK         0.3000 
    211 H211       -4.3135  -27.0092  -50.6438 H         1 UNK         0.0600 
    212 H212       -3.4220  -28.0666  -53.3779 H         1 UNK         0.0600 
    213 H213       -4.8872  -28.5053  -52.5116 H         1 UNK         0.0600 
    214 H214       -3.3209  -28.9579  -51.8598 H         1 UNK         0.0600 
    215 H215       -3.6749  -24.3586  -51.0271 H         1 UNK         0.3000 
    216 H216       -5.6749  -23.4271  -53.0474 H         1 UNK         0.0600 
    217 H217       -4.0905  -21.6336  -53.6784 H         1 UNK         0.0600 
    218 H218       -3.3551  -23.2004  -53.9673 H         1 UNK         0.0600 
    219 H219       -2.8870  -22.2640  -52.5523 H         1 UNK         0.0600 
    220 H220       -5.4659  -23.7870  -49.9422 H         1 UNK         0.3000 
    221 H221       -5.5364  -21.2583  -48.7078 H         1 UNK         0.0600 
    222 H222       -6.8751  -23.8932  -47.9039 H         1 UNK         0.0600 
    223 H223       -5.2758  -23.3288  -47.4196 H         1 UNK         0.0600 
    224 H224       -6.7056  -22.4937  -46.8504 H         1 UNK         0.0600 
    225 H225       -8.1105  -22.9698  -50.4142 H         1 UNK         0.3000 
    226 H226      -10.3147  -21.3493  -49.6073 H         1 UNK         0.0600 
    227 H227      -10.5725  -23.5903  -50.6469 H         1 UNK         0.0600 
    228 H228      -11.4183  -22.3819  -51.5996 H         1 UNK         0.0600 
    229 H229       -9.8674  -23.0015  -52.1534 H         1 UNK         0.0600 
    230 H230       -7.7086  -20.7419  -51.8526 H         1 UNK         0.3000 
    231 H231       -9.0405  -18.3175  -52.9853 H         1 UNK         0.0600 
    232 H232       -7.3237  -18.5177  -54.7603 H         1 UNK         0.0600 
    233 H233       -8.2175  -20.0233  -54.6397 H         1 UNK         0.0600 
    234 H234       -6.5973  -19.9029  -53.9542 H         1 UNK         0.0600 
    235 H235       -7.3396  -19.0691  -50.3327 H         1 UNK         0.3000 
    236 H236       -5.7984  -18.2464  -48.9848 H         1 UNK         0.0600 
    237 H237       -7.3512  -16.2823  -49.0029 H         1 UNK         0.0600 
    238 H238       -5.6906  -15.7934  -48.7096 H         1 UNK         0.0600 
    239 H239       -6.4071  -15.5436  -50.2962 H         1 UNK         0.0600 
    240 H240       -4.8086  -19.3956  -51.3858 H         1 UNK         0.3000 
    241 H241       -3.0929  -19.7261  -52.6139 H         1 UNK         0.0600 
    242 H242       -4.7326  -17.1045  -53.1658 H         1 UNK         0.3800 
    243 H243       -3.7475  -16.4023  -54.4236 H         1 UNK         0.3800 
    244 H244       -0.9727  -18.0482  -51.3454 H         1 UNK         0.0800 
    245 H245       -1.8567  -18.9797  -50.1913 H         1 UNK         0.0800 
    246 H246        0.7366  -18.8882  -52.8217 H         1 UNK         0.0800 
    247 H247        1.3112  -20.5291  -52.9543 H         1 UNK         0.0800 
@<TRIPOS>BOND
     1    1    2 1    
     2    1  127 1    
     3    1  128 1    
     4    1  129 1    
     5    2    3 2    
     6    2    4 am   BACKBONE|DICT|INTERRES
     7    4    5 1    
     8    4  130 1    
     9    5    6 1    
    10    5   65 1    
    11    5  131 1    
    12    6    7 1    
    13    6  132 1    
    14    6  133 1    
    15    7    8 1    
    16    8    9 1    
    17    8  134 1    
    18    8  135 1    
    19    9   10 ar   
    20    9   14 ar   
    21   10   11 ar   
    22   10  136 1    
    23   11   12 ar   
    24   11  126 1    
    25   12   13 ar   
    26   12  137 1    
    27   13   14 ar   
    28   13   15 1    
    29   14  138 1    
    30   15   16 1    
    31   15  139 1    
    32   15  140 1    
    33   16   17 1    
    34   17   18 1    
    35   17  141 1    
    36   17  142 1    
    37   18   19 1    
    38   18   67 1    
    39   18  143 1    
    40   19   20 am   BACKBONE|DICT|INTERRES
    41   19  144 1    
    42   20   21 2    
    43   20   22 1    
    44   22   23 1    
    45   22   24 1    
    46   22  145 1    
    47   23  146 1    
    48   23  147 1    
    49   23  148 1    
    50   24   25 am   BACKBONE|DICT|INTERRES
    51   24  149 1    
    52   25   26 2    
    53   25   27 1    
    54   27   28 1    
    55   27   29 1    
    56   27  150 1    
    57   28  151 1    
    58   28  152 1    
    59   28  153 1    
    60   29   30 am   BACKBONE|DICT|INTERRES
    61   29  154 1    
    62   30   31 2    
    63   30   32 1    
    64   32   33 1    
    65   32   34 1    
    66   32  155 1    
    67   33  156 1    
    68   33  157 1    
    69   33  158 1    
    70   34   35 am   BACKBONE|DICT|INTERRES
    71   34  159 1    
    72   35   36 2    
    73   35   37 1    
    74   37   38 1    
    75   37   39 1    
    76   37  160 1    
    77   38  161 1    
    78   38  162 1    
    79   38  163 1    
    80   39   40 am   BACKBONE|DICT|INTERRES
    81   39  164 1    
    82   40   41 2    
    83   40   42 1    
    84   42   43 1    
    85   42   44 1    
    86   42  165 1    
    87   43  166 1    
    88   43  167 1    
    89   43  168 1    
    90   44   45 am   BACKBONE|DICT|INTERRES
    91   44  169 1    
    92   45   46 2    
    93   45   47 1    
    94   47   48 1    
    95   47   49 1    
    96   47  170 1    
    97   48  171 1    
    98   48  172 1    
    99   48  173 1    
   100   49   50 am   BACKBONE|DICT|INTERRES
   101   49  174 1    
   102   50   51 2    
   103   50   52 1    
   104   52   53 1    
   105   52   54 1    
   106   52  175 1    
   107   53  176 1    
   108   53  177 1    
   109   53  178 1    
   110   54   55 am   BACKBONE|DICT|INTERRES
   111   54  179 1    
   112   55   56 2    
   113   55   57 1    
   114   57   58 1    
   115   57   59 1    
   116   57  180 1    
   117   58  181 1    
   118   58  182 1    
   119   58  183 1    
   120   59   60 am   BACKBONE|DICT|INTERRES
   121   59  184 1    
   122   60   61 2    
   123   60   62 1    
   124   62   63 1    
   125   62   64 1    
   126   62  185 1    
   127   63  186 1    
   128   63  187 1    
   129   63  188 1    
   130   64   65 am   BACKBONE|DICT|INTERRES
   131   64  189 1    
   132   65   66 2    
   133   67   68 2    
   134   67   69 am   BACKBONE|DICT|INTERRES
   135   69   70 1    
   136   69  190 1    
   137   70   71 1    
   138   70   72 1    
   139   70  191 1    
   140   71  192 1    
   141   71  193 1    
   142   71  194 1    
   143   72   73 2    
   144   72   74 am   BACKBONE|DICT|INTERRES
   145   74   75 1    
   146   74  195 1    
   147   75   76 1    
   148   75   77 1    
   149   75  196 1    
   150   76  197 1    
   151   76  198 1    
   152   76  199 1    
   153   77   78 2    
   154   77   79 am   BACKBONE|DICT|INTERRES
   155   79   80 1    
   156   79  200 1    
   157   80   81 1    
   158   80   82 1    
   159   80  201 1    
   160   81  202 1    
   161   81  203 1    
   162   81  204 1    
   163   82   83 2    
   164   82   84 am   BACKBONE|DICT|INTERRES
   165   84   85 1    
   166   84  205 1    
   167   85   86 1    
   168   85   87 1    
   169   85  206 1    
   170   86  207 1    
   171   86  208 1    
   172   86  209 1    
   173   87   88 2    
   174   87   89 am   BACKBONE|DICT|INTERRES
   175   89   90 1    
   176   89  210 1    
   177   90   91 1    
   178   90   92 1    
   179   90  211 1    
   180   91  212 1    
   181   91  213 1    
   182   91  214 1    
   183   92   93 2    
   184   92   94 am   BACKBONE|DICT|INTERRES
   185   94   95 1    
   186   94  215 1    
   187   95   96 1    
   188   95   97 1    
   189   95  216 1    
   190   96  217 1    
   191   96  218 1    
   192   96  219 1    
   193   97   98 2    
   194   97   99 am   BACKBONE|DICT|INTERRES
   195   99  100 1    
   196   99  220 1    
   197  100  101 1    
   198  100  102 1    
   199  100  221 1    
   200  101  222 1    
   201  101  223 1    
   202  101  224 1    
   203  102  103 2    
   204  102  104 am   BACKBONE|DICT|INTERRES
   205  104  105 1    
   206  104  225 1    
   207  105  106 1    
   208  105  107 1    
   209  105  226 1    
   210  106  227 1    
   211  106  228 1    
   212  106  229 1    
   213  107  108 2    
   214  107  109 am   BACKBONE|DICT|INTERRES
   215  109  110 1    
   216  109  230 1    
   217  110  111 1    
   218  110  112 1    
   219  110  231 1    
   220  111  232 1    
   221  111  233 1    
   222  111  234 1    
   223  112  113 2    
   224  112  114 am   BACKBONE|DICT|INTERRES
   225  114  115 1    
   226  114  235 1    
   227  115  116 1    
   228  115  117 1    
   229  115  236 1    
   230  116  237 1    
   231  116  238 1    
   232  116  239 1    
   233  117  118 2    
   234  117  119 am   BACKBONE|DICT|INTERRES
   235  119  120 1    
   236  119  240 1    
   237  120  121 1    
   238  120  124 1    
   239  120  241 1    
   240  121  122 am   BACKBONE|DICT|INTERRES
   241  121  123 2    
   242  122  242 1    
   243  122  243 1    
   244  124  125 1    
   245  124  244 1    
   246  124  245 1    
   247  125  126 1    
   248  126  246 1    
   249  126  247 1    
@<TRIPOS>SUBSTRUCTURE
     1 UNK         1 GROUP             0       ****    0 ROOT    
