@<TRIPOS>MOLECULE
3R540
247   249    1
SMALL
USER_CHARGES


@<TRIPOS>ATOM
      1 CA          0.2049  -18.3792  -47.8636 C.3       0 UNK        -0.1800 
      2 C           0.6865  -17.0270  -48.3551 C.2       0 UNK         0.5000 
      3 O           1.5639  -16.4357  -47.7260 O.2       0 UNK        -0.5000 
      4 N           0.1039  -16.5237  -49.4515 N.am      1 UNK        -0.5000 
      5 CA          0.3813  -15.2250  -50.0799 C.3       1 UNK         0.1400 
      6 C6          1.8376  -15.0828  -50.6095 C.3       23 UNK        -0.0398 
      7 S7          2.1683  -16.0898  -52.0979 S.3       23 UNK        -0.2404 
      8 C8          2.9470  -17.6073  -51.4314 C.3       23 UNK        -0.0205 
      9 C9          2.0398  -18.8355  -51.2968 C.ar      23 UNK        -0.0193 
     10 C10         0.6751  -18.8207  -51.6168 C.ar      23 UNK        -0.1150 
     11 C11        -0.1166  -19.9582  -51.4430 C.ar      23 UNK        -0.0193 
     12 C12         0.4676  -21.1343  -50.9684 C.ar      23 UNK        -0.1150 
     13 C13         1.8342  -21.1843  -50.6804 C.ar      23 UNK        -0.0193 
     14 C14         2.6090  -20.0304  -50.8415 C.ar      23 UNK        -0.1150 
     15 C15         2.4689  -22.5026  -50.2475 C.3       23 UNK        -0.0205 
     16 S16         3.4437  -22.4087  -48.7068 S.3       23 UNK        -0.2404 
     17 C17         2.2538  -21.7443  -47.4967 C.3       23 UNK        -0.0398 
     18 CA          1.2991  -22.8137  -46.9019 C.3       11 UNK         0.1400 
     19 N           1.1001  -22.6449  -45.4593 N.am      11 UNK        -0.5000 
     20 C           0.5422  -23.5643  -44.6559 C.2       10 UNK         0.5000 
     21 O           0.1778  -24.6730  -45.0446 O.2       10 UNK        -0.5000 
     22 CA          0.3069  -23.1728  -43.1822 C.3       10 UNK         0.1400 
     23 CB          1.5239  -23.5511  -42.3257 C.3       10 UNK        -0.1800 
     24 N           0.0158  -21.7505  -43.0003 N.am      10 UNK        -0.5000 
     25 C          -1.0277  -21.1062  -43.5405 C.2       9 UNK         0.5000 
     26 O          -1.9239  -21.6742  -44.1644 O.2       9 UNK        -0.5000 
     27 CA         -1.0436  -19.5672  -43.4245 C.3       9 UNK         0.1400 
     28 CB         -1.9987  -19.1198  -42.3085 C.3       9 UNK        -0.1800 
     29 N           0.2699  -18.9456  -43.2067 N.am      9 UNK        -0.5000 
     30 C           1.3503  -19.0766  -43.9928 C.2       8 UNK         0.5000 
     31 O           1.3761  -19.8088  -44.9815 O.2       8 UNK        -0.5000 
     32 CA          2.6083  -18.2704  -43.6209 C.3       8 UNK         0.1400 
     33 CB          3.0627  -17.3994  -44.8036 C.3       8 UNK        -0.1800 
     34 N           2.3924  -17.3955  -42.4697 N.am      8 UNK        -0.5000 
     35 C           2.7421  -17.6490  -41.2026 C.2       7 UNK         0.5000 
     36 O           3.2356  -18.7153  -40.8330 O.2       7 UNK        -0.5000 
     37 CA          2.4835  -16.5087  -40.1889 C.3       7 UNK         0.1400 
     38 CB          3.3559  -16.6155  -38.9212 C.3       7 UNK        -0.1800 
     39 N           2.5914  -15.1751  -40.7976 N.am      7 UNK        -0.5000 
     40 C           3.6708  -14.6327  -41.3852 C.2       6 UNK         0.5000 
     41 O           4.7918  -15.1422  -41.3592 O.2       6 UNK        -0.5000 
     42 CA          3.4638  -13.3229  -42.1716 C.3       6 UNK         0.1400 
     43 CB          3.8925  -13.5024  -43.6375 C.3       6 UNK        -0.1800 
     44 N           2.0669  -12.8819  -42.1588 N.am      6 UNK        -0.5000 
     45 C           1.6093  -11.7773  -41.5543 C.2       5 UNK         0.5000 
     46 O           2.3259  -10.9840  -40.9428 O.2       5 UNK        -0.5000 
     47 CA          0.0921  -11.5090  -41.6369 C.3       5 UNK         0.1400 
     48 CB         -0.2135  -10.5078  -42.7612 C.3       5 UNK        -0.1800 
     49 N          -0.7050  -12.7215  -41.8424 N.am      5 UNK        -0.5000 
     50 C          -0.8566  -13.6923  -40.9295 C.2       4 UNK         0.5000 
     51 O          -0.3646  -13.6474  -39.8022 O.2       4 UNK        -0.5000 
     52 CA         -1.6416  -14.9507  -41.3506 C.3       4 UNK         0.1400 
     53 CB         -3.0956  -14.8672  -40.8638 C.3       4 UNK        -0.1800 
     54 N          -1.6378  -15.2263  -42.7900 N.am      4 UNK        -0.5000 
     55 C          -0.5508  -15.4200  -43.5475 C.2       3 UNK         0.5000 
     56 O           0.6011  -15.3260  -43.1194 O.2       3 UNK        -0.5000 
     57 CA         -0.7662  -15.7805  -45.0285 C.3       3 UNK         0.1400 
     58 CB         -2.2443  -15.9377  -45.4460 C.3       3 UNK        -0.1800 
     59 N          -0.0814  -14.8465  -45.9201 N.am      3 UNK        -0.5000 
     60 C          -0.2308  -13.5144  -45.9868 C.2       2 UNK         0.5000 
     61 O          -0.9595  -12.8641  -45.2363 O.2       2 UNK        -0.5000 
     62 CA          0.5604  -12.7891  -47.0954 C.3       2 UNK         0.1400 
     63 CB          1.8765  -12.2298  -46.5368 C.3       2 UNK        -0.1800 
     64 N           0.8614  -13.6687  -48.2283 N.am      2 UNK        -0.5000 
     65 C          -0.0399  -14.0782  -49.1326 C.2       1 UNK         0.5000 
     66 O          -1.1801  -13.6192  -49.2069 O.2       1 UNK        -0.5000 
     67 C          -0.0540  -22.8226  -47.6390 C.2       11 UNK         0.5000 
     68 O          -0.2818  -23.6883  -48.4828 O.2       11 UNK        -0.5000 
     69 N          -0.9457  -21.8893  -47.2693 N.am      12 UNK        -0.5000 
     70 CA         -2.3096  -21.8007  -47.7942 C.3       12 UNK         0.1400 
     71 CB         -2.9971  -20.5267  -47.2792 C.3       12 UNK        -0.1800 
     72 C          -3.1444  -23.0422  -47.4426 C.2       12 UNK         0.5000 
     73 O          -3.8537  -23.5560  -48.3065 O.2       12 UNK        -0.5000 
     74 N          -3.0073  -23.5230  -46.1987 N.am      13 UNK        -0.5000 
     75 CA         -3.6279  -24.7524  -45.7081 C.3       13 UNK         0.1400 
     76 CB         -3.3939  -24.8820  -44.1957 C.3       13 UNK        -0.1800 
     77 C          -3.1317  -26.0043  -46.4549 C.2       13 UNK         0.5000 
     78 O          -3.9545  -26.8155  -46.8796 O.2       13 UNK        -0.5000 
     79 N          -1.8083  -26.1179  -46.6446 N.am      14 UNK        -0.5000 
     80 CA         -1.1622  -27.2002  -47.3936 C.3       14 UNK         0.1400 
     81 CB          0.3623  -27.1001  -47.2337 C.3       14 UNK        -0.1800 
     82 C          -1.5497  -27.2190  -48.8842 C.2       14 UNK         0.5000 
     83 O          -1.7496  -28.2953  -49.4481 O.2       14 UNK        -0.5000 
     84 N          -1.6826  -26.0286  -49.4832 N.am      15 UNK        -0.5000 
     85 CA         -2.1471  -25.8271  -50.8561 C.3       15 UNK         0.1400 
     86 CB         -1.7192  -24.4251  -51.3202 C.3       15 UNK        -0.1800 
     87 C          -3.6695  -26.0022  -51.0277 C.2       15 UNK         0.5000 
     88 O          -4.1386  -26.0011  -52.1645 O.2       15 UNK        -0.5000 
     89 N          -4.4185  -26.1049  -49.9185 N.am      16 UNK        -0.5000 
     90 CA         -5.8839  -26.1488  -49.8373 C.3       16 UNK         0.1400 
     91 CB         -6.4261  -27.4650  -50.4317 C.3       16 UNK        -0.1800 
     92 C          -6.5477  -24.8896  -50.4392 C.2       16 UNK         0.5000 
     93 O          -7.5948  -24.9825  -51.0823 O.2       16 UNK        -0.5000 
     94 N          -5.8978  -23.7362  -50.2252 N.am      17 UNK        -0.5000 
     95 CA         -6.2379  -22.3993  -50.7181 C.3       17 UNK         0.1400 
     96 CB         -7.5269  -21.8824  -50.0481 C.3       17 UNK        -0.1800 
     97 C          -6.2660  -22.2770  -52.2587 C.2       17 UNK         0.5000 
     98 O          -6.9919  -21.4357  -52.7902 O.2       17 UNK        -0.5000 
     99 N          -5.4744  -23.1057  -52.9542 N.am      18 UNK        -0.5000 
    100 CA        -5.2974  -23.0539  -54.4056 C.3       18 UNK         0.1400 
    101 CB        -4.6027  -24.3415  -54.8738 C.3       18 UNK        -0.1800 
    102 C         -4.4929  -21.8189  -54.8557 C.2       18 UNK         0.5000 
    103 O         -3.6900  -21.2912  -54.0824 O.2       18 UNK        -0.5000 
    104 N         -4.7051  -21.4314  -56.1220 N.am      19 UNK        -0.5000 
    105 CA        -4.1317  -20.2865  -56.8407 C.3       19 UNK         0.1400 
    106 CB        -2.5891  -20.3106  -56.8140 C.3       19 UNK        -0.1800 
    107 C         -4.6763  -18.9277  -56.3606 C.2       19 UNK         0.5000 
    108 O         -5.1736  -18.7982  -55.2400 O.2       19 UNK        -0.5000 
    109 N         -4.5469  -17.9107  -57.2232 N.am      20 UNK        -0.5000 
    110 CA        -5.0181  -16.5382  -56.9941 C.3       20 UNK         0.1400 
    111 CB        -4.8231  -15.7254  -58.2835 C.3       20 UNK        -0.1800 
    112 C         -4.3497  -15.8242  -55.8003 C.2       20 UNK         0.5000 
    113 O         -4.9034  -14.8513  -55.2874 O.2       20 UNK        -0.5000 
    114 N         -3.1844  -16.3276  -55.3731 N.am      21 UNK        -0.5000 
    115 CA        -2.4525  -15.8732  -54.1941 C.3       21 UNK         0.1400 
    116 CB        -1.0294  -16.4451  -54.2493 C.3       21 UNK        -0.1800 
    117 C         -3.1317  -16.2428  -52.8592 C.2       21 UNK         0.5000 
    118 O         -2.8612  -15.5749  -51.8610 O.2       21 UNK        -0.5000 
    119 N         -3.9831  -17.2791  -52.8548 N.am      22 UNK        -0.5000 
    120 CA        -4.7380  -17.7350  -51.6738 C.3       22 UNK         0.1400 
    121 C         -6.2728  -17.7970  -51.9076 C.2       22 UNK         0.5000 
    122 N         -6.7671  -17.9222  -53.1320 N.am      22 UNK        -0.7600 
    123 O         -7.0377  -17.7077  -50.9513 O.2       22 UNK        -0.5000 
    124 C124       -4.2196  -19.0902  -51.1314 C.3       23 UNK        -0.0398 
    125 S125       -2.5153  -18.9955  -50.4918 S.3       23 UNK        -0.2404 
    126 C126       -1.6012  -19.9096  -51.7686 C.3       23 UNK        -0.0205 
    127 H127       -0.1394  -19.0109  -48.6810 H         1 UNK         0.0600 
    128 H128       -0.6042  -18.2527  -47.1462 H         1 UNK         0.0600 
    129 H129        1.0238  -18.8888  -47.3626 H         1 UNK         0.0600 
    130 H130       -0.6338  -17.0564  -49.8922 H         1 UNK         0.3000 
    131 H131       -0.2861  -15.1595  -50.9405 H         1 UNK         0.0600 
    132 H132        2.0248  -14.0477  -50.9009 H         1 UNK         0.0800 
    133 H133        2.5772  -15.3073  -49.8410 H         1 UNK         0.0800 
    134 H134        3.7704  -17.8697  -52.0970 H         1 UNK         0.0800 
    135 H135        3.3985  -17.3929  -50.4620 H         1 UNK         0.0800 
    136 H136        0.2041  -17.9215  -51.9812 H         1 UNK         0.1150 
    137 H137       -0.1416  -22.0165  -50.8375 H         1 UNK         0.1150 
    138 H138        3.6655  -20.0661  -50.6149 H         1 UNK         0.1150 
    139 H139        1.7132  -23.2808  -50.1381 H         1 UNK         0.0800 
    140 H140        3.1278  -22.8415  -51.0478 H         1 UNK         0.0800 
    141 H141        1.7173  -20.9074  -47.9410 H         1 UNK         0.0800 
    142 H142        2.8594  -21.3023  -46.7044 H         1 UNK         0.0800 
    143 H143        1.7504  -23.7989  -47.0395 H         1 UNK         0.0600 
    144 H144        1.3181  -21.7262  -45.0842 H         1 UNK         0.3000 
    145 H145       -0.5546  -23.7380  -42.8218 H         1 UNK         0.0600 
    146 H146        1.3398  -23.3547  -41.2693 H         1 UNK         0.0600 
    147 H147        1.7540  -24.6131  -42.4223 H         1 UNK         0.0600 
    148 H148        2.4136  -22.9938  -42.6218 H         1 UNK         0.0600 
    149 H149        0.7059  -21.2057  -42.5051 H         1 UNK         0.3000 
    150 H150       -1.4270  -19.1853  -44.3728 H         1 UNK         0.0600 
    151 H151       -2.9929  -19.5460  -42.4499 H         1 UNK         0.0600 
    152 H152       -2.1132  -18.0365  -42.2938 H         1 UNK         0.0600 
    153 H153       -1.6436  -19.4341  -41.3263 H         1 UNK         0.0600 
    154 H154        0.3554  -18.3471  -42.3992 H         1 UNK         0.3000 
    155 H155        3.4001  -18.9892  -43.4015 H         1 UNK         0.0600 
    156 H156        3.9888  -16.8738  -44.5703 H         1 UNK         0.0600 
    157 H157        2.3137  -16.6512  -45.0639 H         1 UNK         0.0600 
    158 H158        3.2476  -18.0011  -45.6945 H         1 UNK         0.0600 
    159 H159        1.9379  -16.5077  -42.6720 H         1 UNK         0.3000 
    160 H160        1.4429  -16.6137  -39.8790 H         1 UNK         0.0600 
    161 H161        4.4203  -16.5985  -39.1564 H         1 UNK         0.0600 
    162 H162        3.1559  -17.5449  -38.3870 H         1 UNK         0.0600 
    163 H163        3.1510  -15.7962  -38.2322 H         1 UNK         0.0600 
    164 H164        1.7264  -14.6579  -40.8636 H         1 UNK         0.3000 
    165 H165        4.1128  -12.5733  -41.7149 H         1 UNK         0.0600 
    166 H166        3.2759  -14.2440  -44.1472 H         1 UNK         0.0600 
    167 H167        3.8134  -12.5626  -44.1835 H         1 UNK         0.0600 
    168 H168        4.9302  -13.8297  -43.7114 H         1 UNK         0.0600 
    169 H169        1.4067  -13.4928  -42.6277 H         1 UNK         0.3000 
    170 H170       -0.2146  -11.0600  -40.6898 H         1 UNK         0.0600 
    171 H171        0.3097   -9.5651  -42.5963 H         1 UNK         0.0600 
    172 H172        0.0982  -10.8878  -43.7342 H         1 UNK         0.0600 
    173 H173       -1.2789  -10.2831  -42.8133 H         1 UNK         0.0600 
    174 H174       -1.1141  -12.8459  -42.7596 H         1 UNK         0.3000 
    175 H175       -1.1677  -15.8020  -40.8577 H         1 UNK         0.0600 
    176 H176       -3.6365  -14.0556  -41.3522 H         1 UNK         0.0600 
    177 H177       -3.6319  -15.7958  -41.0603 H         1 UNK         0.0600 
    178 H178       -3.1394  -14.6907  -39.7882 H         1 UNK         0.0600 
    179 H179       -2.5431  -15.2867  -43.2328 H         1 UNK         0.3000 
    180 H180       -0.2819  -16.7462  -45.1720 H         1 UNK         0.0600 
    181 H181       -2.8040  -15.0081  -45.3362 H         1 UNK         0.0600 
    182 H182       -2.7449  -16.7065  -44.8557 H         1 UNK         0.0600 
    183 H183       -2.3197  -16.2418  -46.4904 H         1 UNK         0.0600 
    184 H184        0.5801  -15.2747  -46.5614 H         1 UNK         0.3000 
    185 H185       -0.0484  -11.9531  -47.4460 H         1 UNK         0.0600 
    186 H186        2.3892  -11.6170  -47.2783 H         1 UNK         0.0600 
    187 H187        1.6997  -11.6023  -45.6621 H         1 UNK         0.0600 
    188 H188        2.5537  -13.0301  -46.2388 H         1 UNK         0.0600 
    189 H189        1.7486  -14.1520  -48.1940 H         1 UNK         0.3000 
    190 H190       -0.6959  -21.2431  -46.5357 H         1 UNK         0.3000 
    191 H191       -2.2441  -21.7373  -48.8825 H         1 UNK         0.0600 
    192 H192       -2.4393  -19.6344  -47.5553 H         1 UNK         0.0600 
    193 H193       -3.9941  -20.4262  -47.7099 H         1 UNK         0.0600 
    194 H194       -3.1097  -20.5288  -46.1956 H         1 UNK         0.0600 
    195 H195       -2.4458  -22.9969  -45.5360 H         1 UNK         0.3000 
    196 H196       -4.7034  -24.6683  -45.8776 H         1 UNK         0.0600 
    197 H197       -3.9013  -25.7614  -43.7974 H         1 UNK         0.0600 
    198 H198       -3.7782  -24.0132  -43.6609 H         1 UNK         0.0600 
    199 H199       -2.3351  -24.9794  -43.9577 H         1 UNK         0.0600 
    200 H200       -1.1894  -25.4284  -46.2278 H         1 UNK         0.3000 
    201 H201       -1.4876  -28.1464  -46.9564 H         1 UNK         0.0600 
    202 H202        0.6547  -27.1841  -46.1869 H         1 UNK         0.0600 
    203 H203        0.7453  -26.1522  -47.6131 H         1 UNK         0.0600 
    204 H204        0.8667  -27.9001  -47.7768 H         1 UNK         0.0600 
    205 H205       -1.4256  -25.1915  -48.9670 H         1 UNK         0.3000 
    206 H206       -1.6607  -26.5622  -51.5002 H         1 UNK         0.0600 
    207 H207       -0.6358  -24.3146  -51.2763 H         1 UNK         0.0600 
    208 H208       -2.0213  -24.2377  -52.3514 H         1 UNK         0.0600 
    209 H209       -2.1631  -23.6445  -50.7011 H         1 UNK         0.0600 
    210 H210       -3.9403  -26.0768  -49.0269 H         1 UNK         0.3000 
    211 H211       -6.1283  -26.1413  -48.7742 H         1 UNK         0.0600 
    212 H212       -6.2717  -27.5180  -51.5098 H         1 UNK         0.0600 
    213 H213       -7.4968  -27.5636  -50.2499 H         1 UNK         0.0600 
    214 H214       -5.9400  -28.3297  -49.9799 H         1 UNK         0.0600 
    215 H215       -5.0664  -23.7752  -49.6364 H         1 UNK         0.3000 
    216 H216       -5.4210  -21.7579  -50.3873 H         1 UNK         0.0600 
    217 H217       -7.4629  -21.9550  -48.9624 H         1 UNK         0.0600 
    218 H218       -8.4033  -22.4443  -50.3721 H         1 UNK         0.0600 
    219 H219       -7.7014  -20.8333  -50.2911 H         1 UNK         0.0600 
    220 H220       -4.9242  -23.7929  -52.4575 H         1 UNK         0.3000 
    221 H221       -6.2870  -23.0092  -54.8654 H         1 UNK         0.0600 
    222 H222       -3.6098  -24.4440  -54.4344 H         1 UNK         0.0600 
    223 H223       -5.1834  -25.2234  -54.6025 H         1 UNK         0.0600 
    224 H224       -4.4839  -24.3547  -55.9578 H         1 UNK         0.0600 
    225 H225       -5.3963  -21.9454  -56.6499 H         1 UNK         0.3000 
    226 H226       -4.4481  -20.4082  -57.8778 H         1 UNK         0.0600 
    227 H227       -2.2042  -21.2866  -57.1097 H         1 UNK         0.0600 
    228 H228       -2.1741  -19.5775  -57.5063 H         1 UNK         0.0600 
    229 H229       -2.1916  -20.0787  -55.8254 H         1 UNK         0.0600 
    230 H230       -4.1186  -18.0865  -58.1209 H         1 UNK         0.3000 
    231 H231       -6.0876  -16.5874  -56.7793 H         1 UNK         0.0600 
    232 H232       -5.1916  -14.7057  -58.1636 H         1 UNK         0.0600 
    233 H233       -5.3683  -16.1691  -59.1168 H         1 UNK         0.0600 
    234 H234       -3.7708  -15.6632  -58.5638 H         1 UNK         0.0600 
    235 H235       -2.8034  -17.1217  -55.8648 H         1 UNK         0.3000 
    236 H236       -2.3831  -14.7841  -54.2357 H         1 UNK         0.0600 
    237 H237       -0.5114  -16.1349  -55.1569 H         1 UNK         0.0600 
    238 H238       -0.4419  -16.0868  -53.4051 H         1 UNK         0.0600 
    239 H239       -1.0285  -17.5351  -54.2157 H         1 UNK         0.0600 
    240 H240       -4.1761  -17.7682  -53.7203 H         1 UNK         0.3000 
    241 H241       -4.6172  -17.0056  -50.8707 H         1 UNK         0.0600 
    242 H242       -6.1678  -18.1361  -53.9265 H         1 UNK         0.3800 
    243 H243       -7.7664  -17.9587  -53.2493 H         1 UNK         0.3800 
    244 H244       -4.2890  -19.8595  -51.9013 H         1 UNK         0.0800 
    245 H245       -4.8441  -19.4285  -50.3030 H         1 UNK         0.0800 
    246 H246       -2.0085  -20.9186  -51.8519 H         1 UNK         0.0800 
    247 H247       -1.7526  -19.4342  -52.7386 H         1 UNK         0.0800 
@<TRIPOS>BOND
     1    1    2 1    
     2    1  127 1    
     3    1  128 1    
     4    1  129 1    
     5    2    3 2    
     6    2    4 am   BACKBONE|DICT|INTERRES
     7    4    5 1    
     8    4  130 1    
     9    5    6 1    
    10    5   65 1    
    11    5  131 1    
    12    6    7 1    
    13    6  132 1    
    14    6  133 1    
    15    7    8 1    
    16    8    9 1    
    17    8  134 1    
    18    8  135 1    
    19    9   10 ar   
    20    9   14 ar   
    21   10   11 ar   
    22   10  136 1    
    23   11   12 ar   
    24   11  126 1    
    25   12   13 ar   
    26   12  137 1    
    27   13   14 ar   
    28   13   15 1    
    29   14  138 1    
    30   15   16 1    
    31   15  139 1    
    32   15  140 1    
    33   16   17 1    
    34   17   18 1    
    35   17  141 1    
    36   17  142 1    
    37   18   19 1    
    38   18   67 1    
    39   18  143 1    
    40   19   20 am   BACKBONE|DICT|INTERRES
    41   19  144 1    
    42   20   21 2    
    43   20   22 1    
    44   22   23 1    
    45   22   24 1    
    46   22  145 1    
    47   23  146 1    
    48   23  147 1    
    49   23  148 1    
    50   24   25 am   BACKBONE|DICT|INTERRES
    51   24  149 1    
    52   25   26 2    
    53   25   27 1    
    54   27   28 1    
    55   27   29 1    
    56   27  150 1    
    57   28  151 1    
    58   28  152 1    
    59   28  153 1    
    60   29   30 am   BACKBONE|DICT|INTERRES
    61   29  154 1    
    62   30   31 2    
    63   30   32 1    
    64   32   33 1    
    65   32   34 1    
    66   32  155 1    
    67   33  156 1    
    68   33  157 1    
    69   33  158 1    
    70   34   35 am   BACKBONE|DICT|INTERRES
    71   34  159 1    
    72   35   36 2    
    73   35   37 1    
    74   37   38 1    
    75   37   39 1    
    76   37  160 1    
    77   38  161 1    
    78   38  162 1    
    79   38  163 1    
    80   39   40 am   BACKBONE|DICT|INTERRES
    81   39  164 1    
    82   40   41 2    
    83   40   42 1    
    84   42   43 1    
    85   42   44 1    
    86   42  165 1    
    87   43  166 1    
    88   43  167 1    
    89   43  168 1    
    90   44   45 am   BACKBONE|DICT|INTERRES
    91   44  169 1    
    92   45   46 2    
    93   45   47 1    
    94   47   48 1    
    95   47   49 1    
    96   47  170 1    
    97   48  171 1    
    98   48  172 1    
    99   48  173 1    
   100   49   50 am   BACKBONE|DICT|INTERRES
   101   49  174 1    
   102   50   51 2    
   103   50   52 1    
   104   52   53 1    
   105   52   54 1    
   106   52  175 1    
   107   53  176 1    
   108   53  177 1    
   109   53  178 1    
   110   54   55 am   BACKBONE|DICT|INTERRES
   111   54  179 1    
   112   55   56 2    
   113   55   57 1    
   114   57   58 1    
   115   57   59 1    
   116   57  180 1    
   117   58  181 1    
   118   58  182 1    
   119   58  183 1    
   120   59   60 am   BACKBONE|DICT|INTERRES
   121   59  184 1    
   122   60   61 2    
   123   60   62 1    
   124   62   63 1    
   125   62   64 1    
   126   62  185 1    
   127   63  186 1    
   128   63  187 1    
   129   63  188 1    
   130   64   65 am   BACKBONE|DICT|INTERRES
   131   64  189 1    
   132   65   66 2    
   133   67   68 2    
   134   67   69 am   BACKBONE|DICT|INTERRES
   135   69   70 1    
   136   69  190 1    
   137   70   71 1    
   138   70   72 1    
   139   70  191 1    
   140   71  192 1    
   141   71  193 1    
   142   71  194 1    
   143   72   73 2    
   144   72   74 am   BACKBONE|DICT|INTERRES
   145   74   75 1    
   146   74  195 1    
   147   75   76 1    
   148   75   77 1    
   149   75  196 1    
   150   76  197 1    
   151   76  198 1    
   152   76  199 1    
   153   77   78 2    
   154   77   79 am   BACKBONE|DICT|INTERRES
   155   79   80 1    
   156   79  200 1    
   157   80   81 1    
   158   80   82 1    
   159   80  201 1    
   160   81  202 1    
   161   81  203 1    
   162   81  204 1    
   163   82   83 2    
   164   82   84 am   BACKBONE|DICT|INTERRES
   165   84   85 1    
   166   84  205 1    
   167   85   86 1    
   168   85   87 1    
   169   85  206 1    
   170   86  207 1    
   171   86  208 1    
   172   86  209 1    
   173   87   88 2    
   174   87   89 am   BACKBONE|DICT|INTERRES
   175   89   90 1    
   176   89  210 1    
   177   90   91 1    
   178   90   92 1    
   179   90  211 1    
   180   91  212 1    
   181   91  213 1    
   182   91  214 1    
   183   92   93 2    
   184   92   94 am   BACKBONE|DICT|INTERRES
   185   94   95 1    
   186   94  215 1    
   187   95   96 1    
   188   95   97 1    
   189   95  216 1    
   190   96  217 1    
   191   96  218 1    
   192   96  219 1    
   193   97   98 2    
   194   97   99 am   BACKBONE|DICT|INTERRES
   195   99  100 1    
   196   99  220 1    
   197  100  101 1    
   198  100  102 1    
   199  100  221 1    
   200  101  222 1    
   201  101  223 1    
   202  101  224 1    
   203  102  103 2    
   204  102  104 am   BACKBONE|DICT|INTERRES
   205  104  105 1    
   206  104  225 1    
   207  105  106 1    
   208  105  107 1    
   209  105  226 1    
   210  106  227 1    
   211  106  228 1    
   212  106  229 1    
   213  107  108 2    
   214  107  109 am   BACKBONE|DICT|INTERRES
   215  109  110 1    
   216  109  230 1    
   217  110  111 1    
   218  110  112 1    
   219  110  231 1    
   220  111  232 1    
   221  111  233 1    
   222  111  234 1    
   223  112  113 2    
   224  112  114 am   BACKBONE|DICT|INTERRES
   225  114  115 1    
   226  114  235 1    
   227  115  116 1    
   228  115  117 1    
   229  115  236 1    
   230  116  237 1    
   231  116  238 1    
   232  116  239 1    
   233  117  118 2    
   234  117  119 am   BACKBONE|DICT|INTERRES
   235  119  120 1    
   236  119  240 1    
   237  120  121 1    
   238  120  124 1    
   239  120  241 1    
   240  121  122 am   BACKBONE|DICT|INTERRES
   241  121  123 2    
   242  122  242 1    
   243  122  243 1    
   244  124  125 1    
   245  124  244 1    
   246  124  245 1    
   247  125  126 1    
   248  126  246 1    
   249  126  247 1    
@<TRIPOS>SUBSTRUCTURE
     1 UNK         1 GROUP             0       ****    0 ROOT    
