@<TRIPOS>MOLECULE
3R540
247   249    1
SMALL
USER_CHARGES


@<TRIPOS>ATOM
      1 CA          4.1326  -15.1924  -43.5775 C.3       0 UNK        -0.1800 
      2 C           2.8610  -14.4421  -43.2087 C.2       0 UNK         0.5000 
      3 O           2.8385  -13.7191  -42.2120 O.2       0 UNK        -0.5000 
      4 N           1.8054  -14.6022  -44.0124 N.am      1 UNK        -0.5000 
      5 CA          0.5127  -13.9312  -43.8636 C.3       1 UNK         0.1400 
      6 C6         -0.6484  -14.8058  -44.4016 C.3       23 UNK        -0.0398 
      7 S7         -0.8456  -16.3133  -43.3940 S.3       23 UNK        -0.2404 
      8 C8         -2.6463  -16.5806  -43.4318 C.3       23 UNK        -0.0205 
      9 C9         -3.1111  -17.3089  -44.6867 C.ar      23 UNK        -0.0193 
     10 C10        -4.1139  -16.7656  -45.4958 C.ar      23 UNK        -0.1150 
     11 C11        -4.6043  -17.4774  -46.5967 C.ar      23 UNK        -0.0193 
     12 C12        -4.0667  -18.7339  -46.8960 C.ar      23 UNK        -0.1150 
     13 C13        -3.0505  -19.2790  -46.1074 C.ar      23 UNK        -0.0193 
     14 C14        -2.5858  -18.5651  -45.0014 C.ar      23 UNK        -0.1150 
     15 C15        -2.4747  -20.6487  -46.4264 C.3       23 UNK        -0.0205 
     16 S16        -1.1730  -20.5435  -47.6910 S.3       23 UNK        -0.2404 
     17 C17        -0.4545  -22.2245  -47.8836 C.3       23 UNK        -0.0398 
     18 CA         -0.6246  -23.3455  -46.8177 C.3       11 UNK         0.1400 
     19 N           0.0904  -23.1093  -45.5532 N.am      11 UNK        -0.5000 
     20 C           0.4375  -24.1003  -44.7100 C.2       10 UNK         0.5000 
     21 O           0.1175  -25.2754  -44.8954 O.2       10 UNK        -0.5000 
     22 CA          1.2488  -23.7556  -43.4441 C.3       10 UNK         0.1400 
     23 CB          2.7459  -23.9903  -43.6941 C.3       10 UNK        -0.1800 
     24 N           1.0607  -22.3928  -42.9546 N.am      10 UNK        -0.5000 
     25 C          -0.0935  -21.8759  -42.5150 C.2       9 UNK         0.5000 
     26 O          -1.1378  -22.5216  -42.4178 O.2       9 UNK        -0.5000 
     27 CA         -0.0912  -20.3708  -42.1690 C.3       9 UNK         0.1400 
     28 CB          0.1348  -20.1705  -40.6632 C.3       9 UNK        -0.1800 
     29 N           0.8717  -19.5374  -42.9090 N.am      9 UNK        -0.5000 
     30 C           1.0324  -19.5137  -44.2391 C.2       8 UNK         0.5000 
     31 O           0.5064  -20.3235  -45.0038 O.2       8 UNK        -0.5000 
     32 CA          1.9325  -18.4213  -44.8260 C.3       8 UNK         0.1400 
     33 CB          3.4088  -18.8475  -44.8205 C.3       8 UNK        -0.1800 
     34 N           1.4820  -18.2071  -46.1945 N.am      8 UNK        -0.5000 
     35 C           1.5291  -17.0633  -46.8760 C.2       7 UNK         0.5000 
     36 O           2.0513  -16.0307  -46.4496 O.2       7 UNK        -0.5000 
     37 CA          0.8140  -17.0752  -48.2365 C.3       7 UNK         0.1400 
     38 CB         -0.6770  -16.7648  -48.0527 C.3       7 UNK        -0.1800 
     39 N           1.3927  -16.0931  -49.1471 N.am      7 UNK        -0.5000 
     40 C           2.4776  -16.3048  -49.9042 C.2       6 UNK         0.5000 
     41 O           3.0416  -17.3956  -49.9996 O.2       6 UNK        -0.5000 
     42 CA          3.0404  -15.0947  -50.6805 C.3       6 UNK         0.1400 
     43 CB          2.4437  -15.0335  -52.0943 C.3       6 UNK        -0.1800 
     44 N           2.7891  -13.8243  -49.9992 N.am      6 UNK        -0.5000 
     45 C           3.3478  -13.4699  -48.8355 C.2       5 UNK         0.5000 
     46 O           4.2880  -14.0836  -48.3285 O.2       5 UNK        -0.5000 
     47 CA          2.7776  -12.2390  -48.0970 C.3       5 UNK         0.1400 
     48 CB          3.8408  -11.1321  -48.0001 C.3       5 UNK        -0.1800 
     49 N           1.5387  -11.6370  -48.6114 N.am      5 UNK        -0.5000 
     50 C           0.3549  -12.2311  -48.8237 C.2       4 UNK         0.5000 
     51 O           0.1770  -13.4496  -48.8341 O.2       4 UNK        -0.5000 
     52 CA         -0.8361  -11.2719  -48.9565 C.3       4 UNK         0.1400 
     53 CB         -2.1286  -11.9560  -49.4338 C.3       4 UNK        -0.1800 
     54 N          -1.0399  -10.6820  -47.6399 N.am      4 UNK        -0.5000 
     55 C          -1.5477   -9.4715  -47.3832 C.2       3 UNK         0.5000 
     56 O          -1.9843   -8.7158  -48.2523 O.2       3 UNK        -0.5000 
     57 CA         -1.5522   -9.0141  -45.9071 C.3       3 UNK         0.1400 
     58 CB         -2.9150   -9.3053  -45.2605 C.3       3 UNK        -0.1800 
     59 N          -0.5000   -9.6345  -45.0953 N.am      3 UNK        -0.5000 
     60 C           0.8157   -9.4702  -45.2898 C.2       2 UNK         0.5000 
     61 O           1.2851   -8.6836  -46.1131 O.2       2 UNK        -0.5000 
     62 CA          1.7822  -10.3370  -44.4547 C.3       2 UNK         0.1400 
     63 CB          2.3565   -9.5161  -43.2899 C.3       2 UNK        -0.1800 
     64 N           1.2730  -11.6091  -43.9221 N.am      2 UNK        -0.5000 
     65 C           0.6117  -12.5733  -44.5790 C.2       1 UNK         0.5000 
     66 O           0.1471  -12.4439  -45.7089 O.2       1 UNK        -0.5000 
     67 C          -2.0717  -23.8546  -46.6445 C.2       11 UNK         0.5000 
     68 O          -2.6343  -24.3997  -47.5907 O.2       11 UNK        -0.5000 
     69 N          -2.6303  -23.7247  -45.4321 N.am      12 UNK        -0.5000 
     70 CA         -3.9380  -24.2591  -45.0564 C.3       12 UNK         0.1400 
     71 CB         -4.3945  -23.5785  -43.7576 C.3       12 UNK        -0.1800 
     72 C          -3.9316  -25.7930  -44.8978 C.2       12 UNK         0.5000 
     73 O          -4.9843  -26.4159  -45.0378 O.2       12 UNK        -0.5000 
     74 N          -2.7552  -26.3740  -44.6193 N.am      13 UNK        -0.5000 
     75 CA         -2.5381  -27.8200  -44.5395 C.3       13 UNK         0.1400 
     76 CB         -1.4656  -28.0980  -43.4737 C.3       13 UNK        -0.1800 
     77 C          -2.1222  -28.4230  -45.8967 C.2       13 UNK         0.5000 
     78 O          -2.1179  -29.6471  -46.0370 O.2       13 UNK        -0.5000 
     79 N          -1.7682  -27.5657  -46.8622 N.am      14 UNK        -0.5000 
     80 CA         -1.3915  -27.9305  -48.2248 C.3       14 UNK         0.1400 
     81 CB         -0.4020  -26.8741  -48.7481 C.3       14 UNK        -0.1800 
     82 C          -2.6288  -28.0543  -49.1380 C.2       14 UNK         0.5000 
     83 O          -3.7651  -27.8829  -48.6875 O.2       14 UNK        -0.5000 
     84 N          -2.3798  -28.3630  -50.4171 N.am      15 UNK        -0.5000 
     85 CA         -3.3864  -28.4360  -51.4777 C.3       15 UNK         0.1400 
     86 CB         -2.7209  -29.0045  -52.7413 C.3       15 UNK        -0.1800 
     87 C          -4.0202  -27.0656  -51.7860 C.2       15 UNK         0.5000 
     88 O          -3.4139  -26.0272  -51.5116 O.2       15 UNK        -0.5000 
     89 N          -5.2058  -27.0863  -52.4099 N.am      16 UNK        -0.5000 
     90 CA         -5.9900  -25.9012  -52.7778 C.3       16 UNK         0.1400 
     91 CB         -7.2942  -26.3474  -53.4553 C.3       16 UNK        -0.1800 
     92 C          -5.2375  -24.8945  -53.6707 C.2       16 UNK         0.5000 
     93 O          -5.4237  -23.6885  -53.5154 O.2       16 UNK        -0.5000 
     94 N          -4.3685  -25.4053  -54.5539 N.am      17 UNK        -0.5000 
     95 CA         -3.4982  -24.6101  -55.4218 C.3       17 UNK         0.1400 
     96 CB         -2.8521  -25.5347  -56.4645 C.3       17 UNK        -0.1800 
     97 C          -2.4161  -23.8268  -54.6518 C.2       17 UNK         0.5000 
     98 O          -2.0245  -22.7477  -55.0964 O.2       17 UNK        -0.5000 
     99 N          -1.9629  -24.3703  -53.5135 N.am      18 UNK        -0.5000 
    100 CA        -1.0220  -23.7149  -52.6070 C.3       18 UNK         0.1400 
    101 CB        -0.2281  -24.7747  -51.8290 C.3       18 UNK        -0.1800 
    102 C         -1.7541  -22.7609  -51.6511 C.2       18 UNK         0.5000 
    103 O         -1.2730  -21.6537  -51.4179 O.2       18 UNK        -0.5000 
    104 N         -2.9232  -23.1836  -51.1470 N.am      19 UNK        -0.5000 
    105 CA        -3.7963  -22.3953  -50.2701 C.3       19 UNK         0.1400 
    106 CB        -4.9785  -23.2645  -49.8179 C.3       19 UNK        -0.1800 
    107 C         -4.3079  -21.0939  -50.9207 C.2       19 UNK         0.5000 
    108 O         -4.5595  -20.1186  -50.2163 O.2       19 UNK        -0.5000 
    109 N         -4.4219  -21.0931  -52.2553 N.am      20 UNK        -0.5000 
    110 CA        -4.8089  -19.9528  -53.0855 C.3       20 UNK         0.1400 
    111 CB        -5.1317  -20.4655  -54.4986 C.3       20 UNK        -0.1800 
    112 C         -3.7716  -18.8095  -53.1490 C.2       20 UNK         0.5000 
    113 O         -4.0809  -17.7706  -53.7352 O.2       20 UNK        -0.5000 
    114 N         -2.5757  -18.9897  -52.5626 N.am      21 UNK        -0.5000 
    115 CA        -1.4719  -18.0193  -52.5509 C.3       21 UNK         0.1400 
    116 CB        -0.2821  -18.6083  -51.7780 C.3       21 UNK        -0.1800 
    117 C         -1.8275  -16.6271  -51.9901 C.2       21 UNK         0.5000 
    118 O         -1.2080  -15.6428  -52.3937 O.2       21 UNK        -0.5000 
    119 N         -2.8238  -16.5627  -51.0984 N.am      22 UNK        -0.5000 
    120 CA        -3.3943  -15.3123  -50.5763 C.3       22 UNK         0.1400 
    121 C         -4.3151  -14.5433  -51.5733 C.2       22 UNK         0.5000 
    122 N         -4.6615  -15.0888  -52.7340 N.am      22 UNK        -0.7600 
    123 O         -4.7153  -13.4169  -51.2933 O.2       22 UNK        -0.5000 
    124 C124       -4.0700  -15.5149  -49.1958 C.3       23 UNK        -0.0398 
    125 S125       -5.3744  -16.7905  -49.2015 S.3       23 UNK        -0.2404 
    126 C126       -5.7533  -16.9117  -47.4242 C.3       23 UNK        -0.0205 
    127 H127        4.9836  -14.5114  -43.5821 H         1 UNK         0.0600 
    128 H128        4.0600  -15.6470  -44.5658 H         1 UNK         0.0600 
    129 H129        4.3274  -15.9814  -42.8513 H         1 UNK         0.0600 
    130 H130        1.9066  -15.1563  -44.8623 H         1 UNK         0.3000 
    131 H131        0.3173  -13.7344  -42.8070 H         1 UNK         0.0600 
    132 H132       -1.5831  -14.2430  -44.3895 H         1 UNK         0.0800 
    133 H133       -0.4761  -15.0946  -45.4391 H         1 UNK         0.0800 
    134 H134       -2.9194  -17.1872  -42.5675 H         1 UNK         0.0800 
    135 H135       -3.1658  -15.6293  -43.3086 H         1 UNK         0.0800 
    136 H136       -4.5372  -15.8023  -45.2484 H         1 UNK         0.1150 
    137 H137       -4.4431  -19.2894  -47.7431 H         1 UNK         0.1150 
    138 H138       -1.8170  -18.9920  -44.3768 H         1 UNK         0.1150 
    139 H139       -2.0655  -21.0871  -45.5165 H         1 UNK         0.0800 
    140 H140       -3.2766  -21.2992  -46.7769 H         1 UNK         0.0800 
    141 H141        0.6137  -22.0748  -48.0448 H         1 UNK         0.0800 
    142 H142       -0.8194  -22.6029  -48.8384 H         1 UNK         0.0800 
    143 H143       -0.1119  -24.2014  -47.2624 H         1 UNK         0.0600 
    144 H144        0.3346  -22.1443  -45.3365 H         1 UNK         0.3000 
    145 H145        0.9233  -24.4375  -42.6557 H         1 UNK         0.0600 
    146 H146        3.3265  -23.8441  -42.7830 H         1 UNK         0.0600 
    147 H147        2.9307  -25.0100  -44.0350 H         1 UNK         0.0600 
    148 H148        3.1367  -23.3135  -44.4551 H         1 UNK         0.0600 
    149 H149        1.8552  -21.7748  -43.0243 H         1 UNK         0.3000 
    150 H150       -1.0869  -19.9942  -42.4083 H         1 UNK         0.0600 
    151 H151        1.1372  -20.4789  -40.3637 H         1 UNK         0.0600 
    152 H152       -0.5774  -20.7541  -40.0782 H         1 UNK         0.0600 
    153 H153        0.0047  -19.1257  -40.3800 H         1 UNK         0.0600 
    154 H154        1.3607  -18.8473  -42.3576 H         1 UNK         0.3000 
    155 H155        1.8061  -17.5076  -44.2433 H         1 UNK         0.0600 
    156 H156        3.5594  -19.7794  -45.3671 H         1 UNK         0.0600 
    157 H157        3.7686  -18.9990  -43.8023 H         1 UNK         0.0600 
    158 H158        4.0406  -18.0867  -45.2789 H         1 UNK         0.0600 
    159 H159        0.9617  -18.9948  -46.5658 H         1 UNK         0.3000 
    160 H160        0.9055  -18.0733  -48.6709 H         1 UNK         0.0600 
    161 H161       -0.8433  -15.7345  -47.7381 H         1 UNK         0.0600 
    162 H162       -1.1294  -17.4137  -47.3028 H         1 UNK         0.0600 
    163 H163       -1.2177  -16.9268  -48.9817 H         1 UNK         0.0600 
    164 H164        1.0168  -15.1505  -49.0785 H         1 UNK         0.3000 
    165 H165        4.1202  -15.2301  -50.7704 H         1 UNK         0.0600 
    166 H166        2.6093  -15.9689  -52.6304 H         1 UNK         0.0600 
    167 H167        1.3681  -14.8568  -52.0671 H         1 UNK         0.0600 
    168 H168        2.9002  -14.2365  -52.6814 H         1 UNK         0.0600 
    169 H169        2.0002  -13.2840  -50.3228 H         1 UNK         0.3000 
    170 H170        2.5564  -12.5788  -47.0837 H         1 UNK         0.0600 
    171 H171        3.4929  -10.2962  -47.3932 H         1 UNK         0.0600 
    172 H172        4.1018  -10.7440  -48.9854 H         1 UNK         0.0600 
    173 H173        4.7575  -11.5030  -47.5398 H         1 UNK         0.0600 
    174 H174        1.5450  -10.6274  -48.6354 H         1 UNK         0.3000 
    175 H175       -0.5637  -10.4945  -49.6734 H         1 UNK         0.0600 
    176 H176       -2.9507  -11.2442  -49.5083 H         1 UNK         0.0600 
    177 H177       -1.9879  -12.3899  -50.4238 H         1 UNK         0.0600 
    178 H178       -2.4377  -12.7522  -48.7557 H         1 UNK         0.0600 
    179 H179       -0.6743  -11.2378  -46.8673 H         1 UNK         0.3000 
    180 H180       -1.3910   -7.9342  -45.8974 H         1 UNK         0.0600 
    181 H181       -3.1207  -10.3759  -45.2227 H         1 UNK         0.0600 
    182 H182       -3.7228   -8.8355  -45.8232 H         1 UNK         0.0600 
    183 H183       -2.9608   -8.9170  -44.2429 H         1 UNK         0.0600 
    184 H184       -0.7964  -10.3125  -44.4091 H         1 UNK         0.3000 
    185 H185        2.6095  -10.5971  -45.1168 H         1 UNK         0.0600 
    186 H186        2.7846   -8.5766  -43.6426 H         1 UNK         0.0600 
    187 H187        1.5876   -9.2719  -42.5559 H         1 UNK         0.0600 
    188 H188        3.1509  -10.0589  -42.7771 H         1 UNK         0.0600 
    189 H189        1.6284  -11.8568  -43.0075 H         1 UNK         0.3000 
    190 H190       -2.0909  -23.2909  -44.6948 H         1 UNK         0.3000 
    191 H191       -4.6524  -24.0096  -45.8440 H         1 UNK         0.0600 
    192 H192       -4.4542  -22.4966  -43.8793 H         1 UNK         0.0600 
    193 H193       -5.3841  -23.9276  -43.4601 H         1 UNK         0.0600 
    194 H194       -3.7107  -23.7857  -42.9333 H         1 UNK         0.0600 
    195 H195       -1.9253  -25.7974  -44.5423 H         1 UNK         0.3000 
    196 H196       -3.4598  -28.3155  -44.2276 H         1 UNK         0.0600 
    197 H197       -1.3120  -29.1701  -43.3446 H         1 UNK         0.0600 
    198 H198       -1.7581  -27.6934  -42.5046 H         1 UNK         0.0600 
    199 H199       -0.5043  -27.6601  -43.7442 H         1 UNK         0.0600 
    200 H200       -1.8812  -26.5788  -46.6839 H         1 UNK         0.3000 
    201 H201       -0.8852  -28.8979  -48.2103 H         1 UNK         0.0600 
    202 H202        0.0427  -27.1809  -49.6949 H         1 UNK         0.0600 
    203 H203       -0.8906  -25.9137  -48.9109 H         1 UNK         0.0600 
    204 H204        0.4183  -26.7181  -48.0469 H         1 UNK         0.0600 
    205 H205       -1.4208  -28.4720  -50.7107 H         1 UNK         0.3000 
    206 H206       -4.1753  -29.1176  -51.1532 H         1 UNK         0.0600 
    207 H207       -2.2911  -29.9885  -52.5522 H         1 UNK         0.0600 
    208 H208       -3.4427  -29.1199  -53.5508 H         1 UNK         0.0600 
    209 H209       -1.9234  -28.3540  -53.1034 H         1 UNK         0.0600 
    210 H210       -5.6278  -27.9796  -52.6195 H         1 UNK         0.3000 
    211 H211       -6.2508  -25.3867  -51.8520 H         1 UNK         0.0600 
    212 H212       -7.1012  -26.9085  -54.3705 H         1 UNK         0.0600 
    213 H213       -7.9104  -25.4873  -53.7211 H         1 UNK         0.0600 
    214 H214       -7.8881  -26.9775  -52.7930 H         1 UNK         0.0600 
    215 H215       -4.2784  -26.4087  -54.6126 H         1 UNK         0.3000 
    216 H216       -4.1197  -23.8820  -55.9476 H         1 UNK         0.0600 
    217 H217       -2.2134  -24.9698  -57.1449 H         1 UNK         0.0600 
    218 H218       -3.6076  -26.0350  -57.0706 H         1 UNK         0.0600 
    219 H219       -2.2346  -26.3017  -55.9951 H         1 UNK         0.0600 
    220 H220       -2.3896  -25.2232  -53.1743 H         1 UNK         0.3000 
    221 H221       -0.3095  -23.1252  -53.1881 H         1 UNK         0.0600 
    222 H222       -0.8841  -25.4267  -51.2547 H         1 UNK         0.0600 
    223 H223        0.3567  -25.4007  -52.5029 H         1 UNK         0.0600 
    224 H224        0.4672  -24.3085  -51.1298 H         1 UNK         0.0600 
    225 H225       -3.2183  -24.1357  -51.3458 H         1 UNK         0.3000 
    226 H226       -3.2165  -22.1206  -49.3877 H         1 UNK         0.0600 
    227 H227       -5.5607  -22.7556  -49.0491 H         1 UNK         0.0600 
    228 H228       -5.6511  -23.4842  -50.6463 H         1 UNK         0.0600 
    229 H229       -4.6409  -24.2124  -49.3981 H         1 UNK         0.0600 
    230 H230       -4.2622  -21.9665  -52.7419 H         1 UNK         0.3000 
    231 H231       -5.7208  -19.5270  -52.6624 H         1 UNK         0.0600 
    232 H232       -4.2667  -20.9454  -54.9578 H         1 UNK         0.0600 
    233 H233       -5.4435  -19.6516  -55.1544 H         1 UNK         0.0600 
    234 H234       -5.9462  -21.1896  -54.4786 H         1 UNK         0.0600 
    235 H235       -2.3906  -19.8757  -52.1071 H         1 UNK         0.3000 
    236 H236       -1.1630  -17.8734  -53.5876 H         1 UNK         0.0600 
    237 H237        0.5432  -17.8975  -51.7221 H         1 UNK         0.0600 
    238 H238       -0.5583  -18.8733  -50.7563 H         1 UNK         0.0600 
    239 H239        0.1003  -19.5043  -52.2666 H         1 UNK         0.0600 
    240 H240       -3.2986  -17.4133  -50.8293 H         1 UNK         0.3000 
    241 H241       -2.5504  -14.6450  -50.4007 H         1 UNK         0.0600 
    242 H242       -4.3534  -16.0213  -52.9946 H         1 UNK         0.3800 
    243 H243       -5.2524  -14.5702  -53.3635 H         1 UNK         0.3800 
    244 H244       -4.4907  -14.5782  -48.8261 H         1 UNK         0.0800 
    245 H245       -3.3149  -15.8025  -48.4650 H         1 UNK         0.0800 
    246 H246       -6.0502  -15.9274  -47.0592 H         1 UNK         0.0800 
    247 H247       -6.6216  -17.5595  -47.2980 H         1 UNK         0.0800 
@<TRIPOS>BOND
     1    1    2 1    
     2    1  127 1    
     3    1  128 1    
     4    1  129 1    
     5    2    3 2    
     6    2    4 am   BACKBONE|DICT|INTERRES
     7    4    5 1    
     8    4  130 1    
     9    5    6 1    
    10    5   65 1    
    11    5  131 1    
    12    6    7 1    
    13    6  132 1    
    14    6  133 1    
    15    7    8 1    
    16    8    9 1    
    17    8  134 1    
    18    8  135 1    
    19    9   10 ar   
    20    9   14 ar   
    21   10   11 ar   
    22   10  136 1    
    23   11   12 ar   
    24   11  126 1    
    25   12   13 ar   
    26   12  137 1    
    27   13   14 ar   
    28   13   15 1    
    29   14  138 1    
    30   15   16 1    
    31   15  139 1    
    32   15  140 1    
    33   16   17 1    
    34   17   18 1    
    35   17  141 1    
    36   17  142 1    
    37   18   19 1    
    38   18   67 1    
    39   18  143 1    
    40   19   20 am   BACKBONE|DICT|INTERRES
    41   19  144 1    
    42   20   21 2    
    43   20   22 1    
    44   22   23 1    
    45   22   24 1    
    46   22  145 1    
    47   23  146 1    
    48   23  147 1    
    49   23  148 1    
    50   24   25 am   BACKBONE|DICT|INTERRES
    51   24  149 1    
    52   25   26 2    
    53   25   27 1    
    54   27   28 1    
    55   27   29 1    
    56   27  150 1    
    57   28  151 1    
    58   28  152 1    
    59   28  153 1    
    60   29   30 am   BACKBONE|DICT|INTERRES
    61   29  154 1    
    62   30   31 2    
    63   30   32 1    
    64   32   33 1    
    65   32   34 1    
    66   32  155 1    
    67   33  156 1    
    68   33  157 1    
    69   33  158 1    
    70   34   35 am   BACKBONE|DICT|INTERRES
    71   34  159 1    
    72   35   36 2    
    73   35   37 1    
    74   37   38 1    
    75   37   39 1    
    76   37  160 1    
    77   38  161 1    
    78   38  162 1    
    79   38  163 1    
    80   39   40 am   BACKBONE|DICT|INTERRES
    81   39  164 1    
    82   40   41 2    
    83   40   42 1    
    84   42   43 1    
    85   42   44 1    
    86   42  165 1    
    87   43  166 1    
    88   43  167 1    
    89   43  168 1    
    90   44   45 am   BACKBONE|DICT|INTERRES
    91   44  169 1    
    92   45   46 2    
    93   45   47 1    
    94   47   48 1    
    95   47   49 1    
    96   47  170 1    
    97   48  171 1    
    98   48  172 1    
    99   48  173 1    
   100   49   50 am   BACKBONE|DICT|INTERRES
   101   49  174 1    
   102   50   51 2    
   103   50   52 1    
   104   52   53 1    
   105   52   54 1    
   106   52  175 1    
   107   53  176 1    
   108   53  177 1    
   109   53  178 1    
   110   54   55 am   BACKBONE|DICT|INTERRES
   111   54  179 1    
   112   55   56 2    
   113   55   57 1    
   114   57   58 1    
   115   57   59 1    
   116   57  180 1    
   117   58  181 1    
   118   58  182 1    
   119   58  183 1    
   120   59   60 am   BACKBONE|DICT|INTERRES
   121   59  184 1    
   122   60   61 2    
   123   60   62 1    
   124   62   63 1    
   125   62   64 1    
   126   62  185 1    
   127   63  186 1    
   128   63  187 1    
   129   63  188 1    
   130   64   65 am   BACKBONE|DICT|INTERRES
   131   64  189 1    
   132   65   66 2    
   133   67   68 2    
   134   67   69 am   BACKBONE|DICT|INTERRES
   135   69   70 1    
   136   69  190 1    
   137   70   71 1    
   138   70   72 1    
   139   70  191 1    
   140   71  192 1    
   141   71  193 1    
   142   71  194 1    
   143   72   73 2    
   144   72   74 am   BACKBONE|DICT|INTERRES
   145   74   75 1    
   146   74  195 1    
   147   75   76 1    
   148   75   77 1    
   149   75  196 1    
   150   76  197 1    
   151   76  198 1    
   152   76  199 1    
   153   77   78 2    
   154   77   79 am   BACKBONE|DICT|INTERRES
   155   79   80 1    
   156   79  200 1    
   157   80   81 1    
   158   80   82 1    
   159   80  201 1    
   160   81  202 1    
   161   81  203 1    
   162   81  204 1    
   163   82   83 2    
   164   82   84 am   BACKBONE|DICT|INTERRES
   165   84   85 1    
   166   84  205 1    
   167   85   86 1    
   168   85   87 1    
   169   85  206 1    
   170   86  207 1    
   171   86  208 1    
   172   86  209 1    
   173   87   88 2    
   174   87   89 am   BACKBONE|DICT|INTERRES
   175   89   90 1    
   176   89  210 1    
   177   90   91 1    
   178   90   92 1    
   179   90  211 1    
   180   91  212 1    
   181   91  213 1    
   182   91  214 1    
   183   92   93 2    
   184   92   94 am   BACKBONE|DICT|INTERRES
   185   94   95 1    
   186   94  215 1    
   187   95   96 1    
   188   95   97 1    
   189   95  216 1    
   190   96  217 1    
   191   96  218 1    
   192   96  219 1    
   193   97   98 2    
   194   97   99 am   BACKBONE|DICT|INTERRES
   195   99  100 1    
   196   99  220 1    
   197  100  101 1    
   198  100  102 1    
   199  100  221 1    
   200  101  222 1    
   201  101  223 1    
   202  101  224 1    
   203  102  103 2    
   204  102  104 am   BACKBONE|DICT|INTERRES
   205  104  105 1    
   206  104  225 1    
   207  105  106 1    
   208  105  107 1    
   209  105  226 1    
   210  106  227 1    
   211  106  228 1    
   212  106  229 1    
   213  107  108 2    
   214  107  109 am   BACKBONE|DICT|INTERRES
   215  109  110 1    
   216  109  230 1    
   217  110  111 1    
   218  110  112 1    
   219  110  231 1    
   220  111  232 1    
   221  111  233 1    
   222  111  234 1    
   223  112  113 2    
   224  112  114 am   BACKBONE|DICT|INTERRES
   225  114  115 1    
   226  114  235 1    
   227  115  116 1    
   228  115  117 1    
   229  115  236 1    
   230  116  237 1    
   231  116  238 1    
   232  116  239 1    
   233  117  118 2    
   234  117  119 am   BACKBONE|DICT|INTERRES
   235  119  120 1    
   236  119  240 1    
   237  120  121 1    
   238  120  124 1    
   239  120  241 1    
   240  121  122 am   BACKBONE|DICT|INTERRES
   241  121  123 2    
   242  122  242 1    
   243  122  243 1    
   244  124  125 1    
   245  124  244 1    
   246  124  245 1    
   247  125  126 1    
   248  126  246 1    
   249  126  247 1    
@<TRIPOS>SUBSTRUCTURE
     1 UNK         1 GROUP             0       ****    0 ROOT    
