@<TRIPOS>MOLECULE
3R540
247   249    1
SMALL
USER_CHARGES


@<TRIPOS>ATOM
      1 CA         -0.0692  -11.4643  -47.2692 C.3       0 UNK        -0.1800 
      2 C           1.1550  -12.3654  -47.3193 C.2       0 UNK         0.5000 
      3 O           1.2264  -13.3343  -46.5640 O.2       0 UNK        -0.5000 
      4 N           2.1128  -12.0557  -48.2038 N.am      1 UNK        -0.5000 
      5 CA          3.4023  -12.7319  -48.4080 C.3       1 UNK         0.1400 
      6 C6          3.2710  -14.2435  -48.7510 C.3       23 UNK        -0.0398 
      7 S7          4.8521  -15.0921  -49.0844 S.3       23 UNK        -0.2404 
      8 C8          4.7495  -15.3861  -50.8780 C.3       23 UNK        -0.0205 
      9 C9          3.7719  -16.4941  -51.2553 C.ar      23 UNK        -0.0193 
     10 C10         2.8112  -16.2723  -52.2462 C.ar      23 UNK        -0.1150 
     11 C11         1.9727  -17.3064  -52.6746 C.ar      23 UNK        -0.0193 
     12 C12         2.0869  -18.5704  -52.0816 C.ar      23 UNK        -0.1150 
     13 C13         3.0346  -18.8036  -51.0808 C.ar      23 UNK        -0.0193 
     14 C14         3.8748  -17.7627  -50.6759 C.ar      23 UNK        -0.1150 
     15 C15         3.2021  -20.1907  -50.4766 C.3       23 UNK        -0.0205 
     16 S16         2.3874  -20.3376  -48.8559 S.3       23 UNK        -0.2404 
     17 C17         0.6550  -20.6523  -49.3293 C.3       23 UNK        -0.0398 
     18 CA         -0.0858  -21.5022  -48.2664 C.3       11 UNK         0.1400 
     19 N          -0.3150  -20.7727  -47.0123 N.am      11 UNK        -0.5000 
     20 C          -0.8415  -21.3011  -45.8965 C.2       10 UNK         0.5000 
     21 O          -1.1200  -22.4926  -45.7714 O.2       10 UNK        -0.5000 
     22 CA         -1.1833  -20.3298  -44.7497 C.3       10 UNK         0.1400 
     23 CB          0.0466  -20.0373  -43.8773 C.3       10 UNK        -0.1800 
     24 N          -1.7704  -19.0809  -45.2393 N.am      10 UNK        -0.5000 
     25 C          -2.9475  -19.0049  -45.8781 C.2       9 UNK         0.5000 
     26 O          -3.6931  -19.9690  -46.0430 O.2       9 UNK        -0.5000 
     27 CA         -3.3389  -17.6435  -46.4763 C.3       9 UNK         0.1400 
     28 CB         -4.1237  -16.7988  -45.4616 C.3       9 UNK        -0.1800 
     29 N          -2.1669  -16.9038  -46.9419 N.am      9 UNK        -0.5000 
     30 C          -1.5087  -17.1808  -48.0765 C.2       8 UNK         0.5000 
     31 O          -1.8624  -18.0508  -48.8730 O.2       8 UNK        -0.5000 
     32 CA         -0.2223  -16.3733  -48.3459 C.3       8 UNK         0.1400 
     33 CB         -0.5685  -15.0323  -49.0062 C.3       8 UNK        -0.1800 
     34 N           0.5603  -16.1168  -47.1349 N.am      8 UNK        -0.5000 
     35 C           1.1117  -17.0677  -46.3687 C.2       7 UNK         0.5000 
     36 O           1.0627  -18.2648  -46.6385 O.2       7 UNK        -0.5000 
     37 CA          1.7564  -16.6210  -45.0401 C.3       7 UNK         0.1400 
     38 CB          3.2542  -16.3490  -45.2259 C.3       7 UNK        -0.1800 
     39 N           1.1121  -15.4530  -44.4308 N.am      7 UNK        -0.5000 
     40 C          -0.1857  -15.3825  -44.1094 C.2       6 UNK         0.5000 
     41 O          -0.9696  -16.3225  -44.2530 O.2       6 UNK        -0.5000 
     42 CA         -0.6766  -14.0315  -43.5565 C.3       6 UNK         0.1400 
     43 CB         -2.2148  -13.9148  -43.5577 C.3       6 UNK        -0.1800 
     44 N          -0.1404  -13.7290  -42.2257 N.am      6 UNK        -0.5000 
     45 C          -0.2562  -14.4659  -41.1108 C.2       5 UNK         0.5000 
     46 O          -0.8252  -15.5566  -41.0426 O.2       5 UNK        -0.5000 
     47 CA          0.3322  -13.8412  -39.8348 C.3       5 UNK         0.1400 
     48 CB         -0.7763  -13.1090  -39.0624 C.3       5 UNK        -0.1800 
     49 N           0.9397  -14.8279  -38.9366 N.am      5 UNK        -0.5000 
     50 C           1.9769  -15.6728  -39.0934 C.2       4 UNK         0.5000 
     51 O           2.2129  -16.5046  -38.2183 O.2       4 UNK        -0.5000 
     52 CA          2.9364  -15.6470  -40.3130 C.3       4 UNK         0.1400 
     53 CB          2.5487  -16.7041  -41.3587 C.3       4 UNK        -0.1800 
     54 N           3.1405  -14.3490  -40.9550 N.am      4 UNK        -0.5000 
     55 C           3.7712  -13.3110  -40.3926 C.2       3 UNK         0.5000 
     56 O           4.3326  -13.3687  -39.2972 O.2       3 UNK        -0.5000 
     57 CA          3.7478  -11.9892  -41.1900 C.3       3 UNK         0.1400 
     58 CB          4.3661  -10.8154  -40.4092 C.3       3 UNK        -0.1800 
     59 N           4.4245  -12.0986  -42.4813 N.am      3 UNK        -0.5000 
     60 C           3.9329  -12.6738  -43.5842 C.2       2 UNK         0.5000 
     61 O           2.8376  -13.2447  -43.6375 O.2       2 UNK        -0.5000 
     62 CA          4.8355  -12.6085  -44.8221 C.3       2 UNK         0.1400 
     63 CB          5.9553  -13.6638  -44.7499 C.3       2 UNK        -0.1800 
     64 N           4.0339  -12.7983  -46.0254 N.am      2 UNK        -0.5000 
     65 C           4.3939  -12.4339  -47.2601 C.2       1 UNK         0.5000 
     66 O           5.4535  -11.8584  -47.5152 O.2       1 UNK        -0.5000 
     67 C          -1.3968  -22.0755  -48.8421 C.2       11 UNK         0.5000 
     68 O          -1.4267  -23.2489  -49.2158 O.2       11 UNK        -0.5000 
     69 N          -2.4627  -21.2615  -48.8540 N.am      12 UNK        -0.5000 
     70 CA         -3.7997  -21.6682  -49.2890 C.3       12 UNK         0.1400 
     71 CB         -4.7238  -20.4415  -49.3506 C.3       12 UNK        -0.1800 
     72 C          -4.4007  -22.7610  -48.3886 C.2       12 UNK         0.5000 
     73 O          -4.9375  -23.7410  -48.9034 O.2       12 UNK        -0.5000 
     74 N          -4.2712  -22.5903  -47.0654 N.am      13 UNK        -0.5000 
     75 CA         -4.7257  -23.5394  -46.0495 C.3       13 UNK         0.1400 
     76 CB         -4.5894  -22.9098  -44.6554 C.3       13 UNK        -0.1800 
     77 C          -3.9883  -24.8883  -46.1161 C.2       13 UNK         0.5000 
     78 O          -4.6369  -25.9322  -46.0461 O.2       13 UNK        -0.5000 
     79 N          -2.6600  -24.8513  -46.2966 N.am      14 UNK        -0.5000 
     80 CA         -1.8051  -26.0309  -46.4638 C.3       14 UNK         0.1400 
     81 CB         -0.3313  -25.5980  -46.4693 C.3       14 UNK        -0.1800 
     82 C          -2.1356  -26.8405  -47.7321 C.2       14 UNK         0.5000 
     83 O          -2.0643  -28.0694  -47.7087 O.2       14 UNK        -0.5000 
     84 N          -2.5301  -26.1364  -48.7996 N.am      15 UNK        -0.5000 
     85 CA         -3.0064  -26.7041  -50.0604 C.3       15 UNK         0.1400 
     86 CB         -2.6747  -25.7111  -51.1821 C.3       15 UNK        -0.1800 
     87 C          -4.5131  -27.0469  -50.0472 C.2       15 UNK         0.5000 
     88 O          -5.0421  -27.4570  -51.0816 O.2       15 UNK        -0.5000 
     89 N          -5.1892  -26.8538  -48.9024 N.am      16 UNK        -0.5000 
     90 CA         -6.6148  -27.1004  -48.6465 C.3       16 UNK         0.1400 
     91 CB         -6.9000  -28.6163  -48.6466 C.3       16 UNK        -0.1800 
     92 C          -7.5617  -26.3178  -49.5839 C.2       16 UNK         0.5000 
     93 O          -8.6615  -26.7873  -49.8803 O.2       16 UNK        -0.5000 
     94 N          -7.0979  -25.1512  -50.0563 N.am      17 UNK        -0.5000 
     95 CA         -7.7143  -24.2568  -51.0414 C.3       17 UNK         0.1400 
     96 CB         -9.0144  -23.6436  -50.4831 C.3       17 UNK        -0.1800 
     97 C          -7.9106  -24.8746  -52.4461 C.2       17 UNK         0.5000 
     98 O          -8.5808  -24.2649  -53.2811 O.2       17 UNK        -0.5000 
     99 N          -7.3132  -26.0471  -52.7086 N.am      18 UNK        -0.5000 
    100 CA        -7.3382  -26.7194  -54.0116 C.3       18 UNK         0.1400 
    101 CB        -7.0765  -28.2191  -53.8048 C.3       18 UNK        -0.1800 
    102 C         -6.3138  -26.1206  -54.9951 C.2       18 UNK         0.5000 
    103 O         -6.4489  -26.2971  -56.2065 O.2       18 UNK        -0.5000 
    104 N         -5.3184  -25.4175  -54.4507 N.am      19 UNK        -0.5000 
    105 CA        -4.2723  -24.6752  -55.1355 C.3       19 UNK         0.1400 
    106 CB        -3.1463  -25.6372  -55.5594 C.3       19 UNK        -0.1800 
    107 C         -3.7673  -23.5971  -54.1628 C.2       19 UNK         0.5000 
    108 O         -4.2157  -23.5578  -53.0132 O.2       19 UNK        -0.5000 
    109 N         -2.8430  -22.7499  -54.6379 N.am      20 UNK        -0.5000 
    110 CA        -2.1058  -21.7356  -53.8696 C.3       20 UNK         0.1400 
    111 CB        -1.0863  -22.4174  -52.9325 C.3       20 UNK        -0.1800 
    112 C         -3.0068  -20.7313  -53.1193 C.2       20 UNK         0.5000 
    113 O         -2.6567  -20.2924  -52.0236 O.2       20 UNK        -0.5000 
    114 N         -4.1521  -20.3792  -53.7222 N.am      21 UNK        -0.5000 
    115 CA        -5.1729  -19.4751  -53.1828 C.3       21 UNK         0.1400 
    116 CB        -6.4961  -19.7287  -53.9266 C.3       21 UNK        -0.1800 
    117 C         -4.7307  -17.9951  -53.2261 C.2       21 UNK         0.5000 
    118 O         -5.3835  -17.1604  -53.8552 O.2       21 UNK        -0.5000 
    119 N         -3.5960  -17.7156  -52.5821 N.am      22 UNK        -0.5000 
    120 CA        -2.8799  -16.4341  -52.5955 C.3       22 UNK         0.1400 
    121 C         -3.4529  -15.3673  -51.6196 C.2       22 UNK         0.5000 
    122 N         -4.3544  -15.7118  -50.7081 N.am      22 UNK        -0.7600 
    123 O         -3.0790  -14.2008  -51.6995 O.2       22 UNK        -0.5000 
    124 C124       -1.3620  -16.6550  -52.3647 C.3       23 UNK        -0.0398 
    125 S125       -0.6365  -17.7783  -53.6084 S.3       23 UNK        -0.2404 
    126 C126        1.0210  -17.0644  -53.8430 C.3       23 UNK        -0.0205 
    127 H127       -0.0145  -10.6633  -48.0066 H         1 UNK         0.0600 
    128 H128       -0.1594  -11.0138  -46.2809 H         1 UNK         0.0600 
    129 H129       -0.9709  -12.0448  -47.4628 H         1 UNK         0.0600 
    130 H130        1.9826  -11.2320  -48.7748 H         1 UNK         0.3000 
    131 H131        3.8244  -12.2555  -49.2946 H         1 UNK         0.0600 
    132 H132        2.7880  -14.7856  -47.9429 H         1 UNK         0.0800 
    133 H133        2.6186  -14.3626  -49.6156 H         1 UNK         0.0800 
    134 H134        4.4964  -14.4498  -51.3780 H         1 UNK         0.0800 
    135 H135        5.7397  -15.6665  -51.2392 H         1 UNK         0.0800 
    136 H136        2.7458  -15.3017  -52.7178 H         1 UNK         0.1150 
    137 H137        1.4568  -19.3812  -52.4191 H         1 UNK         0.1150 
    138 H138        4.6256  -17.9468  -49.9201 H         1 UNK         0.1150 
    139 H139        2.8325  -20.9594  -51.1569 H         1 UNK         0.0800 
    140 H140        4.2656  -20.3961  -50.3467 H         1 UNK         0.0800 
    141 H141        0.6536  -21.1661  -50.2920 H         1 UNK         0.0800 
    142 H142        0.1525  -19.6980  -49.4927 H         1 UNK         0.0800 
    143 H143        0.5447  -22.3603  -48.0231 H         1 UNK         0.0600 
    144 H144       -0.0261  -19.7979  -46.9975 H         1 UNK         0.3000 
    145 H145       -1.9306  -20.8117  -44.1162 H         1 UNK         0.0600 
    146 H146       -0.1725  -19.2877  -43.1163 H         1 UNK         0.0600 
    147 H147        0.3733  -20.9409  -43.3615 H         1 UNK         0.0600 
    148 H148        0.8905  -19.6841  -44.4675 H         1 UNK         0.0600 
    149 H149       -1.2399  -18.2288  -45.0991 H         1 UNK         0.3000 
    150 H150       -3.9924  -17.8299  -47.3313 H         1 UNK         0.0600 
    151 H151       -4.4015  -15.8323  -45.8823 H         1 UNK         0.0600 
    152 H152       -3.5521  -16.6181  -44.5516 H         1 UNK         0.0600 
    153 H153       -5.0453  -17.3040  -45.1703 H         1 UNK         0.0600 
    154 H154       -1.7667  -16.2410  -46.2914 H         1 UNK         0.3000 
    155 H155        0.3984  -16.9510  -49.0348 H         1 UNK         0.0600 
    156 H156       -1.1685  -15.1785  -49.9007 H         1 UNK         0.0600 
    157 H157        0.3266  -14.4931  -49.3094 H         1 UNK         0.0600 
    158 H158       -1.1398  -14.3901  -48.3355 H         1 UNK         0.0600 
    159 H159        0.6639  -15.1480  -46.8449 H         1 UNK         0.3000 
    160 H160        1.6523  -17.4466  -44.3349 H         1 UNK         0.0600 
    161 H161        3.7589  -17.2130  -45.6600 H         1 UNK         0.0600 
    162 H162        3.7365  -16.1345  -44.2737 H         1 UNK         0.0600 
    163 H163        3.4309  -15.5017  -45.8848 H         1 UNK         0.0600 
    164 H164        1.6907  -14.6288  -44.2937 H         1 UNK         0.3000 
    165 H165       -0.2922  -13.2622  -44.2282 H         1 UNK         0.0600 
    166 H166       -2.5348  -12.9274  -43.2253 H         1 UNK         0.0600 
    167 H167       -2.6155  -14.0651  -44.5608 H         1 UNK         0.0600 
    168 H168       -2.6802  -14.6545  -42.9054 H         1 UNK         0.0600 
    169 H169        0.3552  -12.8509  -42.1689 H         1 UNK         0.3000 
    170 H170        1.0662  -13.0854  -40.1000 H         1 UNK         0.0600 
    171 H171       -0.3786  -12.6073  -38.1797 H         1 UNK         0.0600 
    172 H172       -1.2478  -12.3449  -39.6821 H         1 UNK         0.0600 
    173 H173       -1.5601  -13.7936  -38.7350 H         1 UNK         0.0600 
    174 H174        0.4110  -14.9577  -38.0878 H         1 UNK         0.3000 
    175 H175        3.9111  -15.9506  -39.9242 H         1 UNK         0.0600 
    176 H176        1.6348  -16.4458  -41.8880 H         1 UNK         0.0600 
    177 H177        3.3407  -16.8333  -42.0946 H         1 UNK         0.0600 
    178 H178        2.3871  -17.6763  -40.8913 H         1 UNK         0.0600 
    179 H179        2.7693  -14.2267  -41.8905 H         1 UNK         0.3000 
    180 H180        2.7003  -11.7413  -41.3721 H         1 UNK         0.0600 
    181 H181        4.2738   -9.8812  -40.9634 H         1 UNK         0.0600 
    182 H182        5.4245  -10.9800  -40.2033 H         1 UNK         0.0600 
    183 H183        3.8625  -10.6727  -39.4521 H         1 UNK         0.0600 
    184 H184        5.3491  -11.6946  -42.5228 H         1 UNK         0.3000 
    185 H185        5.2821  -11.6124  -44.8547 H         1 UNK         0.0600 
    186 H186        5.5571  -14.6774  -44.7421 H         1 UNK         0.0600 
    187 H187        6.6338  -13.5817  -45.5990 H         1 UNK         0.0600 
    188 H188        6.5557  -13.5414  -43.8478 H         1 UNK         0.0600 
    189 H189        3.1028  -13.1776  -45.8749 H         1 UNK         0.3000 
    190 H190       -2.3502  -20.2997  -48.5606 H         1 UNK         0.3000 
    191 H191       -3.7102  -22.0809  -50.2962 H         1 UNK         0.0600 
    192 H192       -4.9340  -20.0377  -48.3609 H         1 UNK         0.0600 
    193 H193       -5.6799  -20.7021  -49.8056 H         1 UNK         0.0600 
    194 H194       -4.2821  -19.6420  -49.9449 H         1 UNK         0.0600 
    195 H195       -3.8603  -21.7242  -46.7258 H         1 UNK         0.3000 
    196 H196       -5.7850  -23.7327  -46.2309 H         1 UNK         0.0600 
    197 H197       -4.9564  -23.5871  -43.8833 H         1 UNK         0.0600 
    198 H198       -5.1664  -21.9878  -44.5812 H         1 UNK         0.0600 
    199 H199       -3.5517  -22.6742  -44.4196 H         1 UNK         0.0600 
    200 H200       -2.1896  -23.9488  -46.2961 H         1 UNK         0.3000 
    201 H201       -1.9661  -26.6838  -45.6036 H         1 UNK         0.0600 
    202 H202       -0.0622  -25.1058  -45.5346 H         1 UNK         0.0600 
    203 H203       -0.1197  -24.9053  -47.2848 H         1 UNK         0.0600 
    204 H204        0.3297  -26.4576  -46.5863 H         1 UNK         0.0600 
    205 H205       -2.5202  -25.1242  -48.7419 H         1 UNK         0.3000 
    206 H206       -2.4700  -27.6330  -50.2636 H         1 UNK         0.0600 
    207 H207       -1.6002  -25.5440  -51.2571 H         1 UNK         0.0600 
    208 H208       -3.0163  -26.0722  -52.1525 H         1 UNK         0.0600 
    209 H209       -3.1468  -24.7459  -50.9986 H         1 UNK         0.0600 
    210 H210       -4.6774  -26.4806  -48.1122 H         1 UNK         0.3000 
    211 H211       -6.8121  -26.7264  -47.6411 H         1 UNK         0.0600 
    212 H212       -6.7803  -29.0495  -49.6402 H         1 UNK         0.0600 
    213 H213       -7.9189  -28.8250  -48.3186 H         1 UNK         0.0600 
    214 H214       -6.2289  -29.1428  -47.9679 H         1 UNK         0.0600 
    215 H215       -6.1946  -24.8337  -49.7072 H         1 UNK         0.3000 
    216 H216       -7.0014  -23.4420  -51.1781 H         1 UNK         0.0600 
    217 H217       -9.3938  -22.8612  -51.1413 H         1 UNK         0.0600 
    218 H218       -8.8474  -23.1896  -49.5063 H         1 UNK         0.0600 
    219 H219       -9.8018  -24.3902  -50.3772 H         1 UNK         0.0600 
    220 H220       -6.7563  -26.4877  -51.9848 H         1 UNK         0.3000 
    221 H221       -8.3309  -26.6051  -54.4520 H         1 UNK         0.0600 
    222 H222       -6.0794  -28.4025  -53.4030 H         1 UNK         0.0600 
    223 H223       -7.8010  -28.6553  -53.1168 H         1 UNK         0.0600 
    224 H224       -7.1542  -28.7618  -54.7477 H         1 UNK         0.0600 
    225 H225       -5.3193  -25.2703  -53.4484 H         1 UNK         0.3000 
    226 H226       -4.6927  -24.1795  -56.0126 H         1 UNK         0.0600 
    227 H227       -3.5212  -26.4185  -56.2207 H         1 UNK         0.0600 
    228 H228       -2.3574  -25.1126  -56.0991 H         1 UNK         0.0600 
    229 H229       -2.6884  -26.1226  -54.6967 H         1 UNK         0.0600 
    230 H230       -2.5628  -22.8444  -55.6041 H         1 UNK         0.3000 
    231 H231       -1.5425  -21.1475  -54.5955 H         1 UNK         0.0600 
    232 H232       -1.5816  -22.9614  -52.1273 H         1 UNK         0.0600 
    233 H233       -0.4564  -23.1215  -53.4758 H         1 UNK         0.0600 
    234 H234       -0.4263  -21.6816  -52.4721 H         1 UNK         0.0600 
    235 H235       -4.3445  -20.7737  -54.6306 H         1 UNK         0.3000 
    236 H236       -5.3359  -19.7297  -52.1349 H         1 UNK         0.0600 
    237 H237       -6.4083  -19.5097  -54.9915 H         1 UNK         0.0600 
    238 H238       -6.8135  -20.7666  -53.8220 H         1 UNK         0.0600 
    239 H239       -7.2963  -19.1048  -53.5263 H         1 UNK         0.0600 
    240 H240       -3.1107  -18.4923  -52.1384 H         1 UNK         0.3000 
    241 H241       -2.9951  -16.0062  -53.5933 H         1 UNK         0.0600 
    242 H242       -4.7289  -15.0109  -50.0892 H         1 UNK         0.3800 
    243 H243       -4.6654  -16.6668  -50.6373 H         1 UNK         0.3800 
    244 H244       -0.8291  -15.7030  -52.3911 H         1 UNK         0.0800 
    245 H245       -1.1821  -17.0862  -51.3791 H         1 UNK         0.0800 
    246 H246        0.9219  -15.9985  -54.0541 H         1 UNK         0.0800 
    247 H247        1.4622  -17.5107  -54.7350 H         1 UNK         0.0800 
@<TRIPOS>BOND
     1    1    2 1    
     2    1  127 1    
     3    1  128 1    
     4    1  129 1    
     5    2    3 2    
     6    2    4 am   BACKBONE|DICT|INTERRES
     7    4    5 1    
     8    4  130 1    
     9    5    6 1    
    10    5   65 1    
    11    5  131 1    
    12    6    7 1    
    13    6  132 1    
    14    6  133 1    
    15    7    8 1    
    16    8    9 1    
    17    8  134 1    
    18    8  135 1    
    19    9   10 ar   
    20    9   14 ar   
    21   10   11 ar   
    22   10  136 1    
    23   11   12 ar   
    24   11  126 1    
    25   12   13 ar   
    26   12  137 1    
    27   13   14 ar   
    28   13   15 1    
    29   14  138 1    
    30   15   16 1    
    31   15  139 1    
    32   15  140 1    
    33   16   17 1    
    34   17   18 1    
    35   17  141 1    
    36   17  142 1    
    37   18   19 1    
    38   18   67 1    
    39   18  143 1    
    40   19   20 am   BACKBONE|DICT|INTERRES
    41   19  144 1    
    42   20   21 2    
    43   20   22 1    
    44   22   23 1    
    45   22   24 1    
    46   22  145 1    
    47   23  146 1    
    48   23  147 1    
    49   23  148 1    
    50   24   25 am   BACKBONE|DICT|INTERRES
    51   24  149 1    
    52   25   26 2    
    53   25   27 1    
    54   27   28 1    
    55   27   29 1    
    56   27  150 1    
    57   28  151 1    
    58   28  152 1    
    59   28  153 1    
    60   29   30 am   BACKBONE|DICT|INTERRES
    61   29  154 1    
    62   30   31 2    
    63   30   32 1    
    64   32   33 1    
    65   32   34 1    
    66   32  155 1    
    67   33  156 1    
    68   33  157 1    
    69   33  158 1    
    70   34   35 am   BACKBONE|DICT|INTERRES
    71   34  159 1    
    72   35   36 2    
    73   35   37 1    
    74   37   38 1    
    75   37   39 1    
    76   37  160 1    
    77   38  161 1    
    78   38  162 1    
    79   38  163 1    
    80   39   40 am   BACKBONE|DICT|INTERRES
    81   39  164 1    
    82   40   41 2    
    83   40   42 1    
    84   42   43 1    
    85   42   44 1    
    86   42  165 1    
    87   43  166 1    
    88   43  167 1    
    89   43  168 1    
    90   44   45 am   BACKBONE|DICT|INTERRES
    91   44  169 1    
    92   45   46 2    
    93   45   47 1    
    94   47   48 1    
    95   47   49 1    
    96   47  170 1    
    97   48  171 1    
    98   48  172 1    
    99   48  173 1    
   100   49   50 am   BACKBONE|DICT|INTERRES
   101   49  174 1    
   102   50   51 2    
   103   50   52 1    
   104   52   53 1    
   105   52   54 1    
   106   52  175 1    
   107   53  176 1    
   108   53  177 1    
   109   53  178 1    
   110   54   55 am   BACKBONE|DICT|INTERRES
   111   54  179 1    
   112   55   56 2    
   113   55   57 1    
   114   57   58 1    
   115   57   59 1    
   116   57  180 1    
   117   58  181 1    
   118   58  182 1    
   119   58  183 1    
   120   59   60 am   BACKBONE|DICT|INTERRES
   121   59  184 1    
   122   60   61 2    
   123   60   62 1    
   124   62   63 1    
   125   62   64 1    
   126   62  185 1    
   127   63  186 1    
   128   63  187 1    
   129   63  188 1    
   130   64   65 am   BACKBONE|DICT|INTERRES
   131   64  189 1    
   132   65   66 2    
   133   67   68 2    
   134   67   69 am   BACKBONE|DICT|INTERRES
   135   69   70 1    
   136   69  190 1    
   137   70   71 1    
   138   70   72 1    
   139   70  191 1    
   140   71  192 1    
   141   71  193 1    
   142   71  194 1    
   143   72   73 2    
   144   72   74 am   BACKBONE|DICT|INTERRES
   145   74   75 1    
   146   74  195 1    
   147   75   76 1    
   148   75   77 1    
   149   75  196 1    
   150   76  197 1    
   151   76  198 1    
   152   76  199 1    
   153   77   78 2    
   154   77   79 am   BACKBONE|DICT|INTERRES
   155   79   80 1    
   156   79  200 1    
   157   80   81 1    
   158   80   82 1    
   159   80  201 1    
   160   81  202 1    
   161   81  203 1    
   162   81  204 1    
   163   82   83 2    
   164   82   84 am   BACKBONE|DICT|INTERRES
   165   84   85 1    
   166   84  205 1    
   167   85   86 1    
   168   85   87 1    
   169   85  206 1    
   170   86  207 1    
   171   86  208 1    
   172   86  209 1    
   173   87   88 2    
   174   87   89 am   BACKBONE|DICT|INTERRES
   175   89   90 1    
   176   89  210 1    
   177   90   91 1    
   178   90   92 1    
   179   90  211 1    
   180   91  212 1    
   181   91  213 1    
   182   91  214 1    
   183   92   93 2    
   184   92   94 am   BACKBONE|DICT|INTERRES
   185   94   95 1    
   186   94  215 1    
   187   95   96 1    
   188   95   97 1    
   189   95  216 1    
   190   96  217 1    
   191   96  218 1    
   192   96  219 1    
   193   97   98 2    
   194   97   99 am   BACKBONE|DICT|INTERRES
   195   99  100 1    
   196   99  220 1    
   197  100  101 1    
   198  100  102 1    
   199  100  221 1    
   200  101  222 1    
   201  101  223 1    
   202  101  224 1    
   203  102  103 2    
   204  102  104 am   BACKBONE|DICT|INTERRES
   205  104  105 1    
   206  104  225 1    
   207  105  106 1    
   208  105  107 1    
   209  105  226 1    
   210  106  227 1    
   211  106  228 1    
   212  106  229 1    
   213  107  108 2    
   214  107  109 am   BACKBONE|DICT|INTERRES
   215  109  110 1    
   216  109  230 1    
   217  110  111 1    
   218  110  112 1    
   219  110  231 1    
   220  111  232 1    
   221  111  233 1    
   222  111  234 1    
   223  112  113 2    
   224  112  114 am   BACKBONE|DICT|INTERRES
   225  114  115 1    
   226  114  235 1    
   227  115  116 1    
   228  115  117 1    
   229  115  236 1    
   230  116  237 1    
   231  116  238 1    
   232  116  239 1    
   233  117  118 2    
   234  117  119 am   BACKBONE|DICT|INTERRES
   235  119  120 1    
   236  119  240 1    
   237  120  121 1    
   238  120  124 1    
   239  120  241 1    
   240  121  122 am   BACKBONE|DICT|INTERRES
   241  121  123 2    
   242  122  242 1    
   243  122  243 1    
   244  124  125 1    
   245  124  244 1    
   246  124  245 1    
   247  125  126 1    
   248  126  246 1    
   249  126  247 1    
@<TRIPOS>SUBSTRUCTURE
     1 UNK         1 GROUP             0       ****    0 ROOT    
