@<TRIPOS>MOLECULE
3R540
247   249    1
SMALL
USER_CHARGES


@<TRIPOS>ATOM
      1 CA         -4.8473   -8.6013  -46.9412 C.3       0 UNK        -0.1800 
      2 C          -4.1769   -9.6534  -47.8137 C.2       0 UNK         0.5000 
      3 O          -3.1800   -9.3573  -48.4735 O.2       0 UNK        -0.5000 
      4 N          -4.7249  -10.8742  -47.8261 N.am      1 UNK        -0.5000 
      5 CA         -4.1786  -12.0342  -48.5367 C.3       1 UNK         0.1400 
      6 C6         -5.2878  -13.0640  -48.8745 C.3       23 UNK        -0.0398 
      7 S7         -6.1230  -13.8159  -47.4306 S.3       23 UNK        -0.2404 
      8 C8         -6.4507  -15.5091  -48.0259 C.3       23 UNK        -0.0205 
      9 C9         -5.2104  -16.3865  -47.9507 C.ar      23 UNK        -0.0193 
     10 C10        -4.3666  -16.5160  -49.0576 C.ar      23 UNK        -0.1150 
     11 C11        -3.1882  -17.2678  -48.9773 C.ar      23 UNK        -0.0193 
     12 C12        -2.8996  -17.9404  -47.7875 C.ar      23 UNK        -0.1150 
     13 C13        -3.7585  -17.8611  -46.6874 C.ar      23 UNK        -0.0193 
     14 C14        -4.9055  -17.0691  -46.7700 C.ar      23 UNK        -0.1150 
     15 C15        -3.4222  -18.5977  -45.3990 C.3       23 UNK        -0.0205 
     16 S16        -4.4071  -20.1031  -45.1512 S.3       23 UNK        -0.2404 
     17 C17        -3.8886  -21.1371  -46.5641 C.3       23 UNK        -0.0398 
     18 CA         -3.1233  -22.4368  -46.2143 C.3       11 UNK         0.1400 
     19 N          -1.7389  -22.2126  -45.7650 N.am      11 UNK        -0.5000 
     20 C          -0.8137  -23.1850  -45.7285 C.2       10 UNK         0.5000 
     21 O          -1.0714  -24.3692  -45.9509 O.2       10 UNK        -0.5000 
     22 CA          0.6333  -22.8014  -45.3825 C.3       10 UNK         0.1400 
     23 CB          1.3907  -22.4027  -46.6578 C.3       10 UNK        -0.1800 
     24 N           0.7715  -21.7541  -44.3695 N.am      10 UNK        -0.5000 
     25 C           0.3476  -21.8534  -43.1009 C.2       9 UNK         0.5000 
     26 O          -0.3202  -22.7964  -42.6748 O.2       9 UNK        -0.5000 
     27 CA          0.7519  -20.7196  -42.1399 C.3       9 UNK         0.1400 
     28 CB          2.1584  -20.9689  -41.5746 C.3       9 UNK        -0.1800 
     29 N           0.7174  -19.4045  -42.7753 N.am      9 UNK        -0.5000 
     30 C          -0.4084  -18.7403  -43.0654 C.2       8 UNK         0.5000 
     31 O          -1.5321  -19.1322  -42.7523 O.2       8 UNK        -0.5000 
     32 CA         -0.2561  -17.4292  -43.8592 C.3       8 UNK         0.1400 
     33 CB         -0.0120  -16.2451  -42.9133 C.3       8 UNK        -0.1800 
     34 N           0.8042  -17.4851  -44.8661 N.am      8 UNK        -0.5000 
     35 C           0.8375  -18.3250  -45.9125 C.2       7 UNK         0.5000 
     36 O          -0.0293  -19.1625  -46.1573 O.2       7 UNK        -0.5000 
     37 CA          2.0799  -18.2463  -46.8138 C.3       7 UNK         0.1400 
     38 CB          1.9647  -17.0828  -47.8108 C.3       7 UNK        -0.1800 
     39 N           3.3114  -18.1148  -46.0355 N.am      7 UNK        -0.5000 
     40 C           3.7982  -19.0668  -45.2261 C.2       6 UNK         0.5000 
     41 O           3.2770  -20.1708  -45.0728 O.2       6 UNK        -0.5000 
     42 CA          5.0487  -18.6975  -44.4103 C.3       6 UNK         0.1400 
     43 CB          6.3133  -18.7772  -45.2788 C.3       6 UNK        -0.1800 
     44 N           4.9449  -17.3639  -43.8176 N.am      6 UNK        -0.5000 
     45 C           4.0583  -17.0250  -42.8708 C.2       5 UNK         0.5000 
     46 O           3.2544  -17.8123  -42.3717 O.2       5 UNK        -0.5000 
     47 CA          4.0444  -15.5474  -42.4389 C.3       5 UNK         0.1400 
     48 CB          5.0746  -15.3010  -41.3266 C.3       5 UNK        -0.1800 
     49 N           4.2885  -14.6147  -43.5437 N.am      5 UNK        -0.5000 
     50 C           3.4834  -14.4649  -44.6030 C.2       4 UNK         0.5000 
     51 O           2.4678  -15.1373  -44.7977 O.2       4 UNK        -0.5000 
     52 CA          3.8925  -13.4108  -45.6356 C.3       4 UNK         0.1400 
     53 CB          4.7408  -14.0456  -46.7521 C.3       4 UNK        -0.1800 
     54 N           2.6765  -12.8307  -46.1918 N.am      4 UNK        -0.5000 
     55 C           2.5801  -11.6509  -46.8138 C.2       3 UNK         0.5000 
     56 O           3.5450  -10.9051  -46.9927 O.2       3 UNK        -0.5000 
     57 CA          1.1761  -11.2076  -47.2893 C.3       3 UNK         0.1400 
     58 CB          1.2263  -10.4400  -48.6266 C.3       3 UNK        -0.1800 
     59 N           0.1716  -12.2778  -47.3535 N.am      3 UNK        -0.5000 
     60 C           0.1863  -13.3792  -48.1173 C.2       2 UNK         0.5000 
     61 O           1.1076  -13.6858  -48.8730 O.2       2 UNK        -0.5000 
     62 CA         -1.0540  -14.2848  -48.0325 C.3       2 UNK         0.1400 
     63 CB         -1.1839  -14.9437  -46.6445 C.3       2 UNK        -0.1800 
     64 N          -2.2848  -13.5971  -48.4465 N.am      2 UNK        -0.5000 
     65 C          -2.9657  -12.6449  -47.7916 C.2       1 UNK         0.5000 
     66 O          -2.6538  -12.2355  -46.6687 O.2       1 UNK        -0.5000 
     67 C          -3.9520  -23.3904  -45.3241 C.2       11 UNK         0.5000 
     68 O          -4.9677  -23.9154  -45.7827 O.2       11 UNK        -0.5000 
     69 N          -3.4860  -23.6404  -44.0924 N.am      12 UNK        -0.5000 
     70 CA         -4.0455  -24.6359  -43.1792 C.3       12 UNK         0.1400 
     71 CB         -3.4171  -24.4428  -41.7910 C.3       12 UNK        -0.1800 
     72 C          -3.8493  -26.0885  -43.6633 C.2       12 UNK         0.5000 
     73 O          -4.6230  -26.9588  -43.2617 O.2       12 UNK        -0.5000 
     74 N          -2.8323  -26.3256  -44.5046 N.am      13 UNK        -0.5000 
     75 CA         -2.4959  -27.6356  -45.0626 C.3       13 UNK         0.1400 
     76 CB         -1.0653  -28.0040  -44.6380 C.3       13 UNK        -0.1800 
     77 C          -2.6174  -27.6544  -46.5953 C.2       13 UNK         0.5000 
     78 O          -3.0954  -28.6435  -47.1509 O.2       13 UNK        -0.5000 
     79 N          -2.1834  -26.5726  -47.2547 N.am      14 UNK        -0.5000 
     80 CA         -2.0576  -26.4641  -48.7100 C.3       14 UNK         0.1400 
     81 CB         -0.7263  -25.7589  -49.0236 C.3       14 UNK        -0.1800 
     82 C          -3.2579  -25.7608  -49.3788 C.2       14 UNK         0.5000 
     83 O          -3.1244  -25.2962  -50.5134 O.2       14 UNK        -0.5000 
     84 N          -4.3980  -25.6968  -48.6734 N.am      15 UNK        -0.5000 
     85 CA         -5.6774  -25.0874  -49.0664 C.3       15 UNK         0.1400 
     86 CB         -6.2420  -25.7682  -50.3313 C.3       15 UNK        -0.1800 
     87 C          -5.6046  -23.5545  -49.2254 C.2       15 UNK         0.5000 
     88 O          -4.5329  -22.9664  -49.0950 O.2       15 UNK        -0.5000 
     89 N          -6.7513  -22.9177  -49.5029 N.am      16 UNK        -0.5000 
     90 CA         -6.9285  -21.4581  -49.5671 C.3       16 UNK         0.1400 
     91 CB         -8.4034  -21.1520  -49.8694 C.3       16 UNK        -0.1800 
     92 C          -6.0126  -20.7150  -50.5645 C.2       16 UNK         0.5000 
     93 O          -5.7628  -19.5240  -50.3840 O.2       16 UNK        -0.5000 
     94 N          -5.5208  -21.4262  -51.5863 N.am      17 UNK        -0.5000 
     95 CA         -4.5375  -20.9272  -52.5465 C.3       17 UNK         0.1400 
     96 CB         -4.6089  -21.7958  -53.8125 C.3       17 UNK        -0.1800 
     97 C          -3.0957  -20.9209  -52.0003 C.2       17 UNK         0.5000 
     98 O          -2.2400  -20.2815  -52.6109 O.2       17 UNK        -0.5000 
     99 N          -2.8370  -21.6577  -50.9058 N.am      18 UNK        -0.5000 
    100 CA        -1.5230  -22.0142  -50.3589 C.3       18 UNK         0.1400 
    101 CB        -0.8587  -20.8169  -49.6575 C.3       18 UNK        -0.1800 
    102 C         -0.6460  -22.6572  -51.4486 C.2       18 UNK         0.5000 
    103 O          0.3427  -22.0683  -51.8926 O.2       18 UNK        -0.5000 
    104 N         -1.1153  -23.8166  -51.9279 N.am      19 UNK        -0.5000 
    105 CA        -0.6932  -24.5470  -53.1232 C.3       19 UNK         0.1400 
    106 CB         0.7910  -24.9636  -53.0661 C.3       19 UNK        -0.1800 
    107 C         -1.0504  -23.7782  -54.4078 C.2       19 UNK         0.5000 
    108 O         -1.9575  -24.1962  -55.1283 O.2       19 UNK        -0.5000 
    109 N         -0.3565  -22.6621  -54.6540 N.am      20 UNK        -0.5000 
    110 CA        -0.5646  -21.7697  -55.7937 C.3       20 UNK         0.1400 
    111 CB         0.0035  -22.4112  -57.0782 C.3       20 UNK        -0.1800 
    112 C          0.0201  -20.3652  -55.5427 C.2       20 UNK         0.5000 
    113 O          0.2707  -19.6397  -56.5070 O.2       20 UNK        -0.5000 
    114 N          0.2569  -19.9949  -54.2744 N.am      21 UNK        -0.5000 
    115 CA         0.8103  -18.6899  -53.9020 C.3       21 UNK         0.1400 
    116 CB         1.3202  -18.7391  -52.4547 C.3       21 UNK        -0.1800 
    117 C         -0.1995  -17.5401  -54.0794 C.2       21 UNK         0.5000 
    118 O          0.2034  -16.4386  -54.4569 O.2       21 UNK        -0.5000 
    119 N         -1.4803  -17.8205  -53.8159 N.am      22 UNK        -0.5000 
    120 CA        -2.6081  -16.8915  -53.9615 C.3       22 UNK         0.1400 
    121 C         -3.5997  -17.4065  -55.0366 C.2       22 UNK         0.5000 
    122 N         -4.2641  -16.5101  -55.7532 N.am      22 UNK        -0.7600 
    123 O         -3.8031  -18.6062  -55.2083 O.2       22 UNK        -0.5000 
    124 C124       -3.3436  -16.6561  -52.6163 C.3       23 UNK        -0.0398 
    125 S125       -2.2373  -15.9903  -51.3230 S.3       23 UNK        -0.2404 
    126 C126       -2.2012  -17.3811  -50.1391 C.3       23 UNK        -0.0205 
    127 H127       -5.1661   -7.7555  -47.5503 H         1 UNK         0.0600 
    128 H128       -4.1474   -8.2371  -46.1891 H         1 UNK         0.0600 
    129 H129       -5.7226   -8.9989  -46.4267 H         1 UNK         0.0600 
    130 H130       -5.5202  -11.0693  -47.2346 H         1 UNK         0.3000 
    131 H131       -3.7907  -11.6743  -49.4923 H         1 UNK         0.0600 
    132 H132       -4.8830  -13.8416  -49.5186 H         1 UNK         0.0800 
    133 H133       -6.0559  -12.5762  -49.4763 H         1 UNK         0.0800 
    134 H134       -6.8380  -15.4761  -49.0455 H         1 UNK         0.0800 
    135 H135       -7.2428  -15.9469  -47.4167 H         1 UNK         0.0800 
    136 H136       -4.6265  -16.0164  -49.9777 H         1 UNK         0.1150 
    137 H137       -1.9949  -18.5252  -47.7143 H         1 UNK         0.1150 
    138 H138       -5.5592  -16.9824  -45.9135 H         1 UNK         0.1150 
    139 H139       -2.3754  -18.8864  -45.3894 H         1 UNK         0.0800 
    140 H140       -3.5708  -17.9323  -44.5476 H         1 UNK         0.0800 
    141 H141       -4.8014  -21.3863  -47.1038 H         1 UNK         0.0800 
    142 H142       -3.2983  -20.5563  -47.2691 H         1 UNK         0.0800 
    143 H143       -3.0105  -22.9783  -47.1538 H         1 UNK         0.0600 
    144 H144       -1.4616  -21.2616  -45.5598 H         1 UNK         0.3000 
    145 H145        1.1100  -23.6984  -44.9820 H         1 UNK         0.0600 
    146 H146        2.4587  -22.3011  -46.4667 H         1 UNK         0.0600 
    147 H147        1.2748  -23.1567  -47.4378 H         1 UNK         0.0600 
    148 H148        1.0295  -21.4568  -47.0598 H         1 UNK         0.0600 
    149 H149        1.3414  -20.9567  -44.6276 H         1 UNK         0.3000 
    150 H150        0.0473  -20.7217  -41.3054 H         1 UNK         0.0600 
    151 H151        2.2153  -21.9393  -41.0798 H         1 UNK         0.0600 
    152 H152        2.4261  -20.2111  -40.8381 H         1 UNK         0.0600 
    153 H153        2.9164  -20.9533  -42.3588 H         1 UNK         0.0600 
    154 H154        1.6092  -18.9806  -43.0055 H         1 UNK         0.3000 
    155 H155       -1.1909  -17.2348  -44.3836 H         1 UNK         0.0600 
    156 H156        0.9161  -16.3616  -42.3552 H         1 UNK         0.0600 
    157 H157       -0.8211  -16.1534  -42.1879 H         1 UNK         0.0600 
    158 H158        0.0397  -15.3046  -43.4623 H         1 UNK         0.0600 
    159 H159        1.5447  -16.7950  -44.7737 H         1 UNK         0.3000 
    160 H160        2.1364  -19.1759  -47.3840 H         1 UNK         0.0600 
    161 H161        1.9500  -16.1157  -47.3076 H         1 UNK         0.0600 
    162 H162        1.0487  -17.1603  -48.3979 H         1 UNK         0.0600 
    163 H163        2.7992  -17.0805  -48.5119 H         1 UNK         0.0600 
    164 H164        3.7755  -17.2200  -46.0650 H         1 UNK         0.3000 
    165 H165        5.1445  -19.4234  -43.5998 H         1 UNK         0.0600 
    166 H166        7.2098  -18.5935  -44.6864 H         1 UNK         0.0600 
    167 H167        6.4173  -19.7671  -45.7252 H         1 UNK         0.0600 
    168 H168        6.2936  -18.0506  -46.0920 H         1 UNK         0.0600 
    169 H169        5.5693  -16.6537  -44.1697 H         1 UNK         0.3000 
    170 H170        3.0538  -15.3311  -42.0347 H         1 UNK         0.0600 
    171 H171        4.9038  -15.9696  -40.4816 H         1 UNK         0.0600 
    172 H172        6.0943  -15.4677  -41.6762 H         1 UNK         0.0600 
    173 H173        5.0111  -14.2804  -40.9490 H         1 UNK         0.0600 
    174 H174        5.1085  -14.0305  -43.4641 H         1 UNK         0.3000 
    175 H175        4.4675  -12.6297  -45.1338 H         1 UNK         0.0600 
    176 H176        4.1818  -14.8075  -47.2967 H         1 UNK         0.0600 
    177 H177        5.0702  -13.2973  -47.4730 H         1 UNK         0.0600 
    178 H178        5.6357  -14.5185  -46.3459 H         1 UNK         0.0600 
    179 H179        1.8447  -13.3888  -46.0501 H         1 UNK         0.3000 
    180 H180        0.8160  -10.5126  -46.5297 H         1 UNK         0.0600 
    181 H181        1.6359  -11.0534  -49.4296 H         1 UNK         0.0600 
    182 H182        1.8492   -9.5484  -48.5464 H         1 UNK         0.0600 
    183 H183        0.2317  -10.1110  -48.9289 H         1 UNK         0.0600 
    184 H184       -0.6685  -12.1263  -46.8020 H         1 UNK         0.3000 
    185 H185       -0.9074  -15.0886  -48.7540 H         1 UNK         0.0600 
    186 H186       -0.3395  -15.6039  -46.4596 H         1 UNK         0.0600 
    187 H187       -1.2033  -14.2174  -45.8323 H         1 UNK         0.0600 
    188 H188       -2.0909  -15.5405  -46.5719 H         1 UNK         0.0600 
    189 H189       -2.6020  -13.8539  -49.3707 H         1 UNK         0.3000 
    190 H190       -2.6384  -23.1761  -43.7945 H         1 UNK         0.3000 
    191 H191       -5.1195  -24.4563  -43.0980 H         1 UNK         0.0600 
    192 H192       -2.3387  -24.6062  -41.8124 H         1 UNK         0.0600 
    193 H193       -3.8410  -25.1419  -41.0689 H         1 UNK         0.0600 
    194 H194       -3.5960  -23.4363  -41.4124 H         1 UNK         0.0600 
    195 H195       -2.2544  -25.5464  -44.7996 H         1 UNK         0.3000 
    196 H196       -3.1683  -28.4045  -44.6767 H         1 UNK         0.0600 
    197 H197       -0.7737  -28.9741  -45.0425 H         1 UNK         0.0600 
    198 H198       -0.9821  -28.0660  -43.5529 H         1 UNK         0.0600 
    199 H199       -0.3387  -27.2689  -44.9873 H         1 UNK         0.0600 
    200 H200       -1.7993  -25.7909  -46.7273 H         1 UNK         0.3000 
    201 H201       -2.0044  -27.4637  -49.1458 H         1 UNK         0.0600 
    202 H202        0.1078  -26.2573  -48.5294 H         1 UNK         0.0600 
    203 H203       -0.7318  -24.7200  -48.6952 H         1 UNK         0.0600 
    204 H204       -0.5150  -25.7740  -50.0922 H         1 UNK         0.0600 
    205 H205       -4.3705  -26.0664  -47.7342 H         1 UNK         0.3000 
    206 H206       -6.3640  -25.2812  -48.2411 H         1 UNK         0.0600 
    207 H207       -6.2413  -26.8533  -50.2271 H         1 UNK         0.0600 
    208 H208       -7.2729  -25.4670  -50.5185 H         1 UNK         0.0600 
    209 H209       -5.6646  -25.5183  -51.2219 H         1 UNK         0.0600 
    210 H210       -7.5927  -23.4660  -49.6079 H         1 UNK         0.3000 
    211 H211       -6.7000  -21.0619  -48.5761 H         1 UNK         0.0600 
    212 H212       -8.7079  -21.5590  -50.8345 H         1 UNK         0.0600 
    213 H213       -8.5831  -20.0763  -49.8954 H         1 UNK         0.0600 
    214 H214       -9.0591  -21.5695  -49.1051 H         1 UNK         0.0600 
    215 H215       -5.7781  -22.3992  -51.6594 H         1 UNK         0.3000 
    216 H216       -4.7935  -19.9014  -52.8194 H         1 UNK         0.0600 
    217 H217       -3.9119  -21.4371  -54.5713 H         1 UNK         0.0600 
    218 H218       -5.6055  -21.7716  -54.2531 H         1 UNK         0.0600 
    219 H219       -4.3557  -22.8361  -53.6031 H         1 UNK         0.0600 
    220 H220       -3.6156  -22.1208  -50.4422 H         1 UNK         0.3000 
    221 H221       -1.6989  -22.7768  -49.6000 H         1 UNK         0.0600 
    222 H222       -0.7526  -19.9666  -50.3247 H         1 UNK         0.0600 
    223 H223       -1.4421  -20.4987  -48.7957 H         1 UNK         0.0600 
    224 H224        0.1368  -21.0764  -49.2972 H         1 UNK         0.0600 
    225 H225       -1.9456  -24.2035  -51.4824 H         1 UNK         0.3000 
    226 H226       -1.2839  -25.4646  -53.1296 H         1 UNK         0.0600 
    227 H227        0.9965  -25.5577  -52.1759 H         1 UNK         0.0600 
    228 H228        1.0521  -25.5745  -53.9309 H         1 UNK         0.0600 
    229 H229        1.4683  -24.1099  -53.0587 H         1 UNK         0.0600 
    230 H230        0.3329  -22.3740  -53.9684 H         1 UNK         0.3000 
    231 H231       -1.6393  -21.6268  -55.9239 H         1 UNK         0.0600 
    232 H232       -0.1772  -21.7813  -57.9499 H         1 UNK         0.0600 
    233 H233       -0.4599  -23.3754  -57.2859 H         1 UNK         0.0600 
    234 H234        1.0799  -22.5674  -57.0011 H         1 UNK         0.0600 
    235 H235       -0.0430  -20.5887  -53.5097 H         1 UNK         0.3000 
    236 H236        1.6661  -18.4865  -54.5494 H         1 UNK         0.0600 
    237 H237        2.0156  -19.5649  -52.3033 H         1 UNK         0.0600 
    238 H238        1.8423  -17.8175  -52.1949 H         1 UNK         0.0600 
    239 H239        0.4993  -18.8553  -51.7501 H         1 UNK         0.0600 
    240 H240       -1.7278  -18.7641  -53.5238 H         1 UNK         0.3000 
    241 H241       -2.2373  -15.9243  -54.3059 H         1 UNK         0.0600 
    242 H242       -4.9208  -16.8321  -56.4473 H         1 UNK         0.3800 
    243 H243       -4.1220  -15.5192  -55.6312 H         1 UNK         0.3800 
    244 H244       -4.1544  -15.9386  -52.7519 H         1 UNK         0.0800 
    245 H245       -3.8162  -17.5762  -52.2681 H         1 UNK         0.0800 
    246 H246       -1.1870  -17.4422  -49.7420 H         1 UNK         0.0800 
    247 H247       -2.3776  -18.3207  -50.6605 H         1 UNK         0.0800 
@<TRIPOS>BOND
     1    1    2 1    
     2    1  127 1    
     3    1  128 1    
     4    1  129 1    
     5    2    3 2    
     6    2    4 am   BACKBONE|DICT|INTERRES
     7    4    5 1    
     8    4  130 1    
     9    5    6 1    
    10    5   65 1    
    11    5  131 1    
    12    6    7 1    
    13    6  132 1    
    14    6  133 1    
    15    7    8 1    
    16    8    9 1    
    17    8  134 1    
    18    8  135 1    
    19    9   10 ar   
    20    9   14 ar   
    21   10   11 ar   
    22   10  136 1    
    23   11   12 ar   
    24   11  126 1    
    25   12   13 ar   
    26   12  137 1    
    27   13   14 ar   
    28   13   15 1    
    29   14  138 1    
    30   15   16 1    
    31   15  139 1    
    32   15  140 1    
    33   16   17 1    
    34   17   18 1    
    35   17  141 1    
    36   17  142 1    
    37   18   19 1    
    38   18   67 1    
    39   18  143 1    
    40   19   20 am   BACKBONE|DICT|INTERRES
    41   19  144 1    
    42   20   21 2    
    43   20   22 1    
    44   22   23 1    
    45   22   24 1    
    46   22  145 1    
    47   23  146 1    
    48   23  147 1    
    49   23  148 1    
    50   24   25 am   BACKBONE|DICT|INTERRES
    51   24  149 1    
    52   25   26 2    
    53   25   27 1    
    54   27   28 1    
    55   27   29 1    
    56   27  150 1    
    57   28  151 1    
    58   28  152 1    
    59   28  153 1    
    60   29   30 am   BACKBONE|DICT|INTERRES
    61   29  154 1    
    62   30   31 2    
    63   30   32 1    
    64   32   33 1    
    65   32   34 1    
    66   32  155 1    
    67   33  156 1    
    68   33  157 1    
    69   33  158 1    
    70   34   35 am   BACKBONE|DICT|INTERRES
    71   34  159 1    
    72   35   36 2    
    73   35   37 1    
    74   37   38 1    
    75   37   39 1    
    76   37  160 1    
    77   38  161 1    
    78   38  162 1    
    79   38  163 1    
    80   39   40 am   BACKBONE|DICT|INTERRES
    81   39  164 1    
    82   40   41 2    
    83   40   42 1    
    84   42   43 1    
    85   42   44 1    
    86   42  165 1    
    87   43  166 1    
    88   43  167 1    
    89   43  168 1    
    90   44   45 am   BACKBONE|DICT|INTERRES
    91   44  169 1    
    92   45   46 2    
    93   45   47 1    
    94   47   48 1    
    95   47   49 1    
    96   47  170 1    
    97   48  171 1    
    98   48  172 1    
    99   48  173 1    
   100   49   50 am   BACKBONE|DICT|INTERRES
   101   49  174 1    
   102   50   51 2    
   103   50   52 1    
   104   52   53 1    
   105   52   54 1    
   106   52  175 1    
   107   53  176 1    
   108   53  177 1    
   109   53  178 1    
   110   54   55 am   BACKBONE|DICT|INTERRES
   111   54  179 1    
   112   55   56 2    
   113   55   57 1    
   114   57   58 1    
   115   57   59 1    
   116   57  180 1    
   117   58  181 1    
   118   58  182 1    
   119   58  183 1    
   120   59   60 am   BACKBONE|DICT|INTERRES
   121   59  184 1    
   122   60   61 2    
   123   60   62 1    
   124   62   63 1    
   125   62   64 1    
   126   62  185 1    
   127   63  186 1    
   128   63  187 1    
   129   63  188 1    
   130   64   65 am   BACKBONE|DICT|INTERRES
   131   64  189 1    
   132   65   66 2    
   133   67   68 2    
   134   67   69 am   BACKBONE|DICT|INTERRES
   135   69   70 1    
   136   69  190 1    
   137   70   71 1    
   138   70   72 1    
   139   70  191 1    
   140   71  192 1    
   141   71  193 1    
   142   71  194 1    
   143   72   73 2    
   144   72   74 am   BACKBONE|DICT|INTERRES
   145   74   75 1    
   146   74  195 1    
   147   75   76 1    
   148   75   77 1    
   149   75  196 1    
   150   76  197 1    
   151   76  198 1    
   152   76  199 1    
   153   77   78 2    
   154   77   79 am   BACKBONE|DICT|INTERRES
   155   79   80 1    
   156   79  200 1    
   157   80   81 1    
   158   80   82 1    
   159   80  201 1    
   160   81  202 1    
   161   81  203 1    
   162   81  204 1    
   163   82   83 2    
   164   82   84 am   BACKBONE|DICT|INTERRES
   165   84   85 1    
   166   84  205 1    
   167   85   86 1    
   168   85   87 1    
   169   85  206 1    
   170   86  207 1    
   171   86  208 1    
   172   86  209 1    
   173   87   88 2    
   174   87   89 am   BACKBONE|DICT|INTERRES
   175   89   90 1    
   176   89  210 1    
   177   90   91 1    
   178   90   92 1    
   179   90  211 1    
   180   91  212 1    
   181   91  213 1    
   182   91  214 1    
   183   92   93 2    
   184   92   94 am   BACKBONE|DICT|INTERRES
   185   94   95 1    
   186   94  215 1    
   187   95   96 1    
   188   95   97 1    
   189   95  216 1    
   190   96  217 1    
   191   96  218 1    
   192   96  219 1    
   193   97   98 2    
   194   97   99 am   BACKBONE|DICT|INTERRES
   195   99  100 1    
   196   99  220 1    
   197  100  101 1    
   198  100  102 1    
   199  100  221 1    
   200  101  222 1    
   201  101  223 1    
   202  101  224 1    
   203  102  103 2    
   204  102  104 am   BACKBONE|DICT|INTERRES
   205  104  105 1    
   206  104  225 1    
   207  105  106 1    
   208  105  107 1    
   209  105  226 1    
   210  106  227 1    
   211  106  228 1    
   212  106  229 1    
   213  107  108 2    
   214  107  109 am   BACKBONE|DICT|INTERRES
   215  109  110 1    
   216  109  230 1    
   217  110  111 1    
   218  110  112 1    
   219  110  231 1    
   220  111  232 1    
   221  111  233 1    
   222  111  234 1    
   223  112  113 2    
   224  112  114 am   BACKBONE|DICT|INTERRES
   225  114  115 1    
   226  114  235 1    
   227  115  116 1    
   228  115  117 1    
   229  115  236 1    
   230  116  237 1    
   231  116  238 1    
   232  116  239 1    
   233  117  118 2    
   234  117  119 am   BACKBONE|DICT|INTERRES
   235  119  120 1    
   236  119  240 1    
   237  120  121 1    
   238  120  124 1    
   239  120  241 1    
   240  121  122 am   BACKBONE|DICT|INTERRES
   241  121  123 2    
   242  122  242 1    
   243  122  243 1    
   244  124  125 1    
   245  124  244 1    
   246  124  245 1    
   247  125  126 1    
   248  126  246 1    
   249  126  247 1    
@<TRIPOS>SUBSTRUCTURE
     1 UNK         1 GROUP             0       ****    0 ROOT    
