@<TRIPOS>MOLECULE
3R540
247   249    1
SMALL
USER_CHARGES


@<TRIPOS>ATOM
      1 CA          3.2677  -17.2838  -48.8594 C.3       0 UNK        -0.1800 
      2 C           2.1421  -16.6436  -49.6601 C.2       0 UNK         0.5000 
      3 O           2.3569  -15.6227  -50.3109 O.2       0 UNK        -0.5000 
      4 N           0.9385  -17.2296  -49.5846 N.am      1 UNK        -0.5000 
      5 CA         -0.3151  -16.7982  -50.2341 C.3       1 UNK         0.1400 
      6 C6         -0.2406  -16.7613  -51.7861 C.3       23 UNK        -0.0398 
      7 S7          0.2608  -18.3663  -52.4949 S.3       23 UNK        -0.2404 
      8 C8          1.8463  -17.9472  -53.2807 C.3       23 UNK        -0.0205 
      9 C9          2.7447  -19.1691  -53.3716 C.ar      23 UNK        -0.0193 
     10 C10         2.6461  -20.0470  -54.4541 C.ar      23 UNK        -0.1150 
     11 C11         3.4687  -21.1754  -54.5265 C.ar      23 UNK        -0.0193 
     12 C12         4.3907  -21.4239  -53.5033 C.ar      23 UNK        -0.1150 
     13 C13         4.5025  -20.5494  -52.4182 C.ar      23 UNK        -0.0193 
     14 C14         3.6822  -19.4190  -52.3667 C.ar      23 UNK        -0.1150 
     15 C15         5.5307  -20.8034  -51.3211 C.3       23 UNK        -0.0205 
     16 S16         4.9533  -21.9892  -50.0598 S.3       23 UNK        -0.2404 
     17 C17         3.6661  -21.0260  -49.2022 C.3       23 UNK        -0.0398 
     18 CA          2.6384  -21.9365  -48.4859 C.3       11 UNK         0.1400 
     19 N           3.0526  -22.3094  -47.1298 N.am      11 UNK        -0.5000 
     20 C           2.4239  -23.2236  -46.3755 C.2       10 UNK         0.5000 
     21 O           1.4566  -23.8795  -46.7600 O.2       10 UNK        -0.5000 
     22 CA          2.9250  -23.4010  -44.9318 C.3       10 UNK         0.1400 
     23 CB          4.0916  -24.3985  -44.8844 C.3       10 UNK        -0.1800 
     24 N           3.3312  -22.1458  -44.2953 N.am      10 UNK        -0.5000 
     25 C           2.5212  -21.1052  -44.0603 C.2       9 UNK         0.5000 
     26 O           1.3381  -21.0589  -44.4064 O.2       9 UNK        -0.5000 
     27 CA          3.1547  -19.9004  -43.3490 C.3       9 UNK         0.1400 
     28 CB          3.1373  -18.6548  -44.2496 C.3       9 UNK        -0.1800 
     29 N           2.4588  -19.6098  -42.0979 N.am      9 UNK        -0.5000 
     30 C           2.6642  -20.2711  -40.9516 C.2       8 UNK         0.5000 
     31 O           3.4455  -21.2184  -40.8507 O.2       8 UNK        -0.5000 
     32 CA          1.9076  -19.7957  -39.6998 C.3       8 UNK         0.1400 
     33 CB          2.6339  -18.6094  -39.0446 C.3       8 UNK        -0.1800 
     34 N           0.5156  -19.4260  -39.9658 N.am      8 UNK        -0.5000 
     35 C          -0.5071  -19.7083  -39.1426 C.2       7 UNK         0.5000 
     36 O          -0.3772  -20.3391  -38.0921 O.2       7 UNK        -0.5000 
     37 CA         -1.9160  -19.1998  -39.5232 C.3       7 UNK         0.1400 
     38 CB         -2.2856  -17.9691  -38.6807 C.3       7 UNK        -0.1800 
     39 N          -2.0625  -18.8553  -40.9352 N.am      7 UNK        -0.5000 
     40 C          -2.0144  -19.7306  -41.9479 C.2       6 UNK         0.5000 
     41 O          -1.9757  -20.9502  -41.7874 O.2       6 UNK        -0.5000 
     42 CA         -1.9732  -19.1558  -43.3784 C.3       6 UNK         0.1400 
     43 CB         -3.3346  -19.3407  -44.0627 C.3       6 UNK        -0.1800 
     44 N          -1.5960  -17.7398  -43.4772 N.am      6 UNK        -0.5000 
     45 C          -0.4836  -17.1676  -42.9879 C.2       5 UNK         0.5000 
     46 O           0.4047  -17.7934  -42.4117 O.2       5 UNK        -0.5000 
     47 CA         -0.3591  -15.6349  -43.1006 C.3       5 UNK         0.1400 
     48 CB          0.5605  -15.2696  -44.2733 C.3       5 UNK        -0.1800 
     49 N          -1.6410  -14.9411  -43.2548 N.am      5 UNK        -0.5000 
     50 C          -2.6776  -15.0253  -42.4055 C.2       4 UNK         0.5000 
     51 O          -2.6225  -15.6194  -41.3274 O.2       4 UNK        -0.5000 
     52 CA         -4.0167  -14.3989  -42.8462 C.3       4 UNK         0.1400 
     53 CB         -4.2950  -13.1146  -42.0506 C.3       4 UNK        -0.1800 
     54 N          -4.1224  -14.0970  -44.2770 N.am      4 UNK        -0.5000 
     55 C          -4.0090  -14.9622  -45.2955 C.2       3 UNK         0.5000 
     56 O          -3.7691  -16.1625  -45.1549 O.2       3 UNK        -0.5000 
     57 CA         -4.1494  -14.3797  -46.7180 C.3       3 UNK         0.1400 
     58 CB         -4.8871  -13.0244  -46.7671 C.3       3 UNK        -0.1800 
     59 N          -2.8705  -14.2743  -47.4276 N.am      3 UNK        -0.5000 
     60 C          -1.7360  -13.7047  -46.9961 C.2       2 UNK         0.5000 
     61 O          -1.5817  -13.2571  -45.8579 O.2       2 UNK        -0.5000 
     62 CA         -0.5851  -13.6234  -48.0202 C.3       2 UNK         0.1400 
     63 CB          0.7073  -13.0320  -47.4288 C.3       2 UNK        -0.1800 
     64 N          -0.2684  -14.9193  -48.6205 N.am      2 UNK        -0.5000 
     65 C          -0.8970  -15.4809  -49.6617 C.2       1 UNK         0.5000 
     66 O          -1.9202  -15.0044  -50.1542 O.2       1 UNK        -0.5000 
     67 C           1.2442  -21.2848  -48.4915 C.2       11 UNK         0.5000 
     68 O           0.4252  -21.6482  -49.3291 O.2       11 UNK        -0.5000 
     69 N           0.9812  -20.3626  -47.5533 N.am      12 UNK        -0.5000 
     70 CA         -0.3221  -19.7093  -47.4129 C.3       12 UNK         0.1400 
     71 CB         -0.2012  -18.4982  -46.4793 C.3       12 UNK        -0.1800 
     72 C          -1.4234  -20.6773  -46.9478 C.2       12 UNK         0.5000 
     73 O          -2.5529  -20.5771  -47.4260 O.2       12 UNK        -0.5000 
     74 N          -1.0686  -21.6177  -46.0615 N.am      13 UNK        -0.5000 
     75 CA         -1.9443  -22.7016  -45.6178 C.3       13 UNK         0.1400 
     76 CB         -1.2815  -23.4628  -44.4603 C.3       13 UNK        -0.1800 
     77 C          -2.3233  -23.6496  -46.7711 C.2       13 UNK         0.5000 
     78 O          -3.5085  -23.9192  -46.9689 O.2       13 UNK        -0.5000 
     79 N          -1.3194  -24.0928  -47.5422 N.am      14 UNK        -0.5000 
     80 CA         -1.4841  -24.9293  -48.7342 C.3       14 UNK         0.1400 
     81 CB         -0.1037  -25.3809  -49.2326 C.3       14 UNK        -0.1800 
     82 C          -2.2692  -24.2288  -49.8593 C.2       14 UNK         0.5000 
     83 O          -3.0997  -24.8639  -50.5095 O.2       14 UNK        -0.5000 
     84 N          -2.0294  -22.9218  -50.0288 N.am      15 UNK        -0.5000 
     85 CA         -2.7081  -22.0458  -50.9827 C.3       15 UNK         0.1400 
     86 CB         -1.8847  -20.7620  -51.1461 C.3       15 UNK        -0.1800 
     87 C          -4.1636  -21.7003  -50.6162 C.2       15 UNK         0.5000 
     88 O          -4.8215  -21.0241  -51.4090 O.2       15 UNK        -0.5000 
     89 N          -4.6249  -22.1542  -49.4410 N.am      16 UNK        -0.5000 
     90 CA         -5.9513  -21.9517  -48.8587 C.3       16 UNK         0.1400 
     91 CB         -7.0434  -22.6438  -49.7006 C.3       16 UNK        -0.1800 
     92 C          -6.2375  -20.4703  -48.5484 C.2       16 UNK         0.5000 
     93 O          -7.3252  -19.9667  -48.8390 O.2       16 UNK        -0.5000 
     94 N          -5.2425  -19.8066  -47.9418 N.am      17 UNK        -0.5000 
     95 CA         -5.2639  -18.4273  -47.4603 C.3       17 UNK         0.1400 
     96 CB         -6.2025  -18.3076  -46.2364 C.3       17 UNK        -0.1800 
     97 C          -5.5722  -17.4346  -48.5966 C.2       17 UNK         0.5000 
     98 O          -4.7955  -17.3458  -49.5486 O.2       17 UNK        -0.5000 
     99 N          -6.6945  -16.7123  -48.4798 N.am      18 UNK        -0.5000 
    100 CA        -7.1558  -15.6783  -49.4072 C.3       18 UNK         0.1400 
    101 CB        -8.3462  -14.9444  -48.7708 C.3       18 UNK        -0.1800 
    102 C         -7.5154  -16.1886  -50.8176 C.2       18 UNK         0.5000 
    103 O         -7.6386  -15.3699  -51.7294 O.2       18 UNK        -0.5000 
    104 N         -7.6582  -17.5124  -50.9909 N.am      19 UNK        -0.5000 
    105 CA        -7.8025  -18.1559  -52.2996 C.3       19 UNK         0.1400 
    106 CB        -8.1705  -19.6320  -52.1063 C.3       19 UNK        -0.1800 
    107 C         -6.5344  -18.0222  -53.1683 C.2       19 UNK         0.5000 
    108 O         -6.6545  -17.9427  -54.3914 O.2       19 UNK        -0.5000 
    109 N         -5.3629  -17.9566  -52.5133 N.am      20 UNK        -0.5000 
    110 CA        -4.0430  -17.6472  -53.0676 C.3       20 UNK         0.1400 
    111 CB        -3.9580  -16.1402  -53.3874 C.3       20 UNK        -0.1800 
    112 C         -3.6306  -18.5428  -54.2559 C.2       20 UNK         0.5000 
    113 O         -3.1961  -18.0317  -55.2902 O.2       20 UNK        -0.5000 
    114 N         -3.7946  -19.8628  -54.0891 N.am      21 UNK        -0.5000 
    115 CA        -3.3570  -20.8847  -55.0411 C.3       21 UNK         0.1400 
    116 CB        -4.1858  -22.1653  -54.8183 C.3       21 UNK        -0.1800 
    117 C         -1.8267  -21.0976  -54.9631 C.2       21 UNK         0.5000 
    118 O         -1.0709  -20.2556  -55.4472 O.2       21 UNK        -0.5000 
    119 N         -1.3866  -22.2141  -54.3747 N.am      22 UNK        -0.5000 
    120 CA         0.0218  -22.5647  -54.1628 C.3       22 UNK         0.1400 
    121 C          0.1159  -23.6198  -53.0317 C.2       22 UNK         0.5000 
    122 N          1.0558  -23.4699  -52.1097 N.am      22 UNK        -0.7600 
    123 O         -0.6457  -24.5831  -52.9992 O.2       22 UNK        -0.5000 
    124 C124        0.6976  -23.0203  -55.4879 C.3       23 UNK        -0.0398 
    125 S125        2.4228  -23.6122  -55.3414 S.3       23 UNK        -0.2404 
    126 C126        3.3833  -22.1144  -55.7199 C.3       23 UNK        -0.0205 
    127 H127        3.6683  -16.5673  -48.1426 H         1 UNK         0.0600 
    128 H128        4.0784  -17.5905  -49.5191 H         1 UNK         0.0600 
    129 H129        2.9256  -18.1569  -48.3048 H         1 UNK         0.0600 
    130 H130        0.8609  -18.0831  -49.0533 H         1 UNK         0.3000 
    131 H131       -1.0529  -17.5586  -49.9737 H         1 UNK         0.0600 
    132 H132       -1.2163  -16.5195  -52.2072 H         1 UNK         0.0800 
    133 H133        0.4298  -15.9708  -52.1257 H         1 UNK         0.0800 
    134 H134        2.3524  -17.1640  -52.7149 H         1 UNK         0.0800 
    135 H135        1.6590  -17.5384  -54.2748 H         1 UNK         0.0800 
    136 H136        1.9231  -19.8539  -55.2348 H         1 UNK         0.1150 
    137 H137        5.0275  -22.2961  -53.5559 H         1 UNK         0.1150 
    138 H138        3.7684  -18.7308  -51.5394 H         1 UNK         0.1150 
    139 H139        6.4457  -21.1921  -51.7703 H         1 UNK         0.0800 
    140 H140        5.8099  -19.8670  -50.8351 H         1 UNK         0.0800 
    141 H141        3.1713  -20.4042  -49.9471 H         1 UNK         0.0800 
    142 H142        4.1406  -20.3355  -48.5039 H         1 UNK         0.0800 
    143 H143        2.5367  -22.8608  -49.0596 H         1 UNK         0.0600 
    144 H144        3.8504  -21.8282  -46.7424 H         1 UNK         0.3000 
    145 H145        2.1010  -23.8145  -44.3470 H         1 UNK         0.0600 
    146 H146        4.3933  -24.6041  -43.8572 H         1 UNK         0.0600 
    147 H147        3.8090  -25.3509  -45.3351 H         1 UNK         0.0600 
    148 H148        4.9637  -24.0263  -45.4233 H         1 UNK         0.0600 
    149 H149        4.2859  -22.1005  -43.9693 H         1 UNK         0.3000 
    150 H150        4.1996  -20.1269  -43.1252 H         1 UNK         0.0600 
    151 H151        3.6455  -18.8457  -45.1954 H         1 UNK         0.0600 
    152 H152        3.6461  -17.8185  -43.7702 H         1 UNK         0.0600 
    153 H153        2.1229  -18.3338  -44.4797 H         1 UNK         0.0600 
    154 H154        1.7589  -18.8720  -42.1431 H         1 UNK         0.3000 
    155 H155        1.9359  -20.6331  -38.9997 H         1 UNK         0.0600 
    156 H156        2.6151  -17.7261  -39.6839 H         1 UNK         0.0600 
    157 H157        3.6787  -18.8504  -38.8447 H         1 UNK         0.0600 
    158 H158        2.1742  -18.3435  -38.0927 H         1 UNK         0.0600 
    159 H159        0.3344  -18.9077  -40.8196 H         1 UNK         0.3000 
    160 H160       -2.6250  -19.9979  -39.2940 H         1 UNK         0.0600 
    161 H161       -1.6170  -17.1309  -38.8818 H         1 UNK         0.0600 
    162 H162       -2.2256  -18.1903  -37.6143 H         1 UNK         0.0600 
    163 H163       -3.3043  -17.6406  -38.8873 H         1 UNK         0.0600 
    164 H164       -2.1153  -17.8681  -41.1540 H         1 UNK         0.3000 
    165 H165       -1.2282  -19.7399  -43.9186 H         1 UNK         0.0600 
    166 H166       -3.2840  -19.0650  -45.1148 H         1 UNK         0.0600 
    167 H167       -3.6681  -20.3774  -44.0141 H         1 UNK         0.0600 
    168 H168       -4.1036  -18.7258  -43.5936 H         1 UNK         0.0600 
    169 H169       -2.2719  -17.1384  -43.9355 H         1 UNK         0.3000 
    170 H170        0.1001  -15.2775  -42.1770 H         1 UNK         0.0600 
    171 H171        1.5363  -15.7464  -44.1719 H         1 UNK         0.0600 
    172 H172        0.1372  -15.5853  -45.2273 H         1 UNK         0.0600 
    173 H173        0.7287  -14.1936  -44.3168 H         1 UNK         0.0600 
    174 H174       -1.7662  -14.4124  -44.1118 H         1 UNK         0.3000 
    175 H175       -4.7975  -15.1243  -42.6101 H         1 UNK         0.0600 
    176 H176       -3.5606  -12.3390  -42.2721 H         1 UNK         0.0600 
    177 H177       -5.2844  -12.7162  -42.2762 H         1 UNK         0.0600 
    178 H178       -4.2604  -13.3026  -40.9766 H         1 UNK         0.0600 
    179 H179       -4.2690  -13.1255  -44.5090 H         1 UNK         0.3000 
    180 H180       -4.7526  -15.0923  -47.2749 H         1 UNK         0.0600 
    181 H181       -4.3094  -12.2222  -46.3063 H         1 UNK         0.0600 
    182 H182       -5.8514  -13.0799  -46.2599 H         1 UNK         0.0600 
    183 H183       -5.0873  -12.7316  -47.7979 H         1 UNK         0.0600 
    184 H184       -2.8622  -14.6315  -48.3775 H         1 UNK         0.3000 
    185 H185       -0.9188  -12.9447  -48.8079 H         1 UNK         0.0600 
    186 H186        1.1305  -13.6738  -46.6570 H         1 UNK         0.0600 
    187 H187        1.4650  -12.8985  -48.2012 H         1 UNK         0.0600 
    188 H188        0.5265  -12.0531  -46.9832 H         1 UNK         0.0600 
    189 H189        0.5535  -15.3837  -48.2659 H         1 UNK         0.3000 
    190 H190        1.6681  -20.1780  -46.8372 H         1 UNK         0.3000 
    191 H191       -0.6223  -19.3414  -48.3941 H         1 UNK         0.0600 
    192 H192       -1.1594  -17.9874  -46.3719 H         1 UNK         0.0600 
    193 H193        0.5163  -17.7684  -46.8513 H         1 UNK         0.0600 
    194 H194        0.1275  -18.8009  -45.4879 H         1 UNK         0.0600 
    195 H195       -0.1314  -21.5957  -45.6722 H         1 UNK         0.3000 
    196 H196       -2.8657  -22.2537  -45.2417 H         1 UNK         0.0600 
    197 H197       -1.9496  -24.2292  -44.0660 H         1 UNK         0.0600 
    198 H198       -1.0340  -22.7913  -43.6379 H         1 UNK         0.0600 
    199 H199       -0.3628  -23.9581  -44.7724 H         1 UNK         0.0600 
    200 H200       -0.3640  -23.8484  -47.2933 H         1 UNK         0.3000 
    201 H201       -2.0480  -25.8179  -48.4435 H         1 UNK         0.0600 
    202 H202        0.4001  -25.9972  -48.4878 H         1 UNK         0.0600 
    203 H203        0.5399  -24.5279  -49.4474 H         1 UNK         0.0600 
    204 H204       -0.1886  -25.9731  -50.1450 H         1 UNK         0.0600 
    205 H205       -1.2702  -22.4958  -49.5040 H         1 UNK         0.3000 
    206 H206       -2.7342  -22.5622  -51.9411 H         1 UNK         0.0600 
    207 H207       -0.8797  -20.9840  -51.5033 H         1 UNK         0.0600 
    208 H208       -2.3326  -20.0822  -51.8665 H         1 UNK         0.0600 
    209 H209       -1.8001  -20.2201  -50.2054 H         1 UNK         0.0600 
    210 H210       -3.9800  -22.6766  -48.8617 H         1 UNK         0.3000 
    211 H211       -5.9307  -22.4531  -47.8900 H         1 UNK         0.0600 
    212 H212       -7.1078  -22.2379  -50.7085 H         1 UNK         0.0600 
    213 H213       -8.0250  -22.5329  -49.2387 H         1 UNK         0.0600 
    214 H214       -6.8469  -23.7123  -49.7881 H         1 UNK         0.0600 
    215 H215       -4.3525  -20.2833  -47.8106 H         1 UNK         0.3000 
    216 H216       -4.2507  -18.1981  -47.1283 H         1 UNK         0.0600 
    217 H217       -6.1744  -17.3045  -45.8099 H         1 UNK         0.0600 
    218 H218       -5.8987  -18.9952  -45.4477 H         1 UNK         0.0600 
    219 H219       -7.2395  -18.5375  -46.4832 H         1 UNK         0.0600 
    220 H220       -7.2910  -16.8933  -47.6855 H         1 UNK         0.3000 
    221 H221       -6.3413  -14.9612  -49.5298 H         1 UNK         0.0600 
    222 H222       -9.1872  -15.6174  -48.5993 H         1 UNK         0.0600 
    223 H223       -8.0701  -14.4983  -47.8150 H         1 UNK         0.0600 
    224 H224       -8.6982  -14.1363  -49.4135 H         1 UNK         0.0600 
    225 H225       -7.5536  -18.1256  -50.1914 H         1 UNK         0.3000 
    226 H226       -8.6233  -17.6667  -52.8281 H         1 UNK         0.0600 
    227 H227       -7.3679  -20.1711  -51.6063 H         1 UNK         0.0600 
    228 H228       -9.0753  -19.7435  -51.5086 H         1 UNK         0.0600 
    229 H229       -8.3463  -20.1210  -53.0651 H         1 UNK         0.0600 
    230 H230       -5.3863  -18.0339  -51.5028 H         1 UNK         0.3000 
    231 H231       -3.3266  -17.8520  -52.2710 H         1 UNK         0.0600 
    232 H232       -2.9645  -15.8648  -53.7423 H         1 UNK         0.0600 
    233 H233       -4.1614  -15.5403  -52.4997 H         1 UNK         0.0600 
    234 H234       -4.6726  -15.8512  -54.1586 H         1 UNK         0.0600 
    235 H235       -4.1947  -20.1924  -53.2164 H         1 UNK         0.3000 
    236 H236       -3.5726  -20.5343  -56.0526 H         1 UNK         0.0600 
    237 H237       -5.2420  -21.9779  -55.0129 H         1 UNK         0.0600 
    238 H238       -3.8736  -22.9608  -55.4963 H         1 UNK         0.0600 
    239 H239       -4.1076  -22.5419  -53.7994 H         1 UNK         0.0600 
    240 H240       -2.0448  -22.8889  -54.0107 H         1 UNK         0.3000 
    241 H241        0.5272  -21.6655  -53.8079 H         1 UNK         0.0600 
    242 H242        1.1361  -24.1585  -51.3820 H         1 UNK         0.3800 
    243 H243        1.6959  -22.6925  -52.1364 H         1 UNK         0.3800 
    244 H244        0.1173  -23.8327  -55.9284 H         1 UNK         0.0800 
    245 H245        0.6677  -22.2111  -56.2180 H         1 UNK         0.0800 
    246 H246        4.3913  -22.4131  -56.0113 H         1 UNK         0.0800 
    247 H247        2.9590  -21.6060  -56.5871 H         1 UNK         0.0800 
@<TRIPOS>BOND
     1    1    2 1    
     2    1  127 1    
     3    1  128 1    
     4    1  129 1    
     5    2    3 2    
     6    2    4 am   BACKBONE|DICT|INTERRES
     7    4    5 1    
     8    4  130 1    
     9    5    6 1    
    10    5   65 1    
    11    5  131 1    
    12    6    7 1    
    13    6  132 1    
    14    6  133 1    
    15    7    8 1    
    16    8    9 1    
    17    8  134 1    
    18    8  135 1    
    19    9   10 ar   
    20    9   14 ar   
    21   10   11 ar   
    22   10  136 1    
    23   11   12 ar   
    24   11  126 1    
    25   12   13 ar   
    26   12  137 1    
    27   13   14 ar   
    28   13   15 1    
    29   14  138 1    
    30   15   16 1    
    31   15  139 1    
    32   15  140 1    
    33   16   17 1    
    34   17   18 1    
    35   17  141 1    
    36   17  142 1    
    37   18   19 1    
    38   18   67 1    
    39   18  143 1    
    40   19   20 am   BACKBONE|DICT|INTERRES
    41   19  144 1    
    42   20   21 2    
    43   20   22 1    
    44   22   23 1    
    45   22   24 1    
    46   22  145 1    
    47   23  146 1    
    48   23  147 1    
    49   23  148 1    
    50   24   25 am   BACKBONE|DICT|INTERRES
    51   24  149 1    
    52   25   26 2    
    53   25   27 1    
    54   27   28 1    
    55   27   29 1    
    56   27  150 1    
    57   28  151 1    
    58   28  152 1    
    59   28  153 1    
    60   29   30 am   BACKBONE|DICT|INTERRES
    61   29  154 1    
    62   30   31 2    
    63   30   32 1    
    64   32   33 1    
    65   32   34 1    
    66   32  155 1    
    67   33  156 1    
    68   33  157 1    
    69   33  158 1    
    70   34   35 am   BACKBONE|DICT|INTERRES
    71   34  159 1    
    72   35   36 2    
    73   35   37 1    
    74   37   38 1    
    75   37   39 1    
    76   37  160 1    
    77   38  161 1    
    78   38  162 1    
    79   38  163 1    
    80   39   40 am   BACKBONE|DICT|INTERRES
    81   39  164 1    
    82   40   41 2    
    83   40   42 1    
    84   42   43 1    
    85   42   44 1    
    86   42  165 1    
    87   43  166 1    
    88   43  167 1    
    89   43  168 1    
    90   44   45 am   BACKBONE|DICT|INTERRES
    91   44  169 1    
    92   45   46 2    
    93   45   47 1    
    94   47   48 1    
    95   47   49 1    
    96   47  170 1    
    97   48  171 1    
    98   48  172 1    
    99   48  173 1    
   100   49   50 am   BACKBONE|DICT|INTERRES
   101   49  174 1    
   102   50   51 2    
   103   50   52 1    
   104   52   53 1    
   105   52   54 1    
   106   52  175 1    
   107   53  176 1    
   108   53  177 1    
   109   53  178 1    
   110   54   55 am   BACKBONE|DICT|INTERRES
   111   54  179 1    
   112   55   56 2    
   113   55   57 1    
   114   57   58 1    
   115   57   59 1    
   116   57  180 1    
   117   58  181 1    
   118   58  182 1    
   119   58  183 1    
   120   59   60 am   BACKBONE|DICT|INTERRES
   121   59  184 1    
   122   60   61 2    
   123   60   62 1    
   124   62   63 1    
   125   62   64 1    
   126   62  185 1    
   127   63  186 1    
   128   63  187 1    
   129   63  188 1    
   130   64   65 am   BACKBONE|DICT|INTERRES
   131   64  189 1    
   132   65   66 2    
   133   67   68 2    
   134   67   69 am   BACKBONE|DICT|INTERRES
   135   69   70 1    
   136   69  190 1    
   137   70   71 1    
   138   70   72 1    
   139   70  191 1    
   140   71  192 1    
   141   71  193 1    
   142   71  194 1    
   143   72   73 2    
   144   72   74 am   BACKBONE|DICT|INTERRES
   145   74   75 1    
   146   74  195 1    
   147   75   76 1    
   148   75   77 1    
   149   75  196 1    
   150   76  197 1    
   151   76  198 1    
   152   76  199 1    
   153   77   78 2    
   154   77   79 am   BACKBONE|DICT|INTERRES
   155   79   80 1    
   156   79  200 1    
   157   80   81 1    
   158   80   82 1    
   159   80  201 1    
   160   81  202 1    
   161   81  203 1    
   162   81  204 1    
   163   82   83 2    
   164   82   84 am   BACKBONE|DICT|INTERRES
   165   84   85 1    
   166   84  205 1    
   167   85   86 1    
   168   85   87 1    
   169   85  206 1    
   170   86  207 1    
   171   86  208 1    
   172   86  209 1    
   173   87   88 2    
   174   87   89 am   BACKBONE|DICT|INTERRES
   175   89   90 1    
   176   89  210 1    
   177   90   91 1    
   178   90   92 1    
   179   90  211 1    
   180   91  212 1    
   181   91  213 1    
   182   91  214 1    
   183   92   93 2    
   184   92   94 am   BACKBONE|DICT|INTERRES
   185   94   95 1    
   186   94  215 1    
   187   95   96 1    
   188   95   97 1    
   189   95  216 1    
   190   96  217 1    
   191   96  218 1    
   192   96  219 1    
   193   97   98 2    
   194   97   99 am   BACKBONE|DICT|INTERRES
   195   99  100 1    
   196   99  220 1    
   197  100  101 1    
   198  100  102 1    
   199  100  221 1    
   200  101  222 1    
   201  101  223 1    
   202  101  224 1    
   203  102  103 2    
   204  102  104 am   BACKBONE|DICT|INTERRES
   205  104  105 1    
   206  104  225 1    
   207  105  106 1    
   208  105  107 1    
   209  105  226 1    
   210  106  227 1    
   211  106  228 1    
   212  106  229 1    
   213  107  108 2    
   214  107  109 am   BACKBONE|DICT|INTERRES
   215  109  110 1    
   216  109  230 1    
   217  110  111 1    
   218  110  112 1    
   219  110  231 1    
   220  111  232 1    
   221  111  233 1    
   222  111  234 1    
   223  112  113 2    
   224  112  114 am   BACKBONE|DICT|INTERRES
   225  114  115 1    
   226  114  235 1    
   227  115  116 1    
   228  115  117 1    
   229  115  236 1    
   230  116  237 1    
   231  116  238 1    
   232  116  239 1    
   233  117  118 2    
   234  117  119 am   BACKBONE|DICT|INTERRES
   235  119  120 1    
   236  119  240 1    
   237  120  121 1    
   238  120  124 1    
   239  120  241 1    
   240  121  122 am   BACKBONE|DICT|INTERRES
   241  121  123 2    
   242  122  242 1    
   243  122  243 1    
   244  124  125 1    
   245  124  244 1    
   246  124  245 1    
   247  125  126 1    
   248  126  246 1    
   249  126  247 1    
@<TRIPOS>SUBSTRUCTURE
     1 UNK         1 GROUP             0       ****    0 ROOT    
