@<TRIPOS>MOLECULE
3R540
247   249    1
SMALL
USER_CHARGES


@<TRIPOS>ATOM
      1 CA          1.5845  -11.1104  -51.1994 C.3       0 UNK        -0.1800 
      2 C           2.4630  -11.3543  -49.9805 C.2       0 UNK         0.5000 
      3 O           3.4925  -10.6971  -49.8264 O.2       0 UNK        -0.5000 
      4 N           2.0600  -12.2960  -49.1174 N.am      1 UNK        -0.5000 
      5 CA          2.7721  -12.6687  -47.8868 C.3       1 UNK         0.1400 
      6 C6          2.2875  -14.0297  -47.3352 C.3       23 UNK        -0.0398 
      7 S7          2.8214  -15.4030  -48.4080 S.3       23 UNK        -0.2404 
      8 C8          1.2307  -16.0972  -48.9569 C.3       23 UNK        -0.0205 
      9 C9          1.4231  -17.3810  -49.7526 C.ar      23 UNK        -0.0193 
     10 C10         0.9045  -17.5073  -51.0456 C.ar      23 UNK        -0.1150 
     11 C11         1.0597  -18.6978  -51.7663 C.ar      23 UNK        -0.0193 
     12 C12         1.7526  -19.7631  -51.1790 C.ar      23 UNK        -0.1150 
     13 C13         2.2600  -19.6572  -49.8806 C.ar      23 UNK        -0.0193 
     14 C14         2.0985  -18.4606  -49.1788 C.ar      23 UNK        -0.1150 
     15 C15         2.9418  -20.8533  -49.2241 C.3       23 UNK        -0.0205 
     16 S16         2.2499  -21.2688  -47.5829 S.3       23 UNK        -0.2404 
     17 C17         0.4527  -21.1132  -47.8663 C.3       23 UNK        -0.0398 
     18 CA         -0.3617  -22.2504  -47.2201 C.3       11 UNK         0.1400 
     19 N          -0.3350  -22.1956  -45.7548 N.am      11 UNK        -0.5000 
     20 C          -0.9050  -23.0802  -44.9227 C.2       10 UNK         0.5000 
     21 O          -1.5637  -24.0534  -45.2982 O.2       10 UNK        -0.5000 
     22 CA         -0.7569  -22.7875  -43.4214 C.3       10 UNK         0.1400 
     23 CB          0.6798  -23.0444  -42.9405 C.3       10 UNK        -0.1800 
     24 N          -1.1409  -21.4071  -43.1279 N.am      10 UNK        -0.5000 
     25 C          -2.4111  -20.9964  -43.0091 C.2       9 UNK         0.5000 
     26 O          -3.3765  -21.7599  -43.0277 O.2       9 UNK        -0.5000 
     27 CA         -2.6581  -19.4833  -42.8543 C.3       9 UNK         0.1400 
     28 CB         -2.7210  -19.1028  -41.3674 C.3       9 UNK        -0.1800 
     29 N          -1.6619  -18.6455  -43.5241 N.am      9 UNK        -0.5000 
     30 C          -1.4549  -18.6001  -44.8475 C.2       8 UNK         0.5000 
     31 O          -2.0966  -19.2600  -45.6628 O.2       8 UNK        -0.5000 
     32 CA         -0.2979  -17.7094  -45.3403 C.3       8 UNK         0.1400 
     33 CB         -0.7432  -16.2431  -45.4354 C.3       8 UNK        -0.1800 
     34 N           0.9025  -17.8037  -44.5068 N.am      8 UNK        -0.5000 
     35 C           1.5650  -18.9408  -44.2453 C.2       7 UNK         0.5000 
     36 O           1.2224  -20.0471  -44.6598 O.2       7 UNK        -0.5000 
     37 CA          2.7731  -18.8295  -43.3047 C.3       7 UNK         0.1400 
     38 CB          3.9807  -18.2090  -44.0245 C.3       7 UNK        -0.1800 
     39 N           2.4340  -18.0459  -42.1183 N.am      7 UNK        -0.5000 
     40 C           1.6405  -18.4883  -41.1311 C.2       6 UNK         0.5000 
     41 O           1.1882  -19.6323  -41.0757 O.2       6 UNK        -0.5000 
     42 CA          1.2597  -17.4698  -40.0402 C.3       6 UNK         0.1400 
     43 CB          2.3189  -17.4453  -38.9282 C.3       6 UNK        -0.1800 
     44 N           1.0791  -16.1152  -40.5662 N.am      6 UNK        -0.5000 
     45 C           0.1079  -15.7537  -41.4169 C.2       5 UNK         0.5000 
     46 O          -0.7620  -16.5211  -41.8240 O.2       5 UNK        -0.5000 
     47 CA          0.1372  -14.3048  -41.9332 C.3       5 UNK         0.1400 
     48 CB         -0.6831  -13.3851  -41.0177 C.3       5 UNK        -0.1800 
     49 N           1.4911  -13.7687  -42.0634 N.am      5 UNK        -0.5000 
     50 C           2.4302  -14.2156  -42.9061 C.2       4 UNK         0.5000 
     51 O           2.2573  -15.1725  -43.6647 O.2       4 UNK        -0.5000 
     52 CA          3.7760  -13.4584  -42.8779 C.3       4 UNK         0.1400 
     53 CB          4.7860  -13.9779  -43.9158 C.3       4 UNK        -0.1800 
     54 N           3.5909  -12.0143  -43.0556 N.am      4 UNK        -0.5000 
     55 C           3.2150  -11.1630  -42.0887 C.2       3 UNK         0.5000 
     56 O           3.0115  -11.5155  -40.9258 O.2       3 UNK        -0.5000 
     57 CA          2.9915   -9.6867  -42.4700 C.3       3 UNK         0.1400 
     58 CB          4.2375   -8.8528  -42.1358 C.3       3 UNK        -0.1800 
     59 N           2.6465   -9.4808  -43.8762 N.am      3 UNK        -0.5000 
     60 C           1.5168   -9.8876  -44.4716 C.2       2 UNK         0.5000 
     61 O           0.6104  -10.4843  -43.8890 O.2       2 UNK        -0.5000 
     62 CA          1.3787   -9.5897  -45.9800 C.3       2 UNK         0.1400 
     63 CB          2.2573   -8.4139  -46.4628 C.3       2 UNK        -0.1800 
     64 N           1.6244  -10.7685  -46.8171 N.am      2 UNK        -0.5000 
     65 C           2.6999  -11.5731  -46.8017 C.2       1 UNK         0.5000 
     66 O           3.6275  -11.4686  -45.9973 O.2       1 UNK        -0.5000 
     67 C          -1.7847  -22.2614  -47.8086 C.2       11 UNK         0.5000 
     68 O          -1.9655  -22.8271  -48.8871 O.2       11 UNK        -0.5000 
     69 N          -2.7609  -21.6819  -47.0925 N.am      12 UNK        -0.5000 
     70 CA         -4.1924  -21.6560  -47.4052 C.3       12 UNK         0.1400 
     71 CB         -4.9673  -21.1295  -46.1886 C.3       12 UNK        -0.1800 
     72 C          -4.7600  -23.0148  -47.8513 C.2       12 UNK         0.5000 
     73 O          -5.5120  -23.0611  -48.8293 O.2       12 UNK        -0.5000 
     74 N          -4.3263  -24.0768  -47.1598 N.am      13 UNK        -0.5000 
     75 CA         -4.6107  -25.4678  -47.4895 C.3       13 UNK         0.1400 
     76 CB         -5.1273  -26.1856  -46.2335 C.3       13 UNK        -0.1800 
     77 C          -3.3672  -26.1861  -48.0431 C.2       13 UNK         0.5000 
     78 O          -3.5048  -26.9484  -48.9988 O.2       13 UNK        -0.5000 
     79 N          -2.1810  -25.9468  -47.4570 N.am      14 UNK        -0.5000 
     80 CA         -0.9542  -26.6991  -47.7583 C.3       14 UNK         0.1400 
     81 CB          0.1103  -26.4125  -46.6881 C.3       14 UNK        -0.1800 
     82 C          -0.3817  -26.4528  -49.1672 C.2       14 UNK         0.5000 
     83 O           0.1524  -27.3837  -49.7709 O.2       14 UNK        -0.5000 
     84 N          -0.5198  -25.2202  -49.6691 N.am      15 UNK        -0.5000 
     85 CA         -0.1789  -24.8228  -51.0395 C.3       15 UNK         0.1400 
     86 CB          0.7279  -23.5825  -50.9813 C.3       15 UNK        -0.1800 
     87 C          -1.4502  -24.5264  -51.8595 C.2       15 UNK         0.5000 
     88 O          -1.3481  -24.1346  -53.0219 O.2       15 UNK        -0.5000 
     89 N          -2.6192  -24.6987  -51.2247 N.am      16 UNK        -0.5000 
     90 CA         -3.9623  -24.3683  -51.6919 C.3       16 UNK         0.1400 
     91 CB         -4.3668  -25.2697  -52.8743 C.3       16 UNK        -0.1800 
     92 C          -4.1434  -22.8655  -51.9863 C.2       16 UNK         0.5000 
     93 O          -4.9040  -22.5112  -52.8889 O.2       16 UNK        -0.5000 
     94 N          -3.4612  -22.0002  -51.2176 N.am      17 UNK        -0.5000 
     95 CA         -3.4512  -20.5431  -51.3975 C.3       17 UNK         0.1400 
     96 CB         -2.4072  -19.8971  -50.4733 C.3       17 UNK        -0.1800 
     97 C          -4.8304  -19.8776  -51.2358 C.2       17 UNK         0.5000 
     98 O          -5.0645  -18.8285  -51.8351 O.2       17 UNK        -0.5000 
     99 N          -5.7202  -20.5167  -50.4672 N.am      18 UNK        -0.5000 
    100 CA        -7.1271  -20.1507  -50.3383 C.3       18 UNK         0.1400 
    101 CB        -7.4954  -20.0506  -48.8502 C.3       18 UNK        -0.1800 
    102 C         -8.0102  -21.1922  -51.0418 C.2       18 UNK         0.5000 
    103 O         -8.9623  -20.8107  -51.7222 O.2       18 UNK        -0.5000 
    104 N         -7.6783  -22.4828  -50.8757 N.am      19 UNK        -0.5000 
    105 CA        -8.4665  -23.6169  -51.3658 C.3       19 UNK         0.1400 
    106 CB        -7.8909  -24.9178  -50.7859 C.3       19 UNK        -0.1800 
    107 C         -8.5925  -23.7117  -52.9007 C.2       19 UNK         0.5000 
    108 O         -9.6211  -24.1875  -53.3836 O.2       19 UNK        -0.5000 
    109 N         -7.5692  -23.2616  -53.6383 N.am      20 UNK        -0.5000 
    110 CA        -7.5341  -23.2643  -55.1033 C.3       20 UNK         0.1400 
    111 CB        -6.9278  -24.5863  -55.6115 C.3       20 UNK        -0.1800 
    112 C         -6.7937  -22.0299  -55.6502 C.2       20 UNK         0.5000 
    113 O         -6.2171  -22.0958  -56.7379 O.2       20 UNK        -0.5000 
    114 N         -6.7970  -20.9309  -54.8783 N.am      21 UNK        -0.5000 
    115 CA        -6.1724  -19.6334  -55.1778 C.3       21 UNK         0.1400 
    116 CB        -6.9681  -18.9085  -56.2827 C.3       21 UNK        -0.1800 
    117 C         -4.6595  -19.7144  -55.4947 C.2       21 UNK         0.5000 
    118 O         -4.1452  -18.9020  -56.2655 O.2       21 UNK        -0.5000 
    119 N         -3.9781  -20.7022  -54.9007 N.am      22 UNK        -0.5000 
    120 CA        -2.5669  -21.0590  -55.1223 C.3       22 UNK         0.1400 
    121 C         -2.2765  -21.7215  -56.5047 C.2       22 UNK         0.5000 
    122 N         -3.2799  -22.1500  -57.2637 N.am      22 UNK        -0.7600 
    123 O         -1.1218  -21.8772  -56.8924 O.2       22 UNK        -0.5000 
    124 C124       -1.5786  -19.9030  -54.7606 C.3       23 UNK        -0.0398 
    125 S125       -0.3582  -20.3970  -53.4975 S.3       23 UNK        -0.2404 
    126 C126        0.4863  -18.8091  -53.1783 C.3       23 UNK        -0.0205 
    127 H127        2.1533  -11.2852  -52.1126 H         1 UNK         0.0600 
    128 H128        1.2327  -10.0788  -51.2077 H         1 UNK         0.0600 
    129 H129        0.7140  -11.7668  -51.2106 H         1 UNK         0.0600 
    130 H130        1.2154  -12.8132  -49.3124 H         1 UNK         0.3000 
    131 H131        3.8309  -12.7689  -48.1374 H         1 UNK         0.0600 
    132 H132        1.2031  -14.0340  -47.2174 H         1 UNK         0.0800 
    133 H133        2.6961  -14.2254  -46.3435 H         1 UNK         0.0800 
    134 H134        0.6087  -16.3156  -48.0891 H         1 UNK         0.0800 
    135 H135        0.6988  -15.3496  -49.5470 H         1 UNK         0.0800 
    136 H136        0.3747  -16.6770  -51.4910 H         1 UNK         0.1150 
    137 H137        1.8778  -20.6859  -51.7275 H         1 UNK         0.1150 
    138 H138        2.4849  -18.3750  -48.1726 H         1 UNK         0.1150 
    139 H139        2.8692  -21.7338  -49.8630 H         1 UNK         0.0800 
    140 H140        4.0056  -20.6395  -49.1154 H         1 UNK         0.0800 
    141 H141        0.2753  -21.0956  -48.9414 H         1 UNK         0.0800 
    142 H142        0.1229  -20.1434  -47.4920 H         1 UNK         0.0800 
    143 H143        0.0974  -23.1959  -47.5114 H         1 UNK         0.0600 
    144 H144        0.1981  -21.4258  -45.3540 H         1 UNK         0.3000 
    145 H145       -1.4165  -23.4674  -42.8779 H         1 UNK         0.0600 
    146 H146        0.7720  -22.8668  -41.8688 H         1 UNK         0.0600 
    147 H147        0.9721  -24.0786  -43.1262 H         1 UNK         0.0600 
    148 H148        1.4033  -22.4045  -43.4458 H         1 UNK         0.0600 
    149 H149       -0.4012  -20.7169  -43.1271 H         1 UNK         0.3000 
    150 H150       -3.6290  -19.2648  -43.3036 H         1 UNK         0.0600 
    151 H151       -3.4553  -19.7101  -40.8366 H         1 UNK         0.0600 
    152 H152       -3.0105  -18.0597  -41.2398 H         1 UNK         0.0600 
    153 H153       -1.7573  -19.2456  -40.8766 H         1 UNK         0.0600 
    154 H154       -1.1291  -18.0172  -42.9279 H         1 UNK         0.3000 
    155 H155       -0.0202  -18.0450  -46.3408 H         1 UNK         0.0600 
    156 H156       -1.1307  -15.8782  -44.4848 H         1 UNK         0.0600 
    157 H157       -1.5348  -16.1259  -46.1763 H         1 UNK         0.0600 
    158 H158        0.0816  -15.5950  -45.7297 H         1 UNK         0.0600 
    159 H159        1.2644  -16.9350  -44.1280 H         1 UNK         0.3000 
    160 H160        3.0504  -19.8376  -42.9887 H         1 UNK         0.0600 
    161 H161        3.7653  -17.2089  -44.4002 H         1 UNK         0.0600 
    162 H162        4.2748  -18.8193  -44.8794 H         1 UNK         0.0600 
    163 H163        4.8432  -18.1403  -43.3616 H         1 UNK         0.0600 
    164 H164        2.7228  -17.0788  -42.1142 H         1 UNK         0.3000 
    165 H165        0.3117  -17.7915  -39.6035 H         1 UNK         0.0600 
    166 H166        2.0207  -16.7847  -38.1139 H         1 UNK         0.0600 
    167 H167        2.4606  -18.4398  -38.5029 H         1 UNK         0.0600 
    168 H168        3.2867  -17.1061  -39.2997 H         1 UNK         0.0600 
    169 H169        1.7508  -15.4184  -40.2798 H         1 UNK         0.3000 
    170 H170       -0.3199  -14.2939  -42.9239 H         1 UNK         0.0600 
    171 H171       -1.7082  -13.7451  -40.9195 H         1 UNK         0.0600 
    172 H172       -0.2561  -13.3286  -40.0157 H         1 UNK         0.0600 
    173 H173       -0.7316  -12.3727  -41.4198 H         1 UNK         0.0600 
    174 H174        1.7297  -12.9752  -41.4781 H         1 UNK         0.3000 
    175 H175        4.2127  -13.6372  -41.8932 H         1 UNK         0.0600 
    176 H176        4.4378  -13.8268  -44.9358 H         1 UNK         0.0600 
    177 H177        5.7454  -13.4704  -43.8156 H         1 UNK         0.0600 
    178 H178        4.9706  -15.0447  -43.7851 H         1 UNK         0.0600 
    179 H179        3.6823  -11.6643  -44.0051 H         1 UNK         0.3000 
    180 H180        2.1609   -9.3168  -41.8652 H         1 UNK         0.0600 
    181 H181        5.0989   -9.1617  -42.7294 H         1 UNK         0.0600 
    182 H182        4.5084   -8.9582  -41.0844 H         1 UNK         0.0600 
    183 H183        4.0644   -7.7923  -42.3202 H         1 UNK         0.0600 
    184 H184        3.3472   -9.0329  -44.4488 H         1 UNK         0.3000 
    185 H185        0.3373   -9.3058  -46.1391 H         1 UNK         0.0600 
    186 H186        2.0870   -7.5203  -45.8608 H         1 UNK         0.0600 
    187 H187        3.3218   -8.6476  -46.4227 H         1 UNK         0.0600 
    188 H188        2.0210   -8.1541  -47.4948 H         1 UNK         0.0600 
    189 H189        0.9148  -10.9602  -47.5096 H         1 UNK         0.3000 
    190 H190       -2.4838  -21.1477  -46.2755 H         1 UNK         0.3000 
    191 H191       -4.3337  -20.9497  -48.2200 H         1 UNK         0.0600 
    192 H192       -4.6624  -20.1147  -45.9335 H         1 UNK         0.0600 
    193 H193       -6.0399  -21.1048  -46.3808 H         1 UNK         0.0600 
    194 H194       -4.8096  -21.7575  -45.3117 H         1 UNK         0.0600 
    195 H195       -3.6813  -23.9136  -46.3976 H         1 UNK         0.3000 
    196 H196       -5.3908  -25.5227  -48.2522 H         1 UNK         0.0600 
    197 H197       -5.3501  -27.2323  -46.4446 H         1 UNK         0.0600 
    198 H198       -6.0457  -25.7251  -45.8691 H         1 UNK         0.0600 
    199 H199       -4.3967  -26.1605  -45.4238 H         1 UNK         0.0600 
    200 H200       -2.1223  -25.3018  -46.6745 H         1 UNK         0.3000 
    201 H201       -1.2027  -27.7608  -47.6954 H         1 UNK         0.0600 
    202 H202       -0.2639  -26.6341  -45.6885 H         1 UNK         0.0600 
    203 H203        0.4319  -25.3719  -46.7030 H         1 UNK         0.0600 
    204 H204        0.9964  -27.0285  -46.8462 H         1 UNK         0.0600 
    205 H205       -0.9968  -24.5131  -49.1204 H         1 UNK         0.3000 
    206 H206        0.3616  -25.6205  -51.5523 H         1 UNK         0.0600 
    207 H207        1.5953  -23.7575  -50.3451 H         1 UNK         0.0600 
    208 H208        1.0975  -23.3220  -51.9738 H         1 UNK         0.0600 
    209 H209        0.1947  -22.7132  -50.5982 H         1 UNK         0.0600 
    210 H210       -2.5707  -25.0571  -50.2823 H         1 UNK         0.3000 
    211 H211       -4.6261  -24.5975  -50.8590 H         1 UNK         0.0600 
    212 H212       -3.8144  -25.0213  -53.7811 H         1 UNK         0.0600 
    213 H213       -5.4280  -25.1666  -53.0964 H         1 UNK         0.0600 
    214 H214       -4.1879  -26.3208  -52.6481 H         1 UNK         0.0600 
    215 H215       -2.8689  -22.3704  -50.4788 H         1 UNK         0.3000 
    216 H216       -3.1303  -20.3518  -52.4178 H         1 UNK         0.0600 
    217 H217       -2.2701  -18.8447  -50.7245 H         1 UNK         0.0600 
    218 H218       -1.4352  -20.3790  -50.5774 H         1 UNK         0.0600 
    219 H219       -2.6962  -19.9416  -49.4255 H         1 UNK         0.0600 
    220 H220       -5.4435  -21.3945  -50.0456 H         1 UNK         0.3000 
    221 H221       -7.3183  -19.1800  -50.8005 H         1 UNK         0.0600 
    222 H222       -7.4034  -21.0121  -48.3447 H         1 UNK         0.0600 
    223 H223       -6.8560  -19.3352  -48.3327 H         1 UNK         0.0600 
    224 H224       -8.5259  -19.7152  -48.7275 H         1 UNK         0.0600 
    225 H225       -6.9066  -22.7137  -50.2605 H         1 UNK         0.3000 
    226 H226       -9.4776  -23.4975  -50.9707 H         1 UNK         0.0600 
    227 H227       -7.8596  -24.8867  -49.6964 H         1 UNK         0.0600 
    228 H228       -8.5031  -25.7751  -51.0688 H         1 UNK         0.0600 
    229 H229       -6.8809  -25.1072  -51.1443 H         1 UNK         0.0600 
    230 H230       -6.7305  -22.9134  -53.1802 H         1 UNK         0.3000 
    231 H231       -8.5532  -23.1882  -55.4875 H         1 UNK         0.0600 
    232 H232       -7.4308  -25.4502  -55.1772 H         1 UNK         0.0600 
    233 H233       -5.8666  -24.6564  -55.3727 H         1 UNK         0.0600 
    234 H234       -7.0232  -24.6682  -56.6948 H         1 UNK         0.0600 
    235 H235       -7.2982  -20.9814  -54.0027 H         1 UNK         0.3000 
    236 H236       -6.2575  -19.0376  -54.2686 H         1 UNK         0.0600 
    237 H237       -6.6066  -17.8893  -56.4242 H         1 UNK         0.0600 
    238 H238       -6.8856  -19.4219  -57.2413 H         1 UNK         0.0600 
    239 H239       -8.0258  -18.8420  -56.0277 H         1 UNK         0.0600 
    240 H240       -4.4859  -21.3337  -54.2865 H         1 UNK         0.3000 
    241 H241       -2.4047  -21.8761  -54.4188 H         1 UNK         0.0600 
    242 H242       -3.0754  -22.5837  -58.1497 H         1 UNK         0.3800 
    243 H243       -4.2470  -22.0401  -56.9749 H         1 UNK         0.3800 
    244 H244       -2.1196  -19.0456  -54.3586 H         1 UNK         0.0800 
    245 H245       -1.0523  -19.5228  -55.6378 H         1 UNK         0.0800 
    246 H246       -0.2155  -17.9926  -53.3542 H         1 UNK         0.0800 
    247 H247        1.2934  -18.6846  -53.9011 H         1 UNK         0.0800 
@<TRIPOS>BOND
     1    1    2 1    
     2    1  127 1    
     3    1  128 1    
     4    1  129 1    
     5    2    3 2    
     6    2    4 am   BACKBONE|DICT|INTERRES
     7    4    5 1    
     8    4  130 1    
     9    5    6 1    
    10    5   65 1    
    11    5  131 1    
    12    6    7 1    
    13    6  132 1    
    14    6  133 1    
    15    7    8 1    
    16    8    9 1    
    17    8  134 1    
    18    8  135 1    
    19    9   10 ar   
    20    9   14 ar   
    21   10   11 ar   
    22   10  136 1    
    23   11   12 ar   
    24   11  126 1    
    25   12   13 ar   
    26   12  137 1    
    27   13   14 ar   
    28   13   15 1    
    29   14  138 1    
    30   15   16 1    
    31   15  139 1    
    32   15  140 1    
    33   16   17 1    
    34   17   18 1    
    35   17  141 1    
    36   17  142 1    
    37   18   19 1    
    38   18   67 1    
    39   18  143 1    
    40   19   20 am   BACKBONE|DICT|INTERRES
    41   19  144 1    
    42   20   21 2    
    43   20   22 1    
    44   22   23 1    
    45   22   24 1    
    46   22  145 1    
    47   23  146 1    
    48   23  147 1    
    49   23  148 1    
    50   24   25 am   BACKBONE|DICT|INTERRES
    51   24  149 1    
    52   25   26 2    
    53   25   27 1    
    54   27   28 1    
    55   27   29 1    
    56   27  150 1    
    57   28  151 1    
    58   28  152 1    
    59   28  153 1    
    60   29   30 am   BACKBONE|DICT|INTERRES
    61   29  154 1    
    62   30   31 2    
    63   30   32 1    
    64   32   33 1    
    65   32   34 1    
    66   32  155 1    
    67   33  156 1    
    68   33  157 1    
    69   33  158 1    
    70   34   35 am   BACKBONE|DICT|INTERRES
    71   34  159 1    
    72   35   36 2    
    73   35   37 1    
    74   37   38 1    
    75   37   39 1    
    76   37  160 1    
    77   38  161 1    
    78   38  162 1    
    79   38  163 1    
    80   39   40 am   BACKBONE|DICT|INTERRES
    81   39  164 1    
    82   40   41 2    
    83   40   42 1    
    84   42   43 1    
    85   42   44 1    
    86   42  165 1    
    87   43  166 1    
    88   43  167 1    
    89   43  168 1    
    90   44   45 am   BACKBONE|DICT|INTERRES
    91   44  169 1    
    92   45   46 2    
    93   45   47 1    
    94   47   48 1    
    95   47   49 1    
    96   47  170 1    
    97   48  171 1    
    98   48  172 1    
    99   48  173 1    
   100   49   50 am   BACKBONE|DICT|INTERRES
   101   49  174 1    
   102   50   51 2    
   103   50   52 1    
   104   52   53 1    
   105   52   54 1    
   106   52  175 1    
   107   53  176 1    
   108   53  177 1    
   109   53  178 1    
   110   54   55 am   BACKBONE|DICT|INTERRES
   111   54  179 1    
   112   55   56 2    
   113   55   57 1    
   114   57   58 1    
   115   57   59 1    
   116   57  180 1    
   117   58  181 1    
   118   58  182 1    
   119   58  183 1    
   120   59   60 am   BACKBONE|DICT|INTERRES
   121   59  184 1    
   122   60   61 2    
   123   60   62 1    
   124   62   63 1    
   125   62   64 1    
   126   62  185 1    
   127   63  186 1    
   128   63  187 1    
   129   63  188 1    
   130   64   65 am   BACKBONE|DICT|INTERRES
   131   64  189 1    
   132   65   66 2    
   133   67   68 2    
   134   67   69 am   BACKBONE|DICT|INTERRES
   135   69   70 1    
   136   69  190 1    
   137   70   71 1    
   138   70   72 1    
   139   70  191 1    
   140   71  192 1    
   141   71  193 1    
   142   71  194 1    
   143   72   73 2    
   144   72   74 am   BACKBONE|DICT|INTERRES
   145   74   75 1    
   146   74  195 1    
   147   75   76 1    
   148   75   77 1    
   149   75  196 1    
   150   76  197 1    
   151   76  198 1    
   152   76  199 1    
   153   77   78 2    
   154   77   79 am   BACKBONE|DICT|INTERRES
   155   79   80 1    
   156   79  200 1    
   157   80   81 1    
   158   80   82 1    
   159   80  201 1    
   160   81  202 1    
   161   81  203 1    
   162   81  204 1    
   163   82   83 2    
   164   82   84 am   BACKBONE|DICT|INTERRES
   165   84   85 1    
   166   84  205 1    
   167   85   86 1    
   168   85   87 1    
   169   85  206 1    
   170   86  207 1    
   171   86  208 1    
   172   86  209 1    
   173   87   88 2    
   174   87   89 am   BACKBONE|DICT|INTERRES
   175   89   90 1    
   176   89  210 1    
   177   90   91 1    
   178   90   92 1    
   179   90  211 1    
   180   91  212 1    
   181   91  213 1    
   182   91  214 1    
   183   92   93 2    
   184   92   94 am   BACKBONE|DICT|INTERRES
   185   94   95 1    
   186   94  215 1    
   187   95   96 1    
   188   95   97 1    
   189   95  216 1    
   190   96  217 1    
   191   96  218 1    
   192   96  219 1    
   193   97   98 2    
   194   97   99 am   BACKBONE|DICT|INTERRES
   195   99  100 1    
   196   99  220 1    
   197  100  101 1    
   198  100  102 1    
   199  100  221 1    
   200  101  222 1    
   201  101  223 1    
   202  101  224 1    
   203  102  103 2    
   204  102  104 am   BACKBONE|DICT|INTERRES
   205  104  105 1    
   206  104  225 1    
   207  105  106 1    
   208  105  107 1    
   209  105  226 1    
   210  106  227 1    
   211  106  228 1    
   212  106  229 1    
   213  107  108 2    
   214  107  109 am   BACKBONE|DICT|INTERRES
   215  109  110 1    
   216  109  230 1    
   217  110  111 1    
   218  110  112 1    
   219  110  231 1    
   220  111  232 1    
   221  111  233 1    
   222  111  234 1    
   223  112  113 2    
   224  112  114 am   BACKBONE|DICT|INTERRES
   225  114  115 1    
   226  114  235 1    
   227  115  116 1    
   228  115  117 1    
   229  115  236 1    
   230  116  237 1    
   231  116  238 1    
   232  116  239 1    
   233  117  118 2    
   234  117  119 am   BACKBONE|DICT|INTERRES
   235  119  120 1    
   236  119  240 1    
   237  120  121 1    
   238  120  124 1    
   239  120  241 1    
   240  121  122 am   BACKBONE|DICT|INTERRES
   241  121  123 2    
   242  122  242 1    
   243  122  243 1    
   244  124  125 1    
   245  124  244 1    
   246  124  245 1    
   247  125  126 1    
   248  126  246 1    
   249  126  247 1    
@<TRIPOS>SUBSTRUCTURE
     1 UNK         1 GROUP             0       ****    0 ROOT    
