@<TRIPOS>MOLECULE
3R540
247   249    1
SMALL
USER_CHARGES


@<TRIPOS>ATOM
      1 CA          3.3024  -11.0574  -47.1397 C.3       0 UNK        -0.1800 
      2 C           4.3054  -12.1863  -46.9557 C.2       0 UNK         0.5000 
      3 O           5.5056  -11.9286  -46.8644 O.2       0 UNK        -0.5000 
      4 N           3.8208  -13.4336  -46.9070 N.am      1 UNK        -0.5000 
      5 CA          4.6455  -14.6462  -46.7743 C.3       1 UNK         0.1400 
      6 C6          3.8932  -15.9103  -47.2575 C.3       23 UNK        -0.0398 
      7 S7          3.4192  -15.7381  -49.0133 S.3       23 UNK        -0.2404 
      8 C8          4.4054  -17.0213  -49.8465 C.3       23 UNK        -0.0205 
      9 C9          3.5623  -18.2486  -50.1543 C.ar      23 UNK        -0.0193 
     10 C10         2.5544  -18.1685  -51.1190 C.ar      23 UNK        -0.1150 
     11 C11         1.7622  -19.2788  -51.4185 C.ar      23 UNK        -0.0193 
     12 C12         1.9924  -20.4838  -50.7485 C.ar      23 UNK        -0.1150 
     13 C13         3.0114  -20.5863  -49.7950 C.ar      23 UNK        -0.0193 
     14 C14         3.7936  -19.4627  -49.5019 C.ar      23 UNK        -0.1150 
     15 C15         3.2742  -21.9246  -49.1116 C.3       23 UNK        -0.0205 
     16 S16         3.3794  -21.8268  -47.2914 S.3       23 UNK        -0.2404 
     17 C17         1.8217  -20.9895  -46.8423 C.3       23 UNK        -0.0398 
     18 CA          0.6719  -21.9530  -46.4674 C.3       11 UNK         0.1400 
     19 N          -0.3838  -21.2574  -45.7325 N.am      11 UNK        -0.5000 
     20 C          -1.4295  -21.8482  -45.1402 C.2       10 UNK         0.5000 
     21 O          -1.5906  -23.0684  -45.0916 O.2       10 UNK        -0.5000 
     22 CA         -2.4917  -20.9132  -44.5324 C.3       10 UNK         0.1400 
     23 CB         -2.0503  -20.4166  -43.1478 C.3       10 UNK        -0.1800 
     24 N          -2.8022  -19.7651  -45.3884 N.am      10 UNK        -0.5000 
     25 C          -3.3444  -19.8585  -46.6113 C.2       9 UNK         0.5000 
     26 O          -3.6483  -20.9241  -47.1444 O.2       9 UNK        -0.5000 
     27 CA         -3.5496  -18.5473  -47.3887 C.3       9 UNK         0.1400 
     28 CB         -4.7365  -17.7555  -46.8173 C.3       9 UNK        -0.1800 
     29 N          -2.3618  -17.6950  -47.4024 N.am      9 UNK        -0.5000 
     30 C          -1.1539  -18.0465  -47.8673 C.2       8 UNK         0.5000 
     31 O          -0.9009  -19.1373  -48.3732 O.2       8 UNK        -0.5000 
     32 CA         -0.0171  -17.0325  -47.6488 C.3       8 UNK         0.1400 
     33 CB         -0.1364  -15.8491  -48.6225 C.3       8 UNK        -0.1800 
     34 N           0.0157  -16.5458  -46.2664 N.am      8 UNK        -0.5000 
     35 C           0.2094  -17.3321  -45.1965 C.2       7 UNK         0.5000 
     36 O           0.4310  -18.5394  -45.2622 O.2       7 UNK        -0.5000 
     37 CA          0.0999  -16.6717  -43.8146 C.3       7 UNK         0.1400 
     38 CB          1.4210  -15.9947  -43.4428 C.3       7 UNK        -0.1800 
     39 N          -0.9975  -15.7097  -43.7366 N.am      7 UNK        -0.5000 
     40 C          -2.2921  -16.0472  -43.8250 C.2       6 UNK         0.5000 
     41 O          -2.6931  -17.2092  -43.8941 O.2       6 UNK        -0.5000 
     42 CA         -3.2991  -14.8886  -43.9264 C.3       6 UNK         0.1400 
     43 CB         -3.6462  -14.3300  -42.5387 C.3       6 UNK        -0.1800 
     44 N          -2.8051  -13.8138  -44.7896 N.am      6 UNK        -0.5000 
     45 C          -2.6110  -13.9433  -46.1110 C.2       5 UNK         0.5000 
     46 O          -2.8919  -14.9638  -46.7377 O.2       5 UNK        -0.5000 
     47 CA         -1.9780  -12.7582  -46.8631 C.3       5 UNK         0.1400 
     48 CB         -3.0549  -11.9703  -47.6234 C.3       5 UNK        -0.1800 
     49 N          -1.2442  -11.8454  -45.9870 N.am      5 UNK        -0.5000 
     50 C          -0.0617  -12.1080  -45.4151 C.2       4 UNK         0.5000 
     51 O           0.5766  -13.1459  -45.6162 O.2       4 UNK        -0.5000 
     52 CA          0.5036  -11.0220  -44.4696 C.3       4 UNK         0.1400 
     53 CB         -0.5559  -10.0068  -43.9830 C.3       4 UNK        -0.1800 
     54 N           1.2203  -11.5713  -43.3159 N.am      4 UNK        -0.5000 
     55 C           0.7576  -12.4347  -42.4024 C.2       3 UNK         0.5000 
     56 O          -0.3478  -12.9767  -42.4684 O.2       3 UNK        -0.5000 
     57 CA          1.7176  -12.7549  -41.2344 C.3       3 UNK         0.1400 
     58 CB          1.0261  -13.5349  -40.1015 C.3       3 UNK        -0.1800 
     59 N           2.8829  -13.5154  -41.6882 N.am      3 UNK        -0.5000 
     60 C           3.9085  -13.0306  -42.3981 C.2       2 UNK         0.5000 
     61 O           4.0402  -11.8380  -42.6784 O.2       2 UNK        -0.5000 
     62 CA          4.8986  -14.0501  -42.9749 C.3       2 UNK         0.1400 
     63 CB          4.9580  -15.3886  -42.2048 C.3       2 UNK        -0.1800 
     64 N           4.4947  -14.2344  -44.3632 N.am      2 UNK        -0.5000 
     65 C           5.1956  -14.8182  -45.3409 C.2       1 UNK         0.5000 
     66 O           6.2488  -15.4307  -45.1627 O.2       1 UNK        -0.5000 
     67 C           0.1022  -22.6762  -47.7028 C.2       11 UNK         0.5000 
     68 O           0.3444  -23.8697  -47.8741 O.2       11 UNK        -0.5000 
     69 N          -0.6750  -21.9556  -48.5205 N.am      12 UNK        -0.5000 
     70 CA         -1.3039  -22.4643  -49.7364 C.3       12 UNK         0.1400 
     71 CB         -1.9288  -21.2939  -50.4941 C.3       12 UNK        -0.1800 
     72 C          -2.3428  -23.5670  -49.4773 C.2       12 UNK         0.5000 
     73 O          -2.4258  -24.5092  -50.2678 O.2       12 UNK        -0.5000 
     74 N          -3.0830  -23.4587  -48.3645 N.am      13 UNK        -0.5000 
     75 CA         -4.0109  -24.4772  -47.8731 C.3       13 UNK         0.1400 
     76 CB         -4.7588  -23.9547  -46.6367 C.3       13 UNK        -0.1800 
     77 C          -3.3065  -25.8044  -47.5406 C.2       13 UNK         0.5000 
     78 O          -3.8288  -26.8676  -47.8730 O.2       13 UNK        -0.5000 
     79 N          -2.1259  -25.7193  -46.9153 N.am      14 UNK        -0.5000 
     80 CA         -1.2881  -26.8734  -46.5987 C.3       14 UNK         0.1400 
     81 CB         -0.2686  -26.4804  -45.5181 C.3       14 UNK        -0.1800 
     82 C          -0.5801  -27.4396  -47.8433 C.2       14 UNK         0.5000 
     83 O          -0.5287  -28.6587  -48.0110 O.2       14 UNK        -0.5000 
     84 N          -0.0333  -26.5474  -48.6791 N.am      15 UNK        -0.5000 
     85 CA          0.8011  -26.8919  -49.8275 C.3       15 UNK         0.1400 
     86 CB          1.6037  -25.6549  -50.2624 C.3       15 UNK        -0.1800 
     87 C           0.0229  -27.4692  -51.0217 C.2       15 UNK         0.5000 
     88 O           0.4952  -28.4325  -51.6278 O.2       15 UNK        -0.5000 
     89 N          -1.1181  -26.8578  -51.3690 N.am      16 UNK        -0.5000 
     90 CA         -1.8179  -27.1179  -52.6322 C.3       16 UNK         0.1400 
     91 CB         -1.3569  -26.0710  -53.6645 C.3       16 UNK        -0.1800 
     92 C          -3.3515  -27.1256  -52.5073 C.2       16 UNK         0.5000 
     93 O          -4.0260  -27.2727  -53.5272 O.2       16 UNK        -0.5000 
     94 N          -3.8825  -26.9368  -51.2895 N.am      17 UNK        -0.5000 
     95 CA         -5.3052  -26.7422  -50.9698 C.3       17 UNK         0.1400 
     96 CB         -6.1431  -27.9861  -51.3325 C.3       17 UNK        -0.1800 
     97 C          -5.8956  -25.4357  -51.5487 C.2       17 UNK         0.5000 
     98 O          -7.1170  -25.2886  -51.6107 O.2       17 UNK        -0.5000 
     99 N          -5.0293  -24.4857  -51.9256 N.am      18 UNK        -0.5000 
    100 CA        -5.3788  -23.1919  -52.5126 C.3       18 UNK         0.1400 
    101 CB        -4.2972  -22.8039  -53.5358 C.3       18 UNK        -0.1800 
    102 C         -5.5881  -22.1366  -51.4103 C.2       18 UNK         0.5000 
    103 O         -4.9604  -21.0766  -51.4237 O.2       18 UNK        -0.5000 
    104 N         -6.4682  -22.4688  -50.4564 N.am      19 UNK        -0.5000 
    105 CA        -6.7383  -21.7184  -49.2278 C.3       19 UNK         0.1400 
    106 CB        -7.7138  -22.5305  -48.3626 C.3       19 UNK        -0.1800 
    107 C         -7.2758  -20.2914  -49.4425 C.2       19 UNK         0.5000 
    108 O         -7.1390  -19.4547  -48.5507 O.2       19 UNK        -0.5000 
    109 N         -7.8501  -20.0178  -50.6205 N.am      20 UNK        -0.5000 
    110 CA        -8.3174  -18.7023  -51.0575 C.3       20 UNK         0.1400 
    111 CB        -9.3429  -18.8990  -52.1887 C.3       20 UNK        -0.1800 
    112 C         -7.1453  -17.7821  -51.4677 C.2       20 UNK         0.5000 
    113 O         -7.0898  -17.3285  -52.6122 O.2       20 UNK        -0.5000 
    114 N         -6.2158  -17.5500  -50.5283 N.am      21 UNK        -0.5000 
    115 CA        -5.0351  -16.6815  -50.6215 C.3       21 UNK         0.1400 
    116 CB        -5.4606  -15.2048  -50.4966 C.3       21 UNK        -0.1800 
    117 C         -4.1624  -16.9570  -51.8643 C.2       21 UNK         0.5000 
    118 O         -3.8089  -16.0246  -52.5884 O.2       21 UNK        -0.5000 
    119 N         -3.8653  -18.2429  -52.0962 N.am      22 UNK        -0.5000 
    120 CA        -3.1193  -18.7753  -53.2511 C.3       22 UNK         0.1400 
    121 C         -3.9438  -18.8493  -54.5726 C.2       22 UNK         0.5000 
    122 N         -5.2244  -18.4982  -54.5979 N.am      22 UNK        -0.7600 
    123 O         -3.4184  -19.2676  -55.6006 O.2       22 UNK        -0.5000 
    124 C124       -1.7255  -18.1163  -53.4829 C.3       23 UNK        -0.0398 
    125 S125       -0.6647  -18.0654  -51.9964 S.3       23 UNK        -0.2404 
    126 C126        0.6878  -19.1781  -52.4918 C.3       23 UNK        -0.0205 
    127 H127        3.5557  -10.4726  -48.0239 H         1 UNK         0.0600 
    128 H128        3.3238  -10.3944  -46.2752 H         1 UNK         0.0600 
    129 H129        2.2872  -11.4338  -47.2645 H         1 UNK         0.0600 
    130 H130        2.8248  -13.5843  -46.9948 H         1 UNK         0.3000 
    131 H131        5.5185  -14.5239  -47.4199 H         1 UNK         0.0600 
    132 H132        2.9888  -16.0703  -46.6682 H         1 UNK         0.0800 
    133 H133        4.5050  -16.8043  -47.1262 H         1 UNK         0.0800 
    134 H134        4.7836  -16.6126  -50.7845 H         1 UNK         0.0800 
    135 H135        5.2848  -17.2799  -49.2554 H         1 UNK         0.0800 
    136 H136        2.3796  -17.2339  -51.6337 H         1 UNK         0.1150 
    137 H137        1.3874  -21.3479  -50.9826 H         1 UNK         0.1150 
    138 H138        4.5825  -19.5362  -48.7667 H         1 UNK         0.1150 
    139 H139        2.5063  -22.6514  -49.3790 H         1 UNK         0.0800 
    140 H140        4.2138  -22.3273  -49.4912 H         1 UNK         0.0800 
    141 H141        1.5144  -20.2823  -47.6136 H         1 UNK         0.0800 
    142 H142        2.0699  -20.3777  -45.9752 H         1 UNK         0.0800 
    143 H143        1.0730  -22.7155  -45.7962 H         1 UNK         0.0600 
    144 H144       -0.3073  -20.2443  -45.6926 H         1 UNK         0.3000 
    145 H145       -3.4091  -21.4924  -44.4096 H         1 UNK         0.0600 
    146 H146       -2.8329  -19.8234  -42.6744 H         1 UNK         0.0600 
    147 H147       -1.8290  -21.2533  -42.4841 H         1 UNK         0.0600 
    148 H148       -1.1541  -19.7984  -43.2093 H         1 UNK         0.0600 
    149 H149       -2.6109  -18.8446  -45.0037 H         1 UNK         0.3000 
    150 H150       -3.7783  -18.8158  -48.4218 H         1 UNK         0.0600 
    151 H151       -5.6273  -18.3786  -46.7431 H         1 UNK         0.0600 
    152 H152       -4.9858  -16.8999  -47.4441 H         1 UNK         0.0600 
    153 H153       -4.5259  -17.3794  -45.8170 H         1 UNK         0.0600 
    154 H154       -2.4780  -16.7593  -47.0204 H         1 UNK         0.3000 
    155 H155        0.9317  -17.5379  -47.8433 H         1 UNK         0.0600 
    156 H156        0.0759  -16.1733  -49.6417 H         1 UNK         0.0600 
    157 H157        0.5717  -15.0572  -48.3794 H         1 UNK         0.0600 
    158 H158       -1.1349  -15.4142  -48.6251 H         1 UNK         0.0600 
    159 H159       -0.1608  -15.5623  -46.1184 H         1 UNK         0.3000 
    160 H160       -0.0899  -17.4630  -43.0863 H         1 UNK         0.0600 
    161 H161        1.6043  -15.1021  -44.0410 H         1 UNK         0.0600 
    162 H162        2.2607  -16.6736  -43.5961 H         1 UNK         0.0600 
    163 H163        1.4172  -15.7117  -42.3924 H         1 UNK         0.0600 
    164 H164       -0.7527  -14.7302  -43.6430 H         1 UNK         0.3000 
    165 H165       -4.2160  -15.2829  -44.3697 H         1 UNK         0.0600 
    166 H166       -4.4004  -13.5460  -42.6068 H         1 UNK         0.0600 
    167 H167       -4.0489  -15.1131  -41.8951 H         1 UNK         0.0600 
    168 H168       -2.7731  -13.9126  -42.0373 H         1 UNK         0.0600 
    169 H169       -2.5218  -12.9577  -44.3360 H         1 UNK         0.3000 
    170 H170       -1.2773  -13.1678  -47.5932 H         1 UNK         0.0600 
    171 H171       -3.6014  -12.6188  -48.3099 H         1 UNK         0.0600 
    172 H172       -3.7824  -11.5235  -46.9446 H         1 UNK         0.0600 
    173 H173       -2.6129  -11.1703  -48.2177 H         1 UNK         0.0600 
    174 H174       -1.6953  -10.9668  -45.7765 H         1 UNK         0.3000 
    175 H175        1.2419  -10.4704  -45.0507 H         1 UNK         0.0600 
    176 H176       -1.3749  -10.4957  -43.4535 H         1 UNK         0.0600 
    177 H177       -0.1134   -9.2798  -43.3017 H         1 UNK         0.0600 
    178 H178       -0.9805   -9.4391  -44.8116 H         1 UNK         0.0600 
    179 H179        2.1819  -11.2658  -43.2062 H         1 UNK         0.3000 
    180 H180        2.0591  -11.8037  -40.8206 H         1 UNK         0.0600 
    181 H181        0.6629  -14.5067  -40.4371 H         1 UNK         0.0600 
    182 H182        0.1686  -12.9817  -39.7161 H         1 UNK         0.0600 
    183 H183        1.7057  -13.7012  -39.2656 H         1 UNK         0.0600 
    184 H184        2.8517  -14.5102  -41.5235 H         1 UNK         0.3000 
    185 H185        5.8887  -13.5905  -42.9554 H         1 UNK         0.0600 
    186 H186        5.1596  -15.2202  -41.1462 H         1 UNK         0.0600 
    187 H187        4.0330  -15.9567  -42.2805 H         1 UNK         0.0600 
    188 H188        5.7606  -16.0230  -42.5802 H         1 UNK         0.0600 
    189 H189        3.6673  -13.7195  -44.6329 H         1 UNK         0.3000 
    190 H190       -0.8180  -20.9654  -48.3267 H         1 UNK         0.3000 
    191 H191       -0.5184  -22.8915  -50.3618 H         1 UNK         0.0600 
    192 H192       -1.1854  -20.5264  -50.6925 H         1 UNK         0.0600 
    193 H193       -2.3255  -21.6149  -51.4539 H         1 UNK         0.0600 
    194 H194       -2.7387  -20.8319  -49.9284 H         1 UNK         0.0600 
    195 H195       -3.0101  -22.6081  -47.8122 H         1 UNK         0.3000 
    196 H196       -4.7426  -24.6627  -48.6605 H         1 UNK         0.0600 
    197 H197       -5.5012  -24.6776  -46.2966 H         1 UNK         0.0600 
    198 H198       -5.2850  -23.0257  -46.8471 H         1 UNK         0.0600 
    199 H199       -4.0811  -23.7657  -45.8044 H         1 UNK         0.0600 
    200 H200       -1.7640  -24.8062  -46.6685 H         1 UNK         0.3000 
    201 H201       -1.9236  -27.6611  -46.1880 H         1 UNK         0.0600 
    202 H202       -0.7688  -26.1360  -44.6127 H         1 UNK         0.0600 
    203 H203        0.3936  -25.6825  -45.8553 H         1 UNK         0.0600 
    204 H204        0.3557  -27.3312  -45.2426 H         1 UNK         0.0600 
    205 H205       -0.0709  -25.5613  -48.4284 H         1 UNK         0.3000 
    206 H206        1.5164  -27.6516  -49.5050 H         1 UNK         0.0600 
    207 H207        2.2385  -25.2933  -49.4532 H         1 UNK         0.0600 
    208 H208        2.2544  -25.8861  -51.1067 H         1 UNK         0.0600 
    209 H209        0.9499  -24.8369  -50.5657 H         1 UNK         0.0600 
    210 H210       -1.4381  -26.0548  -50.8337 H         1 UNK         0.3000 
    211 H211       -1.5562  -28.1083  -53.0101 H         1 UNK         0.0600 
    212 H212       -1.6110  -25.0591  -53.3459 H         1 UNK         0.0600 
    213 H213       -1.8230  -26.2374  -54.6365 H         1 UNK         0.0600 
    214 H214       -0.2781  -26.1133  -53.8153 H         1 UNK         0.0600 
    215 H215       -3.2478  -26.8249  -50.5109 H         1 UNK         0.3000 
    216 H216       -5.3645  -26.6314  -49.8892 H         1 UNK         0.0600 
    217 H217       -7.1523  -27.9076  -50.9266 H         1 UNK         0.0600 
    218 H218       -5.7002  -28.8931  -50.9212 H         1 UNK         0.0600 
    219 H219       -6.2387  -28.1163  -52.4105 H         1 UNK         0.0600 
    220 H220       -4.0464  -24.6444  -51.7408 H         1 UNK         0.3000 
    221 H221       -6.3232  -23.2770  -53.0541 H         1 UNK         0.0600 
    222 H222       -3.3046  -22.7756  -53.0895 H         1 UNK         0.0600 
    223 H223       -4.2657  -23.5206  -54.3566 H         1 UNK         0.0600 
    224 H224       -4.4978  -21.8246  -53.9714 H         1 UNK         0.0600 
    225 H225       -6.9483  -23.3545  -50.5582 H         1 UNK         0.3000 
    226 H226       -5.7916  -21.6244  -48.6935 H         1 UNK         0.0600 
    227 H227       -7.3311  -23.5311  -48.1622 H         1 UNK         0.0600 
    228 H228       -7.8771  -22.0461  -47.3989 H         1 UNK         0.0600 
    229 H229       -8.6855  -22.6365  -48.8466 H         1 UNK         0.0600 
    230 H230       -7.8899  -20.7576  -51.3053 H         1 UNK         0.3000 
    231 H231       -8.8315  -18.2173  -50.2251 H         1 UNK         0.0600 
    232 H232       -8.8974  -19.3874  -53.0564 H         1 UNK         0.0600 
    233 H233       -9.7481  -17.9423  -52.5208 H         1 UNK         0.0600 
    234 H234      -10.1842  -19.5075  -51.8565 H         1 UNK         0.0600 
    235 H235       -6.3526  -18.0217  -49.6392 H         1 UNK         0.3000 
    236 H236       -4.4049  -16.9109  -49.7629 H         1 UNK         0.0600 
    237 H237       -6.0212  -15.0337  -49.5776 H         1 UNK         0.0600 
    238 H238       -4.5910  -14.5468  -50.4702 H         1 UNK         0.0600 
    239 H239       -6.0854  -14.8938  -51.3346 H         1 UNK         0.0600 
    240 H240       -4.2558  -18.9543  -51.4900 H         1 UNK         0.3000 
    241 H241       -2.9323  -19.8180  -52.9952 H         1 UNK         0.0600 
    242 H242       -5.6887  -18.1183  -53.7798 H         1 UNK         0.3800 
    243 H243       -5.7328  -18.5667  -55.4646 H         1 UNK         0.3800 
    244 H244       -1.1919  -18.6461  -54.2735 H         1 UNK         0.0800 
    245 H245       -1.8390  -17.0955  -53.8488 H         1 UNK         0.0800 
    246 H246        1.1416  -18.8082  -53.4123 H         1 UNK         0.0800 
    247 H247        0.2765  -20.1624  -52.7205 H         1 UNK         0.0800 
@<TRIPOS>BOND
     1    1    2 1    
     2    1  127 1    
     3    1  128 1    
     4    1  129 1    
     5    2    3 2    
     6    2    4 am   BACKBONE|DICT|INTERRES
     7    4    5 1    
     8    4  130 1    
     9    5    6 1    
    10    5   65 1    
    11    5  131 1    
    12    6    7 1    
    13    6  132 1    
    14    6  133 1    
    15    7    8 1    
    16    8    9 1    
    17    8  134 1    
    18    8  135 1    
    19    9   10 ar   
    20    9   14 ar   
    21   10   11 ar   
    22   10  136 1    
    23   11   12 ar   
    24   11  126 1    
    25   12   13 ar   
    26   12  137 1    
    27   13   14 ar   
    28   13   15 1    
    29   14  138 1    
    30   15   16 1    
    31   15  139 1    
    32   15  140 1    
    33   16   17 1    
    34   17   18 1    
    35   17  141 1    
    36   17  142 1    
    37   18   19 1    
    38   18   67 1    
    39   18  143 1    
    40   19   20 am   BACKBONE|DICT|INTERRES
    41   19  144 1    
    42   20   21 2    
    43   20   22 1    
    44   22   23 1    
    45   22   24 1    
    46   22  145 1    
    47   23  146 1    
    48   23  147 1    
    49   23  148 1    
    50   24   25 am   BACKBONE|DICT|INTERRES
    51   24  149 1    
    52   25   26 2    
    53   25   27 1    
    54   27   28 1    
    55   27   29 1    
    56   27  150 1    
    57   28  151 1    
    58   28  152 1    
    59   28  153 1    
    60   29   30 am   BACKBONE|DICT|INTERRES
    61   29  154 1    
    62   30   31 2    
    63   30   32 1    
    64   32   33 1    
    65   32   34 1    
    66   32  155 1    
    67   33  156 1    
    68   33  157 1    
    69   33  158 1    
    70   34   35 am   BACKBONE|DICT|INTERRES
    71   34  159 1    
    72   35   36 2    
    73   35   37 1    
    74   37   38 1    
    75   37   39 1    
    76   37  160 1    
    77   38  161 1    
    78   38  162 1    
    79   38  163 1    
    80   39   40 am   BACKBONE|DICT|INTERRES
    81   39  164 1    
    82   40   41 2    
    83   40   42 1    
    84   42   43 1    
    85   42   44 1    
    86   42  165 1    
    87   43  166 1    
    88   43  167 1    
    89   43  168 1    
    90   44   45 am   BACKBONE|DICT|INTERRES
    91   44  169 1    
    92   45   46 2    
    93   45   47 1    
    94   47   48 1    
    95   47   49 1    
    96   47  170 1    
    97   48  171 1    
    98   48  172 1    
    99   48  173 1    
   100   49   50 am   BACKBONE|DICT|INTERRES
   101   49  174 1    
   102   50   51 2    
   103   50   52 1    
   104   52   53 1    
   105   52   54 1    
   106   52  175 1    
   107   53  176 1    
   108   53  177 1    
   109   53  178 1    
   110   54   55 am   BACKBONE|DICT|INTERRES
   111   54  179 1    
   112   55   56 2    
   113   55   57 1    
   114   57   58 1    
   115   57   59 1    
   116   57  180 1    
   117   58  181 1    
   118   58  182 1    
   119   58  183 1    
   120   59   60 am   BACKBONE|DICT|INTERRES
   121   59  184 1    
   122   60   61 2    
   123   60   62 1    
   124   62   63 1    
   125   62   64 1    
   126   62  185 1    
   127   63  186 1    
   128   63  187 1    
   129   63  188 1    
   130   64   65 am   BACKBONE|DICT|INTERRES
   131   64  189 1    
   132   65   66 2    
   133   67   68 2    
   134   67   69 am   BACKBONE|DICT|INTERRES
   135   69   70 1    
   136   69  190 1    
   137   70   71 1    
   138   70   72 1    
   139   70  191 1    
   140   71  192 1    
   141   71  193 1    
   142   71  194 1    
   143   72   73 2    
   144   72   74 am   BACKBONE|DICT|INTERRES
   145   74   75 1    
   146   74  195 1    
   147   75   76 1    
   148   75   77 1    
   149   75  196 1    
   150   76  197 1    
   151   76  198 1    
   152   76  199 1    
   153   77   78 2    
   154   77   79 am   BACKBONE|DICT|INTERRES
   155   79   80 1    
   156   79  200 1    
   157   80   81 1    
   158   80   82 1    
   159   80  201 1    
   160   81  202 1    
   161   81  203 1    
   162   81  204 1    
   163   82   83 2    
   164   82   84 am   BACKBONE|DICT|INTERRES
   165   84   85 1    
   166   84  205 1    
   167   85   86 1    
   168   85   87 1    
   169   85  206 1    
   170   86  207 1    
   171   86  208 1    
   172   86  209 1    
   173   87   88 2    
   174   87   89 am   BACKBONE|DICT|INTERRES
   175   89   90 1    
   176   89  210 1    
   177   90   91 1    
   178   90   92 1    
   179   90  211 1    
   180   91  212 1    
   181   91  213 1    
   182   91  214 1    
   183   92   93 2    
   184   92   94 am   BACKBONE|DICT|INTERRES
   185   94   95 1    
   186   94  215 1    
   187   95   96 1    
   188   95   97 1    
   189   95  216 1    
   190   96  217 1    
   191   96  218 1    
   192   96  219 1    
   193   97   98 2    
   194   97   99 am   BACKBONE|DICT|INTERRES
   195   99  100 1    
   196   99  220 1    
   197  100  101 1    
   198  100  102 1    
   199  100  221 1    
   200  101  222 1    
   201  101  223 1    
   202  101  224 1    
   203  102  103 2    
   204  102  104 am   BACKBONE|DICT|INTERRES
   205  104  105 1    
   206  104  225 1    
   207  105  106 1    
   208  105  107 1    
   209  105  226 1    
   210  106  227 1    
   211  106  228 1    
   212  106  229 1    
   213  107  108 2    
   214  107  109 am   BACKBONE|DICT|INTERRES
   215  109  110 1    
   216  109  230 1    
   217  110  111 1    
   218  110  112 1    
   219  110  231 1    
   220  111  232 1    
   221  111  233 1    
   222  111  234 1    
   223  112  113 2    
   224  112  114 am   BACKBONE|DICT|INTERRES
   225  114  115 1    
   226  114  235 1    
   227  115  116 1    
   228  115  117 1    
   229  115  236 1    
   230  116  237 1    
   231  116  238 1    
   232  116  239 1    
   233  117  118 2    
   234  117  119 am   BACKBONE|DICT|INTERRES
   235  119  120 1    
   236  119  240 1    
   237  120  121 1    
   238  120  124 1    
   239  120  241 1    
   240  121  122 am   BACKBONE|DICT|INTERRES
   241  121  123 2    
   242  122  242 1    
   243  122  243 1    
   244  124  125 1    
   245  124  244 1    
   246  124  245 1    
   247  125  126 1    
   248  126  246 1    
   249  126  247 1    
@<TRIPOS>SUBSTRUCTURE
     1 UNK         1 GROUP             0       ****    0 ROOT    
