@<TRIPOS>MOLECULE
3R540
247   249    1
SMALL
USER_CHARGES


@<TRIPOS>ATOM
      1 CA          4.1966  -10.8569  -52.4450 C.3       0 UNK        -0.1800 
      2 C           3.6344  -12.1960  -51.9882 C.2       0 UNK         0.5000 
      3 O           3.0418  -12.9118  -52.7945 O.2       0 UNK        -0.5000 
      4 N           3.8338  -12.5301  -50.7056 N.am      1 UNK        -0.5000 
      5 CA          3.3379  -13.7248  -50.0127 C.3       1 UNK         0.1400 
      6 C6          3.8196  -15.0713  -50.6410 C.3       23 UNK        -0.0398 
      7 S7          4.5516  -16.2028  -49.4121 S.3       23 UNK        -0.2404 
      8 C8          3.0903  -16.8118  -48.5166 C.3       23 UNK        -0.0205 
      9 C9          2.3509  -17.9170  -49.2547 C.ar      23 UNK        -0.0193 
     10 C10         1.1872  -17.6404  -49.9778 C.ar      23 UNK        -0.1150 
     11 C11         0.4375  -18.6754  -50.5449 C.ar      23 UNK        -0.0193 
     12 C12         0.8721  -19.9960  -50.3951 C.ar      23 UNK        -0.1150 
     13 C13         2.0477  -20.2868  -49.6955 C.ar      23 UNK        -0.0193 
     14 C14         2.7894  -19.2379  -49.1415 C.ar      23 UNK        -0.1150 
     15 C15         2.4886  -21.7389  -49.5283 C.3       23 UNK        -0.0205 
     16 S16         3.0641  -22.1668  -47.8445 S.3       23 UNK        -0.2404 
     17 C17         1.7137  -21.5433  -46.7832 C.3       23 UNK        -0.0398 
     18 CA          0.6870  -22.6161  -46.3575 C.3       11 UNK         0.1400 
     19 N          -0.1593  -22.1174  -45.2730 N.am      11 UNK        -0.5000 
     20 C          -1.0761  -22.8291  -44.6050 C.2       10 UNK         0.5000 
     21 O          -1.2882  -24.0274  -44.7893 O.2       10 UNK        -0.5000 
     22 CA         -1.9315  -22.0512  -43.5908 C.3       10 UNK         0.1400 
     23 CB         -1.1626  -21.8266  -42.2798 C.3       10 UNK        -0.1800 
     24 N          -2.3772  -20.7636  -44.1249 N.am      10 UNK        -0.5000 
     25 C          -3.2662  -20.6231  -45.1187 C.2       9 UNK         0.5000 
     26 O          -3.8260  -21.5663  -45.6758 O.2       9 UNK        -0.5000 
     27 CA         -3.5458  -19.1869  -45.5975 C.3       9 UNK         0.1400 
     28 CB         -4.5779  -18.4988  -44.6923 C.3       9 UNK        -0.1800 
     29 N          -2.3369  -18.3662  -45.6657 N.am      9 UNK        -0.5000 
     30 C          -1.3146  -18.6057  -46.4975 C.2       8 UNK         0.5000 
     31 O          -1.2635  -19.5653  -47.2643 O.2       8 UNK        -0.5000 
     32 CA         -0.1258  -17.6390  -46.4130 C.3       8 UNK         0.1400 
     33 CB         -0.4543  -16.3041  -47.0891 C.3       8 UNK        -0.1800 
     34 N           0.3228  -17.3706  -45.0492 N.am      8 UNK        -0.5000 
     35 C           0.7906  -18.2891  -44.1919 C.2       7 UNK         0.5000 
     36 O           0.6944  -19.5038  -44.3740 O.2       7 UNK        -0.5000 
     37 CA          1.5030  -17.7481  -42.9332 C.3       7 UNK         0.1400 
     38 CB          2.4676  -18.7747  -42.3058 C.3       7 UNK        -0.1800 
     39 N           2.1847  -16.4691  -43.1744 N.am      7 UNK        -0.5000 
     40 C           3.1504  -16.2048  -44.0716 C.2       6 UNK         0.5000 
     41 O           3.6969  -17.0653  -44.7618 O.2       6 UNK        -0.5000 
     42 CA          3.5461  -14.7265  -44.2690 C.3       6 UNK         0.1400 
     43 CB          3.3353  -14.3036  -45.7328 C.3       6 UNK        -0.1800 
     44 N           2.7637  -13.8314  -43.4140 N.am      6 UNK        -0.5000 
     45 C           3.1894  -13.3111  -42.2546 C.2       5 UNK         0.5000 
     46 O           4.3274  -13.4654  -41.8102 O.2       5 UNK        -0.5000 
     47 CA          2.1600  -12.5078  -41.4330 C.3       5 UNK         0.1400 
     48 CB          2.2181  -11.0194  -41.8087 C.3       5 UNK        -0.1800 
     49 N           0.7846  -12.9855  -41.5953 N.am      5 UNK        -0.5000 
     50 C           0.3412  -14.2055  -41.2585 C.2       4 UNK         0.5000 
     51 O           1.0402  -15.0577  -40.7121 O.2       4 UNK        -0.5000 
     52 CA         -1.1053  -14.5620  -41.6521 C.3       4 UNK         0.1400 
     53 CB         -2.0465  -14.3994  -40.4497 C.3       4 UNK        -0.1800 
     54 N          -1.6220  -13.7755  -42.7753 N.am      4 UNK        -0.5000 
     55 C          -1.1343  -13.7879  -44.0235 C.2       3 UNK         0.5000 
     56 O          -0.1839  -14.4963  -44.3713 O.2       3 UNK        -0.5000 
     57 CA         -1.8459  -12.8421  -45.0131 C.3       3 UNK         0.1400 
     58 CB         -1.7864  -11.3724  -44.5421 C.3       3 UNK        -0.1800 
     59 N          -1.3824  -12.9605  -46.3973 N.am      3 UNK        -0.5000 
     60 C          -0.1934  -12.6214  -46.9102 C.2       2 UNK         0.5000 
     61 O           0.7431  -12.1332  -46.2719 O.2       2 UNK        -0.5000 
     62 CA         -0.0501  -12.8426  -48.4203 C.3       2 UNK         0.1400 
     63 CB         -0.6798  -11.6837  -49.2143 C.3       2 UNK        -0.1800 
     64 N           1.3591  -12.9826  -48.7692 N.am      2 UNK        -0.5000 
     65 C           1.8049  -13.6451  -49.8415 C.2       1 UNK         0.5000 
     66 O           1.0559  -14.1562  -50.6752 O.2       1 UNK        -0.5000 
     67 C          -0.1565  -23.1164  -47.5481 C.2       11 UNK         0.5000 
     68 O           0.0684  -24.2289  -48.0259 O.2       11 UNK        -0.5000 
     69 N          -1.1399  -22.3103  -47.9736 N.am      12 UNK        -0.5000 
     70 CA         -2.0930  -22.6598  -49.0226 C.3       12 UNK         0.1400 
     71 CB         -2.9721  -21.4525  -49.3628 C.3       12 UNK        -0.1800 
     72 C          -2.9595  -23.8707  -48.6486 C.2       12 UNK         0.5000 
     73 O          -3.0985  -24.7754  -49.4683 O.2       12 UNK        -0.5000 
     74 N          -3.4955  -23.8964  -47.4188 N.am      13 UNK        -0.5000 
     75 CA         -4.2936  -25.0030  -46.8827 C.3       13 UNK         0.1400 
     76 CB         -4.8413  -24.6355  -45.4964 C.3       13 UNK        -0.1800 
     77 C          -3.5209  -26.3333  -46.8297 C.2       13 UNK         0.5000 
     78 O          -4.0607  -27.3611  -47.2409 O.2       13 UNK        -0.5000 
     79 N          -2.2540  -26.2825  -46.3933 N.am      14 UNK        -0.5000 
     80 CA         -1.3240  -27.4165  -46.3939 C.3       14 UNK         0.1400 
     81 CB         -0.0382  -27.0188  -45.6539 C.3       14 UNK        -0.1800 
     82 C          -0.9984  -27.9392  -47.8087 C.2       14 UNK         0.5000 
     83 O          -0.7351  -29.1308  -47.9715 O.2       14 UNK        -0.5000 
     84 N          -1.0653  -27.0495  -48.8063 N.am      15 UNK        -0.5000 
     85 CA         -0.9139  -27.3385  -50.2315 C.3       15 UNK         0.1400 
     86 CB         -0.2115  -26.1415  -50.8951 C.3       15 UNK        -0.1800 
     87 C          -2.2550  -27.6794  -50.9234 C.2       15 UNK         0.5000 
     88 O          -2.3152  -27.6604  -52.1526 O.2       15 UNK        -0.5000 
     89 N          -3.3000  -27.9904  -50.1397 N.am      16 UNK        -0.5000 
     90 CA         -4.6537  -28.3718  -50.5612 C.3       16 UNK         0.1400 
     91 CB         -4.6405  -29.6647  -51.4048 C.3       16 UNK        -0.1800 
     92 C          -5.4327  -27.2137  -51.2193 C.2       16 UNK         0.5000 
     93 O          -6.1044  -27.4082  -52.2337 O.2       16 UNK        -0.5000 
     94 N          -5.3334  -26.0305  -50.5995 N.am      17 UNK        -0.5000 
     95 CA         -5.9703  -24.7579  -50.9553 C.3       17 UNK         0.1400 
     96 CB         -7.5091  -24.8691  -50.9492 C.3       17 UNK        -0.1800 
     97 C          -5.4073  -24.1312  -52.2468 C.2       17 UNK         0.5000 
     98 O          -6.1231  -23.4074  -52.9421 O.2       17 UNK        -0.5000 
     99 N          -4.1269  -24.3979  -52.5378 N.am      18 UNK        -0.5000 
    100 CA        -3.4033  -23.8573  -53.6866 C.3       18 UNK         0.1400 
    101 CB        -2.0603  -24.5866  -53.8381 C.3       18 UNK        -0.1800 
    102 C         -3.1975  -22.3383  -53.5493 C.2       18 UNK         0.5000 
    103 O         -2.4217  -21.9055  -52.6956 O.2       18 UNK        -0.5000 
    104 N         -3.9132  -21.5720  -54.3855 N.am      19 UNK        -0.5000 
    105 CA        -3.9086  -20.1064  -54.4687 C.3       19 UNK         0.1400 
    106 CB        -2.5428  -19.5961  -54.9758 C.3       19 UNK        -0.1800 
    107 C         -4.3585  -19.4103  -53.1657 C.2       19 UNK         0.5000 
    108 O         -3.8817  -18.3164  -52.8659 O.2       19 UNK        -0.5000 
    109 N         -5.2898  -20.0424  -52.4319 N.am      20 UNK        -0.5000 
    110 CA        -5.7586  -19.6725  -51.0869 C.3       20 UNK         0.1400 
    111 CB        -6.7638  -20.7289  -50.6030 C.3       20 UNK        -0.1800 
    112 C         -6.3294  -18.2496  -50.9069 C.2       20 UNK         0.5000 
    113 O         -6.4883  -17.8077  -49.7673 O.2       20 UNK        -0.5000 
    114 N         -6.5666  -17.5292  -52.0115 N.am      21 UNK        -0.5000 
    115 CA        -6.8572  -16.0927  -52.0536 C.3       21 UNK         0.1400 
    116 CB        -7.0932  -15.6805  -53.5147 C.3       21 UNK        -0.1800 
    117 C         -5.7627  -15.2082  -51.4108 C.2       21 UNK         0.5000 
    118 O         -6.0548  -14.0713  -51.0377 O.2       21 UNK        -0.5000 
    119 N         -4.5430  -15.7462  -51.2613 N.am      22 UNK        -0.5000 
    120 CA        -3.4599  -15.1809  -50.4417 C.3       22 UNK         0.1400 
    121 C         -3.7671  -15.0723  -48.9149 C.2       22 UNK         0.5000 
    122 N         -4.7494  -15.7855  -48.3743 N.am      22 UNK        -0.7600 
    123 O         -3.1083  -14.3121  -48.2108 O.2       22 UNK        -0.5000 
    124 C124       -2.1173  -15.9131  -50.6991 C.3       23 UNK        -0.0398 
    125 S125       -2.1470  -17.6873  -50.2464 S.3       23 UNK        -0.2404 
    126 C126       -0.8417  -18.3755  -51.3162 C.3       23 UNK        -0.0205 
    127 H127        4.7052  -10.3316  -51.6362 H         1 UNK         0.0600 
    128 H128        3.3930  -10.2184  -52.8119 H         1 UNK         0.0600 
    129 H129        4.9110  -11.0064  -53.2546 H         1 UNK         0.0600 
    130 H130        4.3316  -11.8774  -50.1161 H         1 UNK         0.3000 
    131 H131        3.7668  -13.6479  -49.0120 H         1 UNK         0.0600 
    132 H132        3.0410  -15.5939  -51.1985 H         1 UNK         0.0800 
    133 H133        4.6051  -14.8831  -51.3737 H         1 UNK         0.0800 
    134 H134        3.4182  -17.1941  -47.5485 H         1 UNK         0.0800 
    135 H135        2.4175  -15.9864  -48.2893 H         1 UNK         0.0800 
    136 H136        0.8402  -16.6231  -50.0712 H         1 UNK         0.1150 
    137 H137        0.2878  -20.8004  -50.8203 H         1 UNK         0.1150 
    138 H138        3.6903  -19.4519  -48.5839 H         1 UNK         0.1150 
    139 H139        1.6763  -22.4162  -49.7963 H         1 UNK         0.0800 
    140 H140        3.2962  -21.9388  -50.2333 H         1 UNK         0.0800 
    141 H141        1.2123  -20.6915  -47.2417 H         1 UNK         0.0800 
    142 H142        2.1984  -21.1406  -45.8929 H         1 UNK         0.0800 
    143 H143        1.2352  -23.4732  -45.9607 H         1 UNK         0.0600 
    144 H144       -0.0336  -21.1390  -45.0257 H         1 UNK         0.3000 
    145 H145       -2.8154  -22.6523  -43.3676 H         1 UNK         0.0600 
    146 H146       -1.7883  -21.3338  -41.5356 H         1 UNK         0.0600 
    147 H147       -0.8368  -22.7759  -41.8528 H         1 UNK         0.0600 
    148 H148       -0.2737  -21.2130  -42.4301 H         1 UNK         0.0600 
    149 H149       -1.9251  -19.9381  -43.7615 H         1 UNK         0.3000 
    150 H150       -3.9638  -19.2494  -46.6048 H         1 UNK         0.0600 
    151 H151       -5.4975  -19.0829  -44.6365 H         1 UNK         0.0600 
    152 H152       -4.8433  -17.5135  -45.0760 H         1 UNK         0.0600 
    153 H153       -4.2050  -18.3746  -43.6749 H         1 UNK         0.0600 
    154 H154       -2.2846  -17.5671  -45.0521 H         1 UNK         0.3000 
    155 H155        0.7094  -18.0984  -46.9437 H         1 UNK         0.0600 
    156 H156        0.3924  -15.6211  -47.0481 H         1 UNK         0.0600 
    157 H157       -1.3056  -15.8135  -46.6175 H         1 UNK         0.0600 
    158 H158       -0.7019  -16.4498  -48.1364 H         1 UNK         0.0600 
    159 H159        0.3869  -16.3913  -44.7894 H         1 UNK         0.3000 
    160 H160        0.7176  -17.5451  -42.2044 H         1 UNK         0.0600 
    161 H161        3.2451  -19.0808  -43.0063 H         1 UNK         0.0600 
    162 H162        1.9346  -19.6746  -41.9969 H         1 UNK         0.0600 
    163 H163        2.9543  -18.3669  -41.4199 H         1 UNK         0.0600 
    164 H164        1.8429  -15.6942  -42.6215 H         1 UNK         0.3000 
    165 H165        4.6099  -14.6386  -44.0401 H         1 UNK         0.0600 
    166 H166        2.3032  -14.4580  -46.0480 H         1 UNK         0.0600 
    167 H167        3.5757  -13.2505  -45.8787 H         1 UNK         0.0600 
    168 H168        3.9762  -14.8773  -46.4028 H         1 UNK         0.0600 
    169 H169        1.8082  -13.6653  -43.7078 H         1 UNK         0.3000 
    170 H170        2.4270  -12.6083  -40.3789 H         1 UNK         0.0600 
    171 H171        3.2259  -10.6227  -41.6788 H         1 UNK         0.0600 
    172 H172        1.9323  -10.8559  -42.8489 H         1 UNK         0.0600 
    173 H173        1.5535  -10.4268  -41.1799 H         1 UNK         0.0600 
    174 H174        0.1378  -12.3526  -42.0416 H         1 UNK         0.3000 
    175 H175       -1.1115  -15.6121  -41.9516 H         1 UNK         0.0600 
    176 H176       -2.1021  -13.3613  -40.1194 H         1 UNK         0.0600 
    177 H177       -3.0567  -14.7306  -40.6911 H         1 UNK         0.0600 
    178 H178       -1.7051  -14.9956  -39.6022 H         1 UNK         0.0600 
    179 H179       -2.4093  -13.1777  -42.5689 H         1 UNK         0.3000 
    180 H180       -2.8934  -13.1462  -45.0329 H         1 UNK         0.0600 
    181 H181       -0.7613  -11.0353  -44.3848 H         1 UNK         0.0600 
    182 H182       -2.3216  -11.2316  -43.6028 H         1 UNK         0.0600 
    183 H183       -2.2473  -10.7070  -45.2723 H         1 UNK         0.0600 
    184 H184       -2.0541  -13.3939  -47.0304 H         1 UNK         0.3000 
    185 H185       -0.5667  -13.7702  -48.6684 H         1 UNK         0.0600 
    186 H186       -0.6235  -11.8615  -50.2883 H         1 UNK         0.0600 
    187 H187       -1.7345  -11.5651  -48.9628 H         1 UNK         0.0600 
    188 H188       -0.1809  -10.7371  -49.0038 H         1 UNK         0.0600 
    189 H189        1.9987  -12.5850  -48.0927 H         1 UNK         0.3000 
    190 H190       -1.2355  -21.3811  -47.5674 H         1 UNK         0.3000 
    191 H191       -1.5229  -22.9209  -49.9168 H         1 UNK         0.0600 
    192 H192       -2.3679  -20.6228  -49.7280 H         1 UNK         0.0600 
    193 H193       -3.6812  -21.7078  -50.1506 H         1 UNK         0.0600 
    194 H194       -3.5391  -21.1023  -48.4999 H         1 UNK         0.0600 
    195 H195       -3.3698  -23.0942  -46.8076 H         1 UNK         0.3000 
    196 H196       -5.1450  -25.1454  -47.5512 H         1 UNK         0.0600 
    197 H197       -5.4356  -25.4504  -45.0812 H         1 UNK         0.0600 
    198 H198       -5.4866  -23.7586  -45.5485 H         1 UNK         0.0600 
    199 H199       -4.0395  -24.4199  -44.7900 H         1 UNK         0.0600 
    200 H200       -1.8937  -25.4014  -46.0357 H         1 UNK         0.3000 
    201 H201       -1.7953  -28.2332  -45.8434 H         1 UNK         0.0600 
    202 H202       -0.2502  -26.7253  -44.6257 H         1 UNK         0.0600 
    203 H203        0.4646  -26.1836  -46.1424 H         1 UNK         0.0600 
    204 H204        0.6660  -27.8509  -45.6165 H         1 UNK         0.0600 
    205 H205       -1.2749  -26.0861  -48.5742 H         1 UNK         0.3000 
    206 H206       -0.2681  -28.2099  -50.3546 H         1 UNK         0.0600 
    207 H207        0.7529  -25.9441  -50.4266 H         1 UNK         0.0600 
    208 H208       -0.0241  -26.3263  -51.9533 H         1 UNK         0.0600 
    209 H209       -0.8080  -25.2331  -50.8155 H         1 UNK         0.0600 
    210 H210       -3.1685  -27.9307  -49.1371 H         1 UNK         0.3000 
    211 H211       -5.1925  -28.6003  -49.6404 H         1 UNK         0.0600 
    212 H212       -4.1823  -29.5113  -52.3820 H         1 UNK         0.0600 
    213 H213       -5.6549  -30.0265  -51.5764 H         1 UNK         0.0600 
    214 H214       -4.0947  -30.4606  -50.8984 H         1 UNK         0.0600 
    215 H215       -4.6462  -25.9552  -49.8568 H         1 UNK         0.3000 
    216 H216       -5.7020  -24.0664  -50.1562 H         1 UNK         0.0600 
    217 H217       -7.8694  -25.3100  -50.0198 H         1 UNK         0.0600 
    218 H218       -7.8766  -25.4773  -51.7759 H         1 UNK         0.0600 
    219 H219       -7.9713  -23.8854  -51.0403 H         1 UNK         0.0600 
    220 H220       -3.5973  -24.9639  -51.8889 H         1 UNK         0.3000 
    221 H221       -3.9932  -24.0588  -54.5833 H         1 UNK         0.0600 
    222 H222       -1.4238  -24.4420  -52.9658 H         1 UNK         0.0600 
    223 H223       -2.2050  -25.6576  -53.9781 H         1 UNK         0.0600 
    224 H224       -1.5130  -24.2169  -54.7060 H         1 UNK         0.0600 
    225 H225       -4.5531  -22.0354  -55.0161 H         1 UNK         0.3000 
    226 H226       -4.6544  -19.8422  -55.2195 H         1 UNK         0.0600 
    227 H227       -1.7501  -19.7686  -54.2473 H         1 UNK         0.0600 
    228 H228       -2.2575  -20.0888  -55.9051 H         1 UNK         0.0600 
    229 H229       -2.5736  -18.5243  -55.1752 H         1 UNK         0.0600 
    230 H230       -5.6284  -20.9283  -52.7829 H         1 UNK         0.3000 
    231 H231       -4.8872  -19.7114  -50.4328 H         1 UNK         0.0600 
    232 H232       -7.1364  -20.4948  -49.6048 H         1 UNK         0.0600 
    233 H233       -6.3011  -21.7127  -50.5469 H         1 UNK         0.0600 
    234 H234       -7.6246  -20.7981  -51.2689 H         1 UNK         0.0600 
    235 H235       -6.3751  -17.9700  -52.8987 H         1 UNK         0.3000 
    236 H236       -7.7793  -15.9260  -51.4936 H         1 UNK         0.0600 
    237 H237       -7.9200  -16.2385  -53.9545 H         1 UNK         0.0600 
    238 H238       -7.3429  -14.6211  -53.5872 H         1 UNK         0.0600 
    239 H239       -6.2069  -15.8519  -54.1271 H         1 UNK         0.0600 
    240 H240       -4.3708  -16.6745  -51.6339 H         1 UNK         0.3000 
    241 H241       -3.3267  -14.1522  -50.7815 H         1 UNK         0.0600 
    242 H242       -5.3007  -16.4287  -48.9322 H         1 UNK         0.3800 
    243 H243       -4.9412  -15.6892  -47.3915 H         1 UNK         0.3800 
    244 H244       -1.3038  -15.4246  -50.1647 H         1 UNK         0.0800 
    245 H245       -1.8672  -15.8220  -51.7565 H         1 UNK         0.0800 
    246 H246       -1.2325  -19.2874  -51.7708 H         1 UNK         0.0800 
    247 H247       -0.6192  -17.7015  -52.1436 H         1 UNK         0.0800 
@<TRIPOS>BOND
     1    1    2 1    
     2    1  127 1    
     3    1  128 1    
     4    1  129 1    
     5    2    3 2    
     6    2    4 am   BACKBONE|DICT|INTERRES
     7    4    5 1    
     8    4  130 1    
     9    5    6 1    
    10    5   65 1    
    11    5  131 1    
    12    6    7 1    
    13    6  132 1    
    14    6  133 1    
    15    7    8 1    
    16    8    9 1    
    17    8  134 1    
    18    8  135 1    
    19    9   10 ar   
    20    9   14 ar   
    21   10   11 ar   
    22   10  136 1    
    23   11   12 ar   
    24   11  126 1    
    25   12   13 ar   
    26   12  137 1    
    27   13   14 ar   
    28   13   15 1    
    29   14  138 1    
    30   15   16 1    
    31   15  139 1    
    32   15  140 1    
    33   16   17 1    
    34   17   18 1    
    35   17  141 1    
    36   17  142 1    
    37   18   19 1    
    38   18   67 1    
    39   18  143 1    
    40   19   20 am   BACKBONE|DICT|INTERRES
    41   19  144 1    
    42   20   21 2    
    43   20   22 1    
    44   22   23 1    
    45   22   24 1    
    46   22  145 1    
    47   23  146 1    
    48   23  147 1    
    49   23  148 1    
    50   24   25 am   BACKBONE|DICT|INTERRES
    51   24  149 1    
    52   25   26 2    
    53   25   27 1    
    54   27   28 1    
    55   27   29 1    
    56   27  150 1    
    57   28  151 1    
    58   28  152 1    
    59   28  153 1    
    60   29   30 am   BACKBONE|DICT|INTERRES
    61   29  154 1    
    62   30   31 2    
    63   30   32 1    
    64   32   33 1    
    65   32   34 1    
    66   32  155 1    
    67   33  156 1    
    68   33  157 1    
    69   33  158 1    
    70   34   35 am   BACKBONE|DICT|INTERRES
    71   34  159 1    
    72   35   36 2    
    73   35   37 1    
    74   37   38 1    
    75   37   39 1    
    76   37  160 1    
    77   38  161 1    
    78   38  162 1    
    79   38  163 1    
    80   39   40 am   BACKBONE|DICT|INTERRES
    81   39  164 1    
    82   40   41 2    
    83   40   42 1    
    84   42   43 1    
    85   42   44 1    
    86   42  165 1    
    87   43  166 1    
    88   43  167 1    
    89   43  168 1    
    90   44   45 am   BACKBONE|DICT|INTERRES
    91   44  169 1    
    92   45   46 2    
    93   45   47 1    
    94   47   48 1    
    95   47   49 1    
    96   47  170 1    
    97   48  171 1    
    98   48  172 1    
    99   48  173 1    
   100   49   50 am   BACKBONE|DICT|INTERRES
   101   49  174 1    
   102   50   51 2    
   103   50   52 1    
   104   52   53 1    
   105   52   54 1    
   106   52  175 1    
   107   53  176 1    
   108   53  177 1    
   109   53  178 1    
   110   54   55 am   BACKBONE|DICT|INTERRES
   111   54  179 1    
   112   55   56 2    
   113   55   57 1    
   114   57   58 1    
   115   57   59 1    
   116   57  180 1    
   117   58  181 1    
   118   58  182 1    
   119   58  183 1    
   120   59   60 am   BACKBONE|DICT|INTERRES
   121   59  184 1    
   122   60   61 2    
   123   60   62 1    
   124   62   63 1    
   125   62   64 1    
   126   62  185 1    
   127   63  186 1    
   128   63  187 1    
   129   63  188 1    
   130   64   65 am   BACKBONE|DICT|INTERRES
   131   64  189 1    
   132   65   66 2    
   133   67   68 2    
   134   67   69 am   BACKBONE|DICT|INTERRES
   135   69   70 1    
   136   69  190 1    
   137   70   71 1    
   138   70   72 1    
   139   70  191 1    
   140   71  192 1    
   141   71  193 1    
   142   71  194 1    
   143   72   73 2    
   144   72   74 am   BACKBONE|DICT|INTERRES
   145   74   75 1    
   146   74  195 1    
   147   75   76 1    
   148   75   77 1    
   149   75  196 1    
   150   76  197 1    
   151   76  198 1    
   152   76  199 1    
   153   77   78 2    
   154   77   79 am   BACKBONE|DICT|INTERRES
   155   79   80 1    
   156   79  200 1    
   157   80   81 1    
   158   80   82 1    
   159   80  201 1    
   160   81  202 1    
   161   81  203 1    
   162   81  204 1    
   163   82   83 2    
   164   82   84 am   BACKBONE|DICT|INTERRES
   165   84   85 1    
   166   84  205 1    
   167   85   86 1    
   168   85   87 1    
   169   85  206 1    
   170   86  207 1    
   171   86  208 1    
   172   86  209 1    
   173   87   88 2    
   174   87   89 am   BACKBONE|DICT|INTERRES
   175   89   90 1    
   176   89  210 1    
   177   90   91 1    
   178   90   92 1    
   179   90  211 1    
   180   91  212 1    
   181   91  213 1    
   182   91  214 1    
   183   92   93 2    
   184   92   94 am   BACKBONE|DICT|INTERRES
   185   94   95 1    
   186   94  215 1    
   187   95   96 1    
   188   95   97 1    
   189   95  216 1    
   190   96  217 1    
   191   96  218 1    
   192   96  219 1    
   193   97   98 2    
   194   97   99 am   BACKBONE|DICT|INTERRES
   195   99  100 1    
   196   99  220 1    
   197  100  101 1    
   198  100  102 1    
   199  100  221 1    
   200  101  222 1    
   201  101  223 1    
   202  101  224 1    
   203  102  103 2    
   204  102  104 am   BACKBONE|DICT|INTERRES
   205  104  105 1    
   206  104  225 1    
   207  105  106 1    
   208  105  107 1    
   209  105  226 1    
   210  106  227 1    
   211  106  228 1    
   212  106  229 1    
   213  107  108 2    
   214  107  109 am   BACKBONE|DICT|INTERRES
   215  109  110 1    
   216  109  230 1    
   217  110  111 1    
   218  110  112 1    
   219  110  231 1    
   220  111  232 1    
   221  111  233 1    
   222  111  234 1    
   223  112  113 2    
   224  112  114 am   BACKBONE|DICT|INTERRES
   225  114  115 1    
   226  114  235 1    
   227  115  116 1    
   228  115  117 1    
   229  115  236 1    
   230  116  237 1    
   231  116  238 1    
   232  116  239 1    
   233  117  118 2    
   234  117  119 am   BACKBONE|DICT|INTERRES
   235  119  120 1    
   236  119  240 1    
   237  120  121 1    
   238  120  124 1    
   239  120  241 1    
   240  121  122 am   BACKBONE|DICT|INTERRES
   241  121  123 2    
   242  122  242 1    
   243  122  243 1    
   244  124  125 1    
   245  124  244 1    
   246  124  245 1    
   247  125  126 1    
   248  126  246 1    
   249  126  247 1    
@<TRIPOS>SUBSTRUCTURE
     1 UNK         1 GROUP             0       ****    0 ROOT    
