@<TRIPOS>MOLECULE
3R540
247   249    1
SMALL
USER_CHARGES


@<TRIPOS>ATOM
      1 CA          3.6252  -13.4520  -53.2764 C.3       0 UNK        -0.1800 
      2 C           2.8754  -13.6123  -51.9617 C.2       0 UNK         0.5000 
      3 O           1.7741  -14.1570  -51.9595 O.2       0 UNK        -0.5000 
      4 N           3.4754  -13.1428  -50.8595 N.am      1 UNK        -0.5000 
      5 CA          2.9721  -13.1736  -49.4789 C.3       1 UNK         0.1400 
      6 C6          3.2665  -14.5166  -48.7374 C.3       23 UNK        -0.0398 
      7 S7          2.2364  -15.9670  -49.1696 S.3       23 UNK        -0.2404 
      8 C8          3.3920  -16.9315  -50.1842 C.3       23 UNK        -0.0205 
      9 C9          2.7112  -18.1383  -50.8101 C.ar      23 UNK        -0.0193 
     10 C10         1.9775  -17.9901  -51.9897 C.ar      23 UNK        -0.1150 
     11 C11         1.3973  -19.0998  -52.6085 C.ar      23 UNK        -0.0193 
     12 C12         1.5528  -20.3637  -52.0328 C.ar      23 UNK        -0.1150 
     13 C13         2.2684  -20.5315  -50.8416 C.ar      23 UNK        -0.0193 
     14 C14         2.8436  -19.4058  -50.2341 C.ar      23 UNK        -0.1150 
     15 C15         2.4073  -21.9521  -50.2884 C.3       23 UNK        -0.0205 
     16 S16         3.4076  -22.1550  -48.7711 S.3       23 UNK        -0.2404 
     17 C17         2.2393  -21.7072  -47.4412 C.3       23 UNK        -0.0398 
     18 CA          1.7178  -22.9602  -46.6840 C.3       11 UNK         0.1400 
     19 N           1.5806  -22.7089  -45.2502 N.am      11 UNK        -0.5000 
     20 C           1.5970  -23.6474  -44.2950 C.2       10 UNK         0.5000 
     21 O           1.7919  -24.8439  -44.5178 O.2       10 UNK        -0.5000 
     22 CA          1.3660  -23.1459  -42.8525 C.3       10 UNK         0.1400 
     23 CB          1.6922  -24.1996  -41.7742 C.3       10 UNK        -0.1800 
     24 N           2.0610  -21.8816  -42.5890 N.am      10 UNK        -0.5000 
     25 C           3.3807  -21.6446  -42.6189 C.2       9 UNK         0.5000 
     26 O           4.2364  -22.5201  -42.7528 O.2       9 UNK        -0.5000 
     27 CA          3.8270  -20.1714  -42.5167 C.3       9 UNK         0.1400 
     28 CB          4.2354  -19.6500  -43.9039 C.3       9 UNK        -0.1800 
     29 N           2.8004  -19.2823  -41.9680 N.am      9 UNK        -0.5000 
     30 C           2.4516  -19.2174  -40.6760 C.2       8 UNK         0.5000 
     31 O           2.9956  -19.8731  -39.7868 O.2       8 UNK        -0.5000 
     32 CA          1.2761  -18.2842  -40.3243 C.3       8 UNK         0.1400 
     33 CB          1.7538  -16.8323  -40.1707 C.3       8 UNK        -0.1800 
     34 N           0.1929  -18.3420  -41.3087 N.am      8 UNK        -0.5000 
     35 C          -0.5674  -19.4225  -41.5354 C.2       7 UNK         0.5000 
     36 O          -0.4646  -20.4762  -40.9074 O.2       7 UNK        -0.5000 
     37 CA         -1.5825  -19.3323  -42.6870 C.3       7 UNK         0.1400 
     38 CB         -2.8689  -18.6230  -42.2389 C.3       7 UNK        -0.1800 
     39 N          -1.0339  -18.6721  -43.8731 N.am      7 UNK        -0.5000 
     40 C          -0.0379  -19.1678  -44.6218 C.2       6 UNK         0.5000 
     41 O           0.4853  -20.2617  -44.4238 O.2       6 UNK        -0.5000 
     42 CA          0.4979  -18.2855  -45.7603 C.3       6 UNK         0.1400 
     43 CB         -0.3695  -18.4441  -47.0163 C.3       6 UNK        -0.1800 
     44 N           0.5858  -16.8773  -45.3813 N.am      6 UNK        -0.5000 
     45 C           1.3531  -16.3989  -44.3918 C.2       5 UNK         0.5000 
     46 O           2.1345  -17.0889  -43.7383 O.2       5 UNK        -0.5000 
     47 CA          1.1621  -14.9183  -44.0225 C.3       5 UNK         0.1400 
     48 CB          1.9574  -13.9986  -44.9586 C.3       5 UNK        -0.1800 
     49 N          -0.2498  -14.5359  -44.0362 N.am      5 UNK        -0.5000 
     50 C          -1.1499  -14.9499  -43.1340 C.2       4 UNK         0.5000 
     51 O          -0.8689  -15.6614  -42.1695 O.2       4 UNK        -0.5000 
     52 CA         -2.6113  -14.5234  -43.3683 C.3       4 UNK         0.1400 
     53 CB         -2.8690  -13.1313  -42.7732 C.3       4 UNK        -0.1800 
     54 N          -2.9771  -14.5191  -44.7865 N.am      4 UNK        -0.5000 
     55 C          -3.1173  -15.6235  -45.5338 C.2       3 UNK         0.5000 
     56 O          -2.9856  -16.7649  -45.0931 O.2       3 UNK        -0.5000 
     57 CA         -3.3964  -15.4115  -47.0367 C.3       3 UNK         0.1400 
     58 CB         -4.8999  -15.2329  -47.2927 C.3       3 UNK        -0.1800 
     59 N          -2.6626  -14.2768  -47.6115 N.am      3 UNK        -0.5000 
     60 C          -1.3268  -14.1948  -47.6431 C.2       2 UNK         0.5000 
     61 O          -0.5868  -15.0530  -47.1567 O.2       2 UNK        -0.5000 
     62 CA         -0.7053  -12.9368  -48.2655 C.3       2 UNK         0.1400 
     63 CB         -0.8047  -11.7431  -47.2973 C.3       2 UNK        -0.1800 
     64 N           0.6911  -13.2485  -48.5399 N.am      2 UNK        -0.5000 
     65 C           1.5419  -12.5881  -49.3275 C.2       1 UNK         0.5000 
     66 O           1.2555  -11.5341  -49.9012 O.2       1 UNK        -0.5000 
     67 C           0.3748  -23.4468  -47.2603 C.2       11 UNK         0.5000 
     68 O          -0.6838  -23.0583  -46.7569 O.2       11 UNK        -0.5000 
     69 N           0.4383  -24.2444  -48.3370 N.am      12 UNK        -0.5000 
     70 CA         -0.6974  -24.8577  -49.0413 C.3       12 UNK         0.1400 
     71 CB         -0.1732  -25.6306  -50.2597 C.3       12 UNK        -0.1800 
     72 C          -1.8061  -23.8804  -49.4769 C.2       12 UNK         0.5000 
     73 O          -2.9703  -24.2751  -49.5373 O.2       12 UNK        -0.5000 
     74 N          -1.4419  -22.6142  -49.7156 N.am      13 UNK        -0.5000 
     75 CA         -2.3568  -21.5077  -49.9950 C.3       13 UNK         0.1400 
     76 CB         -1.5386  -20.2349  -50.2453 C.3       13 UNK        -0.1800 
     77 C          -3.4214  -21.2847  -48.9061 C.2       13 UNK         0.5000 
     78 O          -4.5475  -20.9179  -49.2363 O.2       13 UNK        -0.5000 
     79 N          -3.0627  -21.5581  -47.6468 N.am      14 UNK        -0.5000 
     80 CA         -3.9725  -21.5290  -46.5073 C.3       14 UNK         0.1400 
     81 CB         -3.3306  -20.7085  -45.3839 C.3       14 UNK        -0.1800 
     82 C          -4.2882  -22.9512  -46.0194 C.2       14 UNK         0.5000 
     83 O          -5.4519  -23.2530  -45.7580 O.2       14 UNK        -0.5000 
     84 N          -3.2572  -23.8025  -45.9097 N.am      15 UNK        -0.5000 
     85 CA         -3.3384  -25.1380  -45.3117 C.3       15 UNK         0.1400 
     86 CB         -1.9183  -25.6660  -45.0560 C.3       15 UNK        -0.1800 
     87 C          -4.1576  -26.1507  -46.1332 C.2       15 UNK         0.5000 
     88 O          -4.8046  -27.0167  -45.5433 O.2       15 UNK        -0.5000 
     89 N          -4.1291  -26.0186  -47.4651 N.am      16 UNK        -0.5000 
     90 CA         -4.9138  -26.8213  -48.4077 C.3       16 UNK         0.1400 
     91 CB         -3.9517  -27.5302  -49.3776 C.3       16 UNK        -0.1800 
     92 C          -5.9370  -25.9558  -49.1706 C.2       16 UNK         0.5000 
     93 O          -6.6354  -26.4777  -50.0405 O.2       16 UNK        -0.5000 
     94 N          -6.0020  -24.6561  -48.8382 N.am      17 UNK        -0.5000 
     95 CA         -6.8312  -23.6113  -49.4456 C.3       17 UNK         0.1400 
     96 CB         -8.3201  -23.8424  -49.1151 C.3       17 UNK        -0.1800 
     97 C          -6.5688  -23.4257  -50.9566 C.2       17 UNK         0.5000 
     98 O          -7.5069  -23.1774  -51.7181 O.2       17 UNK        -0.5000 
     99 N          -5.3012  -23.5646  -51.3742 N.am      18 UNK        -0.5000 
    100 CA        -4.8556  -23.4267  -52.7615 C.3       18 UNK         0.1400 
    101 CB        -3.4681  -24.0750  -52.9162 C.3       18 UNK        -0.1800 
    102 C         -4.8774  -21.9538  -53.2212 C.2       18 UNK         0.5000 
    103 O         -3.8478  -21.2799  -53.2016 O.2       18 UNK        -0.5000 
    104 N         -6.0720  -21.4722  -53.5849 N.am      19 UNK        -0.5000 
    105 CA        -6.4291  -20.1351  -54.0785 C.3       19 UNK         0.1400 
    106 CB        -5.6194  -19.7536  -55.3334 C.3       19 UNK        -0.1800 
    107 C         -6.3694  -19.0120  -53.0252 C.2       19 UNK         0.5000 
    108 O         -7.2109  -18.1144  -53.0736 O.2       19 UNK        -0.5000 
    109 N         -5.3892  -19.0603  -52.1122 N.am      20 UNK        -0.5000 
    110 CA        -5.1041  -18.1409  -50.9973 C.3       20 UNK         0.1400 
    111 CB        -6.2887  -18.0571  -50.0162 C.3       20 UNK        -0.1800 
    112 C         -4.6344  -16.7356  -51.4235 C.2       20 UNK         0.5000 
    113 O         -3.6964  -16.2011  -50.8330 O.2       20 UNK        -0.5000 
    114 N         -5.2670  -16.1759  -52.4593 N.am      21 UNK        -0.5000 
    115 CA        -4.9646  -14.8810  -53.0692 C.3       21 UNK         0.1400 
    116 CB        -6.2069  -14.4157  -53.8469 C.3       21 UNK        -0.1800 
    117 C         -3.7191  -14.8971  -53.9820 C.2       21 UNK         0.5000 
    118 O         -3.3711  -13.8535  -54.5365 O.2       21 UNK        -0.5000 
    119 N         -3.0795  -16.0640  -54.1410 N.am      22 UNK        -0.5000 
    120 CA        -1.8534  -16.2616  -54.9306 C.3       22 UNK         0.1400 
    121 C         -0.5871  -15.5325  -54.3871 C.2       22 UNK         0.5000 
    122 N         -0.5533  -15.1365  -53.1212 N.am      22 UNK        -0.7600 
    123 O          0.3725  -15.3348  -55.1274 O.2       22 UNK        -0.5000 
    124 C124       -1.5830  -17.7697  -55.1803 C.3       23 UNK        -0.0398 
    125 S125       -1.1461  -18.7041  -53.6671 S.3       23 UNK        -0.2404 
    126 C126        0.6445  -18.9339  -53.9206 C.3       23 UNK        -0.0205 
    127 H127        3.0360  -12.8549  -53.9725 H         1 UNK         0.0600 
    128 H128        3.7987  -14.4288  -53.7280 H         1 UNK         0.0600 
    129 H129        4.5901  -12.9634  -53.1390 H         1 UNK         0.0600 
    130 H130        4.3672  -12.6810  -50.9672 H         1 UNK         0.3000 
    131 H131        3.5930  -12.4332  -48.9721 H         1 UNK         0.0600 
    132 H132        3.1726  -14.3629  -47.6628 H         1 UNK         0.0800 
    133 H133        4.3155  -14.7786  -48.8808 H         1 UNK         0.0800 
    134 H134        4.2361  -17.2468  -49.5691 H         1 UNK         0.0800 
    135 H135        3.8028  -16.2978  -50.9711 H         1 UNK         0.0800 
    136 H136        1.8691  -17.0090  -52.4323 H         1 UNK         0.1150 
    137 H137        1.1117  -21.2232  -52.5184 H         1 UNK         0.1150 
    138 H138        3.4136  -19.5025  -49.3223 H         1 UNK         0.1150 
    139 H139        1.4152  -22.3694  -50.1282 H         1 UNK         0.0800 
    140 H140        2.8699  -22.5662  -51.0626 H         1 UNK         0.0800 
    141 H141        1.4329  -21.0821  -47.8299 H         1 UNK         0.0800 
    142 H142        2.7966  -21.0635  -46.7588 H         1 UNK         0.0800 
    143 H143        2.4436  -23.7690  -46.7952 H         1 UNK         0.0600 
    144 H144        1.3045  -21.7672  -44.9783 H         1 UNK         0.3000 
    145 H145        0.3006  -22.9222  -42.7796 H         1 UNK         0.0600 
    146 H146        1.5093  -23.8073  -40.7738 H         1 UNK         0.0600 
    147 H147        1.0673  -25.0852  -41.8947 H         1 UNK         0.0600 
    148 H148        2.7315  -24.5252  -41.8231 H         1 UNK         0.0600 
    149 H149        1.4565  -21.0730  -42.5238 H         1 UNK         0.3000 
    150 H150        4.7024  -20.1354  -41.8651 H         1 UNK         0.0600 
    151 H151        5.0218  -20.2667  -44.3409 H         1 UNK         0.0600 
    152 H152        4.6162  -18.6302  -43.8457 H         1 UNK         0.0600 
    153 H153        3.3925  -19.6527  -44.5959 H         1 UNK         0.0600 
    154 H154        2.3536  -18.6473  -42.6244 H         1 UNK         0.3000 
    155 H155        0.8712  -18.6093  -39.3637 H         1 UNK         0.0600 
    156 H156        2.5334  -16.7565  -39.4118 H         1 UNK         0.0600 
    157 H157        0.9364  -16.1789  -39.8649 H         1 UNK         0.0600 
    158 H158        2.1634  -16.4405  -41.1018 H         1 UNK         0.0600 
    159 H159        0.0096  -17.4961  -41.8381 H         1 UNK         0.3000 
    160 H160       -1.8431  -20.3556  -42.9608 H         1 UNK         0.0600 
    161 H161       -2.6810  -17.5926  -41.9393 H         1 UNK         0.0600 
    162 H162       -3.3188  -19.1346  -41.3873 H         1 UNK         0.0600 
    163 H163       -3.6103  -18.6076  -43.0377 H         1 UNK         0.0600 
    164 H164       -1.4636  -17.7960  -44.1489 H         1 UNK         0.3000 
    165 H165        1.5061  -18.6293  -45.9997 H         1 UNK         0.0600 
    166 H166        0.0795  -17.9419  -47.8736 H         1 UNK         0.0600 
    167 H167       -0.4852  -19.4972  -47.2721 H         1 UNK         0.0600 
    168 H168       -1.3685  -18.0334  -46.8731 H         1 UNK         0.0600 
    169 H169        0.0156  -16.2265  -45.9177 H         1 UNK         0.3000 
    170 H170        1.5453  -14.7780  -43.0095 H         1 UNK         0.0600 
    171 H171        1.8993  -12.9600  -44.6327 H         1 UNK         0.0600 
    172 H172        3.0120  -14.2764  -44.9771 H         1 UNK         0.0600 
    173 H173        1.5842  -14.0484  -45.9793 H         1 UNK         0.0600 
    174 H174       -0.5694  -14.0013  -44.8290 H         1 UNK         0.3000 
    175 H175       -3.2537  -15.2392  -42.8509 H         1 UNK         0.0600 
    176 H176       -2.6215  -13.1096  -41.7110 H         1 UNK         0.0600 
    177 H177       -2.2705  -12.3637  -43.2657 H         1 UNK         0.0600 
    178 H178       -3.9183  -12.8508  -42.8669 H         1 UNK         0.0600 
    179 H179       -3.1028  -13.6195  -45.2261 H         1 UNK         0.3000 
    180 H180       -3.0712  -16.3129  -47.5608 H         1 UNK         0.0600 
    181 H181       -5.4656  -16.0782  -46.8983 H         1 UNK         0.0600 
    182 H182       -5.2858  -14.3292  -46.8197 H         1 UNK         0.0600 
    183 H183       -5.1122  -15.1709  -48.3603 H         1 UNK         0.0600 
    184 H184       -3.2158  -13.5391  -48.0229 H         1 UNK         0.3000 
    185 H185       -1.2178  -12.7124  -49.2029 H         1 UNK         0.0600 
    186 H186       -1.8439  -11.5150  -47.0579 H         1 UNK         0.0600 
    187 H187       -0.2859  -11.9427  -46.3588 H         1 UNK         0.0600 
    188 H188       -0.3713  -10.8421  -47.7313 H         1 UNK         0.0600 
    189 H189        0.9677  -14.1517  -48.1685 H         1 UNK         0.3000 
    190 H190        1.3520  -24.5053  -48.6799 H         1 UNK         0.3000 
    191 H191       -1.1549  -25.5747  -48.3580 H         1 UNK         0.0600 
    192 H192        0.5242  -26.4135  -49.9611 H         1 UNK         0.0600 
    193 H193        0.3393  -24.9732  -50.9632 H         1 UNK         0.0600 
    194 H194       -0.9893  -26.1147  -50.7983 H         1 UNK         0.0600 
    195 H195       -0.4661  -22.3792  -49.6366 H         1 UNK         0.3000 
    196 H196       -2.8953  -21.7479  -50.9082 H         1 UNK         0.0600 
    197 H197       -2.1656  -19.3462  -50.2954 H         1 UNK         0.0600 
    198 H198       -1.0193  -20.3072  -51.1976 H         1 UNK         0.0600 
    199 H199       -0.7912  -20.0673  -49.4716 H         1 UNK         0.0600 
    200 H200       -2.1277  -21.9095  -47.4692 H         1 UNK         0.3000 
    201 H201       -4.9175  -21.0506  -46.7734 H         1 UNK         0.0600 
    202 H202       -3.9610  -20.6979  -44.4942 H         1 UNK         0.0600 
    203 H203       -2.3607  -21.1191  -45.1021 H         1 UNK         0.0600 
    204 H204       -3.1807  -19.6728  -45.6900 H         1 UNK         0.0600 
    205 H205       -2.3232  -23.4818  -46.1563 H         1 UNK         0.3000 
    206 H206       -3.8330  -25.0335  -44.3436 H         1 UNK         0.0600 
    207 H207       -1.3551  -24.9887  -44.4137 H         1 UNK         0.0600 
    208 H208       -1.9455  -26.6365  -44.5590 H         1 UNK         0.0600 
    209 H209       -1.3584  -25.7889  -45.9826 H         1 UNK         0.0600 
    210 H210       -3.5772  -25.2782  -47.8828 H         1 UNK         0.3000 
    211 H211       -5.4852  -27.5870  -47.8797 H         1 UNK         0.0600 
    212 H212       -4.4932  -28.2064  -50.0401 H         1 UNK         0.0600 
    213 H213       -3.2163  -28.1267  -48.8377 H         1 UNK         0.0600 
    214 H214       -3.4126  -26.8222  -50.0066 H         1 UNK         0.0600 
    215 H215       -5.3992  -24.3466  -48.0904 H         1 UNK         0.3000 
    216 H216       -6.5362  -22.6754  -48.9705 H         1 UNK         0.0600 
    217 H217       -8.9296  -23.0005  -49.4454 H         1 UNK         0.0600 
    218 H218       -8.4724  -23.9491  -48.0410 H         1 UNK         0.0600 
    219 H219       -8.7086  -24.7382  -49.6003 H         1 UNK         0.0600 
    220 H220       -4.5853  -23.7825  -50.6889 H         1 UNK         0.3000 
    221 H221       -5.5441  -23.9853  -53.3992 H         1 UNK         0.0600 
    222 H222       -2.7059  -23.5662  -52.3281 H         1 UNK         0.0600 
    223 H223       -3.4844  -25.1200  -52.6059 H         1 UNK         0.0600 
    224 H224       -3.1438  -24.0490  -53.9570 H         1 UNK         0.0600 
    225 H225       -6.8628  -22.0865  -53.4231 H         1 UNK         0.3000 
    226 H226       -7.4746  -20.2131  -54.3810 H         1 UNK         0.0600 
    227 H227       -5.9821  -18.8171  -55.7590 H         1 UNK         0.0600 
    228 H228       -4.5605  -19.6178  -55.1124 H         1 UNK         0.0600 
    229 H229       -5.7063  -20.5168  -56.1066 H         1 UNK         0.0600 
    230 H230       -4.7224  -19.8183  -52.2256 H         1 UNK         0.3000 
    231 H231       -4.2727  -18.5867  -50.4553 H         1 UNK         0.0600 
    232 H232       -6.5937  -19.0492  -49.6829 H         1 UNK         0.0600 
    233 H233       -7.1568  -17.5700  -50.4606 H         1 UNK         0.0600 
    234 H234       -6.0152  -17.4876  -49.1277 H         1 UNK         0.0600 
    235 H235       -6.0408  -16.7002  -52.8605 H         1 UNK         0.3000 
    236 H236       -4.7700  -14.1610  -52.2719 H         1 UNK         0.0600 
    237 H237       -7.0784  -14.3509  -53.1950 H         1 UNK         0.0600 
    238 H238       -6.0545  -13.4265  -54.2804 H         1 UNK         0.0600 
    239 H239       -6.4482  -15.0993  -54.6619 H         1 UNK         0.0600 
    240 H240       -3.4152  -16.8682  -53.6333 H         1 UNK         0.3000 
    241 H241       -2.0485  -15.8138  -55.9068 H         1 UNK         0.0600 
    242 H242       -1.3282  -15.3262  -52.5072 H         1 UNK         0.3800 
    243 H243        0.2936  -14.7076  -52.7483 H         1 UNK         0.3800 
    244 H244       -2.4689  -18.2329  -55.6161 H         1 UNK         0.0800 
    245 H245       -0.7998  -17.8926  -55.9301 H         1 UNK         0.0800 
    246 H246        1.0571  -18.0804  -54.4605 H         1 UNK         0.0800 
    247 H247        0.8059  -19.8032  -54.5596 H         1 UNK         0.0800 
@<TRIPOS>BOND
     1    1    2 1    
     2    1  127 1    
     3    1  128 1    
     4    1  129 1    
     5    2    3 2    
     6    2    4 am   BACKBONE|DICT|INTERRES
     7    4    5 1    
     8    4  130 1    
     9    5    6 1    
    10    5   65 1    
    11    5  131 1    
    12    6    7 1    
    13    6  132 1    
    14    6  133 1    
    15    7    8 1    
    16    8    9 1    
    17    8  134 1    
    18    8  135 1    
    19    9   10 ar   
    20    9   14 ar   
    21   10   11 ar   
    22   10  136 1    
    23   11   12 ar   
    24   11  126 1    
    25   12   13 ar   
    26   12  137 1    
    27   13   14 ar   
    28   13   15 1    
    29   14  138 1    
    30   15   16 1    
    31   15  139 1    
    32   15  140 1    
    33   16   17 1    
    34   17   18 1    
    35   17  141 1    
    36   17  142 1    
    37   18   19 1    
    38   18   67 1    
    39   18  143 1    
    40   19   20 am   BACKBONE|DICT|INTERRES
    41   19  144 1    
    42   20   21 2    
    43   20   22 1    
    44   22   23 1    
    45   22   24 1    
    46   22  145 1    
    47   23  146 1    
    48   23  147 1    
    49   23  148 1    
    50   24   25 am   BACKBONE|DICT|INTERRES
    51   24  149 1    
    52   25   26 2    
    53   25   27 1    
    54   27   28 1    
    55   27   29 1    
    56   27  150 1    
    57   28  151 1    
    58   28  152 1    
    59   28  153 1    
    60   29   30 am   BACKBONE|DICT|INTERRES
    61   29  154 1    
    62   30   31 2    
    63   30   32 1    
    64   32   33 1    
    65   32   34 1    
    66   32  155 1    
    67   33  156 1    
    68   33  157 1    
    69   33  158 1    
    70   34   35 am   BACKBONE|DICT|INTERRES
    71   34  159 1    
    72   35   36 2    
    73   35   37 1    
    74   37   38 1    
    75   37   39 1    
    76   37  160 1    
    77   38  161 1    
    78   38  162 1    
    79   38  163 1    
    80   39   40 am   BACKBONE|DICT|INTERRES
    81   39  164 1    
    82   40   41 2    
    83   40   42 1    
    84   42   43 1    
    85   42   44 1    
    86   42  165 1    
    87   43  166 1    
    88   43  167 1    
    89   43  168 1    
    90   44   45 am   BACKBONE|DICT|INTERRES
    91   44  169 1    
    92   45   46 2    
    93   45   47 1    
    94   47   48 1    
    95   47   49 1    
    96   47  170 1    
    97   48  171 1    
    98   48  172 1    
    99   48  173 1    
   100   49   50 am   BACKBONE|DICT|INTERRES
   101   49  174 1    
   102   50   51 2    
   103   50   52 1    
   104   52   53 1    
   105   52   54 1    
   106   52  175 1    
   107   53  176 1    
   108   53  177 1    
   109   53  178 1    
   110   54   55 am   BACKBONE|DICT|INTERRES
   111   54  179 1    
   112   55   56 2    
   113   55   57 1    
   114   57   58 1    
   115   57   59 1    
   116   57  180 1    
   117   58  181 1    
   118   58  182 1    
   119   58  183 1    
   120   59   60 am   BACKBONE|DICT|INTERRES
   121   59  184 1    
   122   60   61 2    
   123   60   62 1    
   124   62   63 1    
   125   62   64 1    
   126   62  185 1    
   127   63  186 1    
   128   63  187 1    
   129   63  188 1    
   130   64   65 am   BACKBONE|DICT|INTERRES
   131   64  189 1    
   132   65   66 2    
   133   67   68 2    
   134   67   69 am   BACKBONE|DICT|INTERRES
   135   69   70 1    
   136   69  190 1    
   137   70   71 1    
   138   70   72 1    
   139   70  191 1    
   140   71  192 1    
   141   71  193 1    
   142   71  194 1    
   143   72   73 2    
   144   72   74 am   BACKBONE|DICT|INTERRES
   145   74   75 1    
   146   74  195 1    
   147   75   76 1    
   148   75   77 1    
   149   75  196 1    
   150   76  197 1    
   151   76  198 1    
   152   76  199 1    
   153   77   78 2    
   154   77   79 am   BACKBONE|DICT|INTERRES
   155   79   80 1    
   156   79  200 1    
   157   80   81 1    
   158   80   82 1    
   159   80  201 1    
   160   81  202 1    
   161   81  203 1    
   162   81  204 1    
   163   82   83 2    
   164   82   84 am   BACKBONE|DICT|INTERRES
   165   84   85 1    
   166   84  205 1    
   167   85   86 1    
   168   85   87 1    
   169   85  206 1    
   170   86  207 1    
   171   86  208 1    
   172   86  209 1    
   173   87   88 2    
   174   87   89 am   BACKBONE|DICT|INTERRES
   175   89   90 1    
   176   89  210 1    
   177   90   91 1    
   178   90   92 1    
   179   90  211 1    
   180   91  212 1    
   181   91  213 1    
   182   91  214 1    
   183   92   93 2    
   184   92   94 am   BACKBONE|DICT|INTERRES
   185   94   95 1    
   186   94  215 1    
   187   95   96 1    
   188   95   97 1    
   189   95  216 1    
   190   96  217 1    
   191   96  218 1    
   192   96  219 1    
   193   97   98 2    
   194   97   99 am   BACKBONE|DICT|INTERRES
   195   99  100 1    
   196   99  220 1    
   197  100  101 1    
   198  100  102 1    
   199  100  221 1    
   200  101  222 1    
   201  101  223 1    
   202  101  224 1    
   203  102  103 2    
   204  102  104 am   BACKBONE|DICT|INTERRES
   205  104  105 1    
   206  104  225 1    
   207  105  106 1    
   208  105  107 1    
   209  105  226 1    
   210  106  227 1    
   211  106  228 1    
   212  106  229 1    
   213  107  108 2    
   214  107  109 am   BACKBONE|DICT|INTERRES
   215  109  110 1    
   216  109  230 1    
   217  110  111 1    
   218  110  112 1    
   219  110  231 1    
   220  111  232 1    
   221  111  233 1    
   222  111  234 1    
   223  112  113 2    
   224  112  114 am   BACKBONE|DICT|INTERRES
   225  114  115 1    
   226  114  235 1    
   227  115  116 1    
   228  115  117 1    
   229  115  236 1    
   230  116  237 1    
   231  116  238 1    
   232  116  239 1    
   233  117  118 2    
   234  117  119 am   BACKBONE|DICT|INTERRES
   235  119  120 1    
   236  119  240 1    
   237  120  121 1    
   238  120  124 1    
   239  120  241 1    
   240  121  122 am   BACKBONE|DICT|INTERRES
   241  121  123 2    
   242  122  242 1    
   243  122  243 1    
   244  124  125 1    
   245  124  244 1    
   246  124  245 1    
   247  125  126 1    
   248  126  246 1    
   249  126  247 1    
@<TRIPOS>SUBSTRUCTURE
     1 UNK         1 GROUP             0       ****    0 ROOT    
