@<TRIPOS>MOLECULE
3R540
247   249    1
SMALL
USER_CHARGES


@<TRIPOS>ATOM
      1 CA          3.4570  -20.0713  -51.5571 C.3       0 UNK        -0.1800 
      2 C           3.0959  -18.9273  -50.6186 C.2       0 UNK         0.5000 
      3 O           3.0856  -17.7732  -51.0450 O.2       0 UNK        -0.5000 
      4 N           2.7839  -19.2613  -49.3585 N.am      1 UNK        -0.5000 
      5 CA          2.4339  -18.3665  -48.2471 C.3       1 UNK         0.1400 
      6 C6          1.3952  -17.2721  -48.6132 C.3       23 UNK        -0.0398 
      7 S7          0.4602  -16.6783  -47.1674 S.3       23 UNK        -0.2404 
      8 C8         -0.4116  -15.2433  -47.8685 C.3       23 UNK        -0.0205 
      9 C9         -1.6094  -15.6775  -48.6969 C.ar      23 UNK        -0.0193 
     10 C10        -1.4828  -15.8898  -50.0722 C.ar      23 UNK        -0.1150 
     11 C11        -2.5707  -16.3254  -50.8351 C.ar      23 UNK        -0.0193 
     12 C12        -3.7946  -16.5557  -50.1916 C.ar      23 UNK        -0.1150 
     13 C13        -3.9337  -16.3593  -48.8143 C.ar      23 UNK        -0.0193 
     14 C14        -2.8429  -15.8905  -48.0785 C.ar      23 UNK        -0.1150 
     15 C15        -5.2618  -16.6725  -48.1307 C.3       23 UNK        -0.0205 
     16 S16        -5.1109  -17.7985  -46.6965 S.3       23 UNK        -0.2404 
     17 C17        -4.0950  -19.1680  -47.3530 C.3       23 UNK        -0.0398 
     18 CA         -2.6681  -19.1530  -46.7301 C.3       11 UNK         0.1400 
     19 N          -2.6641  -19.4400  -45.2932 N.am      11 UNK        -0.5000 
     20 C          -3.0340  -20.5781  -44.6884 C.2       10 UNK         0.5000 
     21 O          -3.4758  -21.5588  -45.2884 O.2       10 UNK        -0.5000 
     22 CA         -2.8848  -20.6458  -43.1529 C.3       10 UNK         0.1400 
     23 CB         -1.7424  -21.5990  -42.7682 C.3       10 UNK        -0.1800 
     24 N          -2.6395  -19.3379  -42.5391 N.am      10 UNK        -0.5000 
     25 C          -3.5883  -18.4152  -42.3146 C.2       9 UNK         0.5000 
     26 O          -4.7880  -18.6190  -42.5024 O.2       9 UNK        -0.5000 
     27 CA         -3.1331  -17.0241  -41.8187 C.3       9 UNK         0.1400 
     28 CB         -3.3359  -16.9007  -40.3011 C.3       9 UNK        -0.1800 
     29 N          -1.7402  -16.7007  -42.1316 N.am      9 UNK        -0.5000 
     30 C          -1.2079  -16.6325  -43.3595 C.2       8 UNK         0.5000 
     31 O          -1.8638  -16.7607  -44.3919 O.2       8 UNK        -0.5000 
     32 CA          0.3184  -16.4478  -43.4507 C.3       8 UNK         0.1400 
     33 CB          0.6553  -14.9798  -43.7431 C.3       8 UNK        -0.1800 
     34 N           1.0464  -16.8848  -42.2558 N.am      8 UNK        -0.5000 
     35 C           1.0622  -18.1316  -41.7606 C.2       7 UNK         0.5000 
     36 O           0.4387  -19.0690  -42.2579 O.2       7 UNK        -0.5000 
     37 CA          1.8651  -18.3548  -40.4680 C.3       7 UNK         0.1400 
     38 CB          3.3522  -18.5926  -40.7658 C.3       7 UNK        -0.1800 
     39 N           1.7328  -17.2186  -39.5583 N.am      7 UNK        -0.5000 
     40 C           0.7293  -17.0630  -38.6851 C.2       6 UNK         0.5000 
     41 O          -0.1637  -17.8927  -38.5127 O.2       6 UNK        -0.5000 
     42 CA          0.7124  -15.7526  -37.8753 C.3       6 UNK         0.1400 
     43 CB          1.5059  -15.9160  -36.5702 C.3       6 UNK        -0.1800 
     44 N           1.2444  -14.6097  -38.6201 N.am      6 UNK        -0.5000 
     45 C           0.6479  -14.0532  -39.6832 C.2       5 UNK         0.5000 
     46 O          -0.4258  -14.4389  -40.1461 O.2       5 UNK        -0.5000 
     47 CA          1.3940  -12.8870  -40.3602 C.3       5 UNK         0.1400 
     48 CB          1.0208  -11.5548  -39.6927 C.3       5 UNK        -0.1800 
     49 N           2.8553  -13.0238  -40.3788 N.am      5 UNK        -0.5000 
     50 C           3.5313  -14.0397  -40.9313 C.2       4 UNK         0.5000 
     51 O           2.9997  -15.0534  -41.3868 O.2       4 UNK        -0.5000 
     52 CA          5.0623  -13.9253  -40.9585 C.3       4 UNK         0.1400 
     53 CB          5.6967  -14.9630  -40.0193 C.3       4 UNK        -0.1800 
     54 N           5.5615  -14.1368  -42.3160 N.am      4 UNK        -0.5000 
     55 C           5.5098  -13.2261  -43.2989 C.2       3 UNK         0.5000 
     56 O           5.0774  -12.0829  -43.1464 O.2       3 UNK        -0.5000 
     57 CA          6.0409  -13.6561  -44.6810 C.3       3 UNK         0.1400 
     58 CB          7.5287  -13.2970  -44.8186 C.3       3 UNK        -0.1800 
     59 N           5.8703  -15.0901  -44.9257 N.am      3 UNK        -0.5000 
     60 C           4.7230  -15.6498  -45.3289 C.2       2 UNK         0.5000 
     61 O           3.7088  -15.0084  -45.6106 O.2       2 UNK        -0.5000 
     62 CA          4.7072  -17.1879  -45.3756 C.3       2 UNK         0.1400 
     63 CB          4.4993  -17.7506  -43.9625 C.3       2 UNK        -0.1800 
     64 N           3.6382  -17.7001  -46.2301 N.am      2 UNK        -0.5000 
     65 C           3.6959  -17.7948  -47.5629 C.2       1 UNK         0.5000 
     66 O           4.6878  -17.4814  -48.2258 O.2       1 UNK        -0.5000 
     67 C          -1.6239  -19.9911  -47.5048 C.2       11 UNK         0.5000 
     68 O          -0.7873  -20.6653  -46.8979 O.2       11 UNK        -0.5000 
     69 N          -1.6302  -19.8758  -48.8400 N.am      12 UNK        -0.5000 
     70 CA         -0.6936  -20.5406  -49.7415 C.3       12 UNK         0.1400 
     71 CB         -0.8096  -19.9146  -51.1398 C.3       12 UNK        -0.1800 
     72 C          -0.9073  -22.0625  -49.7820 C.2       12 UNK         0.5000 
     73 O          -1.7504  -22.5430  -50.5425 O.2       12 UNK        -0.5000 
     74 N          -0.1347  -22.7974  -48.9714 N.am      13 UNK        -0.5000 
     75 CA         -0.1382  -24.2615  -48.8782 C.3       13 UNK         0.1400 
     76 CB          0.8527  -24.7005  -47.7908 C.3       13 UNK        -0.1800 
     77 C           0.1772  -24.9624  -50.2141 C.2       13 UNK         0.5000 
     78 O          -0.4029  -26.0084  -50.5041 O.2       13 UNK        -0.5000 
     79 N           1.0306  -24.3301  -51.0328 N.am      14 UNK        -0.5000 
     80 CA          1.3639  -24.7403  -52.4005 C.3       14 UNK         0.1400 
     81 CB          2.5155  -23.8596  -52.9100 C.3       14 UNK        -0.1800 
     82 C           0.1699  -24.6779  -53.3777 C.2       14 UNK         0.5000 
     83 O           0.1836  -25.3740  -54.3929 O.2       14 UNK        -0.5000 
     84 N          -0.8425  -23.8673  -53.0434 N.am      15 UNK        -0.5000 
     85 CA         -2.1082  -23.7287  -53.7604 C.3       15 UNK         0.1400 
     86 CB         -2.3573  -22.2330  -54.0222 C.3       15 UNK        -0.1800 
     87 C          -3.2626  -24.3792  -52.9700 C.2       15 UNK         0.5000 
     88 O          -4.4132  -23.9698  -53.1330 O.2       15 UNK        -0.5000 
     89 N          -2.9368  -25.3626  -52.1148 N.am      16 UNK        -0.5000 
     90 CA         -3.8412  -26.1411  -51.2622 C.3       16 UNK         0.1400 
     91 CB         -4.7685  -27.0256  -52.1221 C.3       16 UNK        -0.1800 
     92 C          -4.6007  -25.2610  -50.2494 C.2       16 UNK         0.5000 
     93 O          -5.8246  -25.3403  -50.1529 O.2       16 UNK        -0.5000 
     94 N          -3.8504  -24.4019  -49.5435 N.am      17 UNK        -0.5000 
     95 CA         -4.3286  -23.3600  -48.6224 C.3       17 UNK         0.1400 
     96 CB         -5.0600  -23.9691  -47.4084 C.3       17 UNK        -0.1800 
     97 C          -5.1549  -22.2896  -49.3651 C.2       17 UNK         0.5000 
     98 O          -6.1789  -21.8247  -48.8642 O.2       17 UNK        -0.5000 
     99 N          -4.6840  -21.9506  -50.5736 N.am      18 UNK        -0.5000 
    100 CA        -5.2882  -21.0542  -51.5609 C.3       18 UNK         0.1400 
    101 CB        -5.2990  -19.6024  -51.0544 C.3       18 UNK        -0.1800 
    102 C         -6.6564  -21.5122  -52.1108 C.2       18 UNK         0.5000 
    103 O         -7.3664  -20.7010  -52.7074 O.2       18 UNK        -0.5000 
    104 N         -6.9853  -22.8067  -51.9813 N.am      19 UNK        -0.5000 
    105 CA        -8.1589  -23.4256  -52.6069 C.3       19 UNK         0.1400 
    106 CB        -8.3706  -24.8364  -52.0423 C.3       19 UNK        -0.1800 
    107 C         -8.0585  -23.4654  -54.1448 C.2       19 UNK         0.5000 
    108 O         -9.0862  -23.4104  -54.8201 O.2       19 UNK        -0.5000 
    109 N         -6.8252  -23.4944  -54.6707 N.am      20 UNK        -0.5000 
    110 CA        -6.5026  -23.3473  -56.0916 C.3       20 UNK         0.1400 
    111 CB        -5.2265  -24.1504  -56.3984 C.3       20 UNK        -0.1800 
    112 C         -6.3712  -21.8666  -56.5217 C.2       20 UNK         0.5000 
    113 O         -5.7119  -21.5838  -57.5236 O.2       20 UNK        -0.5000 
    114 N         -6.9736  -20.9425  -55.7548 N.am      21 UNK        -0.5000 
    115 CA        -7.0622  -19.4954  -55.9909 C.3       21 UNK         0.1400 
    116 CB        -7.9758  -19.2066  -57.2001 C.3       21 UNK        -0.1800 
    117 C         -5.6851  -18.8086  -56.0993 C.2       21 UNK         0.5000 
    118 O         -5.4981  -17.9212  -56.9336 O.2       21 UNK        -0.5000 
    119 N         -4.7424  -19.2632  -55.2629 N.am      22 UNK        -0.5000 
    120 CA        -3.3254  -18.8551  -55.2365 C.3       22 UNK         0.1400 
    121 C         -2.4937  -19.3300  -56.4698 C.2       22 UNK         0.5000 
    122 N         -3.0021  -20.2062  -57.3299 N.am      22 UNK        -0.7600 
    123 O         -1.3456  -18.9269  -56.6337 O.2       22 UNK        -0.5000 
    124 C124       -3.1184  -17.3433  -54.9256 C.3       23 UNK        -0.0398 
    125 S125       -3.8561  -16.8446  -53.3305 S.3       23 UNK        -0.2404 
    126 C126       -2.3529  -16.5630  -52.3322 C.3       23 UNK        -0.0205 
    127 H127        3.4341  -21.0373  -51.0521 H         1 UNK         0.0600 
    128 H128        4.4587  -19.9233  -51.9606 H         1 UNK         0.0600 
    129 H129        2.7549  -20.1076  -52.3902 H         1 UNK         0.0600 
    130 H130        2.8827  -20.2300  -49.0914 H         1 UNK         0.3000 
    131 H131        1.9573  -19.0344  -47.5266 H         1 UNK         0.0600 
    132 H132        0.6693  -17.6742  -49.3194 H         1 UNK         0.0800 
    133 H133        1.8730  -16.4265  -49.1107 H         1 UNK         0.0800 
    134 H134        0.2751  -14.6410  -48.4650 H         1 UNK         0.0800 
    135 H135       -0.7457  -14.6035  -47.0506 H         1 UNK         0.0800 
    136 H136       -0.5270  -15.7256  -50.5500 H         1 UNK         0.1150 
    137 H137       -4.6490  -16.8992  -50.7537 H         1 UNK         0.1150 
    138 H138       -2.9413  -15.7360  -47.0124 H         1 UNK         0.1150 
    139 H139       -5.7141  -15.7378  -47.7973 H         1 UNK         0.0800 
    140 H140       -5.9629  -17.1159  -48.8395 H         1 UNK         0.0800 
    141 H141       -4.0719  -19.0818  -48.4371 H         1 UNK         0.0800 
    142 H142       -4.6045  -20.1096  -47.1480 H         1 UNK         0.0800 
    143 H143       -2.2832  -18.1378  -46.7999 H         1 UNK         0.0600 
    144 H144       -2.3312  -18.6737  -44.7189 H         1 UNK         0.3000 
    145 H145       -3.8143  -21.0536  -42.7502 H         1 UNK         0.0600 
    146 H146       -1.6220  -21.6589  -41.6864 H         1 UNK         0.0600 
    147 H147       -1.9388  -22.6087  -43.1308 H         1 UNK         0.0600 
    148 H148       -0.7918  -21.2788  -43.1963 H         1 UNK         0.0600 
    149 H149       -1.6687  -19.1015  -42.3629 H         1 UNK         0.3000 
    150 H150       -3.7618  -16.2807  -42.3127 H         1 UNK         0.0600 
    151 H151       -4.3750  -17.0887  -40.0278 H         1 UNK         0.0600 
    152 H152       -3.0828  -15.9004  -39.9485 H         1 UNK         0.0600 
    153 H153       -2.7176  -17.6145  -39.7553 H         1 UNK         0.0600 
    154 H154       -1.1273  -16.5370  -41.3446 H         1 UNK         0.3000 
    155 H155        0.6751  -17.0581  -44.2811 H         1 UNK         0.0600 
    156 H156        0.2640  -14.3213  -42.9690 H         1 UNK         0.0600 
    157 H157        0.2220  -14.6623  -44.6918 H         1 UNK         0.0600 
    158 H158        1.7313  -14.8227  -43.8097 H         1 UNK         0.0600 
    159 H159        1.6372  -16.1827  -41.8156 H         1 UNK         0.3000 
    160 H160        1.4744  -19.2545  -39.9875 H         1 UNK         0.0600 
    161 H161        3.8896  -18.8823  -39.8628 H         1 UNK         0.0600 
    162 H162        3.8316  -17.6982  -41.1622 H         1 UNK         0.0600 
    163 H163        3.4846  -19.3936  -41.4942 H         1 UNK         0.0600 
    164 H164        2.3908  -16.4614  -39.6819 H         1 UNK         0.3000 
    165 H165       -0.3270  -15.5365  -37.6186 H         1 UNK         0.0600 
    166 H166        1.4370  -15.0209  -35.9518 H         1 UNK         0.0600 
    167 H167        1.1191  -16.7478  -35.9798 H         1 UNK         0.0600 
    168 H168        2.5616  -16.1124  -36.7619 H         1 UNK         0.0600 
    169 H169        2.1258  -14.2289  -38.3086 H         1 UNK         0.3000 
    170 H170        1.0614  -12.8437  -41.3979 H         1 UNK         0.0600 
    171 H171       -0.0606  -11.4115  -39.6833 H         1 UNK         0.0600 
    172 H172        1.3669  -11.5109  -38.6593 H         1 UNK         0.0600 
    173 H173        1.4533  -10.7096  -40.2286 H         1 UNK         0.0600 
    174 H174        3.3766  -12.2378  -40.0178 H         1 UNK         0.3000 
    175 H175        5.3590  -12.9297  -40.6216 H         1 UNK         0.0600 
    176 H176        5.4555  -15.9833  -40.3197 H         1 UNK         0.0600 
    177 H177        6.7825  -14.8672  -40.0037 H         1 UNK         0.0600 
    178 H178        5.3446  -14.8304  -38.9955 H         1 UNK         0.0600 
    179 H179        5.8914  -15.0639  -42.5344 H         1 UNK         0.3000 
    180 H180        5.4880  -13.0961  -45.4386 H         1 UNK         0.0600 
    181 H181        8.1420  -13.8283  -44.0899 H         1 UNK         0.0600 
    182 H182        7.6879  -12.2288  -44.6649 H         1 UNK         0.0600 
    183 H183        7.9023  -13.5399  -45.8136 H         1 UNK         0.0600 
    184 H184        6.6658  -15.6801  -44.7282 H         1 UNK         0.3000 
    185 H185        5.6685  -17.5393  -45.7568 H         1 UNK         0.0600 
    186 H186        3.5623  -17.3957  -43.5330 H         1 UNK         0.0600 
    187 H187        5.3038  -17.4472  -43.2918 H         1 UNK         0.0600 
    188 H188        4.4763  -18.8405  -43.9675 H         1 UNK         0.0600 
    189 H189        2.7685  -17.9155  -45.7660 H         1 UNK         0.3000 
    190 H190       -2.3103  -19.2738  -49.2786 H         1 UNK         0.3000 
    191 H191        0.3176  -20.3551  -49.3806 H         1 UNK         0.0600 
    192 H192       -0.1935  -20.4484  -51.8649 H         1 UNK         0.0600 
    193 H193       -0.4663  -18.8810  -51.1282 H         1 UNK         0.0600 
    194 H194       -1.8365  -19.9257  -51.5066 H         1 UNK         0.0600 
    195 H195        0.4638  -22.3131  -48.3165 H         1 UNK         0.3000 
    196 H196       -1.1373  -24.5723  -48.5686 H         1 UNK         0.0600 
    197 H197        0.8563  -25.7858  -47.6800 H         1 UNK         0.0600 
    198 H198        0.5867  -24.2775  -46.8218 H         1 UNK         0.0600 
    199 H199        1.8720  -24.3905  -48.0246 H         1 UNK         0.0600 
    200 H200        1.4590  -23.4784  -50.7033 H         1 UNK         0.3000 
    201 H201        1.7080  -25.7760  -52.3674 H         1 UNK         0.0600 
    202 H202        2.2298  -22.8077  -52.9513 H         1 UNK         0.0600 
    203 H203        2.8196  -24.1563  -53.9147 H         1 UNK         0.0600 
    204 H204        3.3930  -23.9452  -52.2687 H         1 UNK         0.0600 
    205 H205       -0.7952  -23.3665  -52.1641 H         1 UNK         0.3000 
    206 H206       -2.0613  -24.2380  -54.7246 H         1 UNK         0.0600 
    207 H207       -1.5495  -21.8019  -54.6135 H         1 UNK         0.0600 
    208 H208       -3.2824  -22.0698  -54.5751 H         1 UNK         0.0600 
    209 H209       -2.4229  -21.6714  -53.0914 H         1 UNK         0.0600 
    210 H210       -1.9564  -25.5964  -52.0178 H         1 UNK         0.3000 
    211 H211       -3.2117  -26.8074  -50.6705 H         1 UNK         0.0600 
    212 H212       -4.1902  -27.6901  -52.7639 H         1 UNK         0.0600 
    213 H213       -5.4210  -26.4321  -52.7620 H         1 UNK         0.0600 
    214 H214       -5.4044  -27.6527  -51.4963 H         1 UNK         0.0600 
    215 H215       -2.8683  -24.3492  -49.7757 H         1 UNK         0.3000 
    216 H216       -3.4429  -22.8497  -48.2414 H         1 UNK         0.0600 
    217 H217       -5.2897  -23.2003  -46.6699 H         1 UNK         0.0600 
    218 H218       -4.4433  -24.7188  -46.9129 H         1 UNK         0.0600 
    219 H219       -6.0025  -24.4390  -47.6895 H         1 UNK         0.0600 
    220 H220       -3.8143  -22.3857  -50.8603 H         1 UNK         0.3000 
    221 H221       -4.6219  -21.0811  -52.4224 H         1 UNK         0.0600 
    222 H222       -5.9370  -19.4781  -50.1794 H         1 UNK         0.0600 
    223 H223       -4.2909  -19.2855  -50.7929 H         1 UNK         0.0600 
    224 H224       -5.6601  -18.9179  -51.8226 H         1 UNK         0.0600 
    225 H225       -6.3417  -23.4288  -51.5089 H         1 UNK         0.3000 
    226 H226       -9.0327  -22.8240  -52.3483 H         1 UNK         0.0600 
    227 H227       -9.2756  -25.2882  -52.4503 H         1 UNK         0.0600 
    228 H228       -7.5378  -25.4952  -52.2861 H         1 UNK         0.0600 
    229 H229       -8.4776  -24.8159  -50.9576 H         1 UNK         0.0600 
    230 H230       -6.0309  -23.5706  -54.0386 H         1 UNK         0.3000 
    231 H231       -7.3118  -23.7773  -56.6850 H         1 UNK         0.0600 
    232 H232       -5.3141  -25.1805  -56.0522 H         1 UNK         0.0600 
    233 H233       -4.3504  -23.7110  -55.9237 H         1 UNK         0.0600 
    234 H234       -5.0332  -24.1852  -57.4711 H         1 UNK         0.0600 
    235 H235       -7.4452  -21.2628  -54.9188 H         1 UNK         0.3000 
    236 H236       -7.5413  -19.0705  -55.1076 H         1 UNK         0.0600 
    237 H237       -8.9483  -19.6843  -57.0818 H         1 UNK         0.0600 
    238 H238       -8.1534  -18.1363  -57.3109 H         1 UNK         0.0600 
    239 H239       -7.5375  -19.5644  -58.1324 H         1 UNK         0.0600 
    240 H240       -5.0012  -20.0018  -54.6283 H         1 UNK         0.3000 
    241 H241       -2.8911  -19.4031  -54.4003 H         1 UNK         0.0600 
    242 H242       -3.9524  -20.5479  -57.2454 H         1 UNK         0.3800 
    243 H243       -2.4399  -20.5054  -58.1104 H         1 UNK         0.3800 
    244 H244       -2.0555  -17.0977  -54.9082 H         1 UNK         0.0800 
    245 H245       -3.5460  -16.7226  -55.7132 H         1 UNK         0.0800 
    246 H246       -1.6944  -17.4225  -52.4521 H         1 UNK         0.0800 
    247 H247       -1.8238  -15.7062  -52.7523 H         1 UNK         0.0800 
@<TRIPOS>BOND
     1    1    2 1    
     2    1  127 1    
     3    1  128 1    
     4    1  129 1    
     5    2    3 2    
     6    2    4 am   BACKBONE|DICT|INTERRES
     7    4    5 1    
     8    4  130 1    
     9    5    6 1    
    10    5   65 1    
    11    5  131 1    
    12    6    7 1    
    13    6  132 1    
    14    6  133 1    
    15    7    8 1    
    16    8    9 1    
    17    8  134 1    
    18    8  135 1    
    19    9   10 ar   
    20    9   14 ar   
    21   10   11 ar   
    22   10  136 1    
    23   11   12 ar   
    24   11  126 1    
    25   12   13 ar   
    26   12  137 1    
    27   13   14 ar   
    28   13   15 1    
    29   14  138 1    
    30   15   16 1    
    31   15  139 1    
    32   15  140 1    
    33   16   17 1    
    34   17   18 1    
    35   17  141 1    
    36   17  142 1    
    37   18   19 1    
    38   18   67 1    
    39   18  143 1    
    40   19   20 am   BACKBONE|DICT|INTERRES
    41   19  144 1    
    42   20   21 2    
    43   20   22 1    
    44   22   23 1    
    45   22   24 1    
    46   22  145 1    
    47   23  146 1    
    48   23  147 1    
    49   23  148 1    
    50   24   25 am   BACKBONE|DICT|INTERRES
    51   24  149 1    
    52   25   26 2    
    53   25   27 1    
    54   27   28 1    
    55   27   29 1    
    56   27  150 1    
    57   28  151 1    
    58   28  152 1    
    59   28  153 1    
    60   29   30 am   BACKBONE|DICT|INTERRES
    61   29  154 1    
    62   30   31 2    
    63   30   32 1    
    64   32   33 1    
    65   32   34 1    
    66   32  155 1    
    67   33  156 1    
    68   33  157 1    
    69   33  158 1    
    70   34   35 am   BACKBONE|DICT|INTERRES
    71   34  159 1    
    72   35   36 2    
    73   35   37 1    
    74   37   38 1    
    75   37   39 1    
    76   37  160 1    
    77   38  161 1    
    78   38  162 1    
    79   38  163 1    
    80   39   40 am   BACKBONE|DICT|INTERRES
    81   39  164 1    
    82   40   41 2    
    83   40   42 1    
    84   42   43 1    
    85   42   44 1    
    86   42  165 1    
    87   43  166 1    
    88   43  167 1    
    89   43  168 1    
    90   44   45 am   BACKBONE|DICT|INTERRES
    91   44  169 1    
    92   45   46 2    
    93   45   47 1    
    94   47   48 1    
    95   47   49 1    
    96   47  170 1    
    97   48  171 1    
    98   48  172 1    
    99   48  173 1    
   100   49   50 am   BACKBONE|DICT|INTERRES
   101   49  174 1    
   102   50   51 2    
   103   50   52 1    
   104   52   53 1    
   105   52   54 1    
   106   52  175 1    
   107   53  176 1    
   108   53  177 1    
   109   53  178 1    
   110   54   55 am   BACKBONE|DICT|INTERRES
   111   54  179 1    
   112   55   56 2    
   113   55   57 1    
   114   57   58 1    
   115   57   59 1    
   116   57  180 1    
   117   58  181 1    
   118   58  182 1    
   119   58  183 1    
   120   59   60 am   BACKBONE|DICT|INTERRES
   121   59  184 1    
   122   60   61 2    
   123   60   62 1    
   124   62   63 1    
   125   62   64 1    
   126   62  185 1    
   127   63  186 1    
   128   63  187 1    
   129   63  188 1    
   130   64   65 am   BACKBONE|DICT|INTERRES
   131   64  189 1    
   132   65   66 2    
   133   67   68 2    
   134   67   69 am   BACKBONE|DICT|INTERRES
   135   69   70 1    
   136   69  190 1    
   137   70   71 1    
   138   70   72 1    
   139   70  191 1    
   140   71  192 1    
   141   71  193 1    
   142   71  194 1    
   143   72   73 2    
   144   72   74 am   BACKBONE|DICT|INTERRES
   145   74   75 1    
   146   74  195 1    
   147   75   76 1    
   148   75   77 1    
   149   75  196 1    
   150   76  197 1    
   151   76  198 1    
   152   76  199 1    
   153   77   78 2    
   154   77   79 am   BACKBONE|DICT|INTERRES
   155   79   80 1    
   156   79  200 1    
   157   80   81 1    
   158   80   82 1    
   159   80  201 1    
   160   81  202 1    
   161   81  203 1    
   162   81  204 1    
   163   82   83 2    
   164   82   84 am   BACKBONE|DICT|INTERRES
   165   84   85 1    
   166   84  205 1    
   167   85   86 1    
   168   85   87 1    
   169   85  206 1    
   170   86  207 1    
   171   86  208 1    
   172   86  209 1    
   173   87   88 2    
   174   87   89 am   BACKBONE|DICT|INTERRES
   175   89   90 1    
   176   89  210 1    
   177   90   91 1    
   178   90   92 1    
   179   90  211 1    
   180   91  212 1    
   181   91  213 1    
   182   91  214 1    
   183   92   93 2    
   184   92   94 am   BACKBONE|DICT|INTERRES
   185   94   95 1    
   186   94  215 1    
   187   95   96 1    
   188   95   97 1    
   189   95  216 1    
   190   96  217 1    
   191   96  218 1    
   192   96  219 1    
   193   97   98 2    
   194   97   99 am   BACKBONE|DICT|INTERRES
   195   99  100 1    
   196   99  220 1    
   197  100  101 1    
   198  100  102 1    
   199  100  221 1    
   200  101  222 1    
   201  101  223 1    
   202  101  224 1    
   203  102  103 2    
   204  102  104 am   BACKBONE|DICT|INTERRES
   205  104  105 1    
   206  104  225 1    
   207  105  106 1    
   208  105  107 1    
   209  105  226 1    
   210  106  227 1    
   211  106  228 1    
   212  106  229 1    
   213  107  108 2    
   214  107  109 am   BACKBONE|DICT|INTERRES
   215  109  110 1    
   216  109  230 1    
   217  110  111 1    
   218  110  112 1    
   219  110  231 1    
   220  111  232 1    
   221  111  233 1    
   222  111  234 1    
   223  112  113 2    
   224  112  114 am   BACKBONE|DICT|INTERRES
   225  114  115 1    
   226  114  235 1    
   227  115  116 1    
   228  115  117 1    
   229  115  236 1    
   230  116  237 1    
   231  116  238 1    
   232  116  239 1    
   233  117  118 2    
   234  117  119 am   BACKBONE|DICT|INTERRES
   235  119  120 1    
   236  119  240 1    
   237  120  121 1    
   238  120  124 1    
   239  120  241 1    
   240  121  122 am   BACKBONE|DICT|INTERRES
   241  121  123 2    
   242  122  242 1    
   243  122  243 1    
   244  124  125 1    
   245  124  244 1    
   246  124  245 1    
   247  125  126 1    
   248  126  246 1    
   249  126  247 1    
@<TRIPOS>SUBSTRUCTURE
     1 UNK         1 GROUP             0       ****    0 ROOT    
