@<TRIPOS>MOLECULE
3R540
247   249    1
SMALL
USER_CHARGES


@<TRIPOS>ATOM
      1 CA          0.0964   -9.5997  -52.8395 C.3       0 UNK        -0.1800 
      2 C          -0.8693   -9.2600  -51.7063 C.2       0 UNK         0.5000 
      3 O          -1.4987   -8.2045  -51.7444 O.2       0 UNK        -0.5000 
      4 N          -1.0208  -10.1079  -50.6824 N.am      1 UNK        -0.5000 
      5 CA         -0.3322  -11.3799  -50.4801 C.3       1 UNK         0.1400 
      6 C6         -1.0799  -12.5633  -51.1505 C.3       23 UNK        -0.0398 
      7 S7         -0.0310  -14.0495  -51.3038 S.3       23 UNK        -0.2404 
      8 C8         -0.9916  -15.2493  -50.3218 C.3       23 UNK        -0.0205 
      9 C9         -0.2910  -16.5878  -50.0840 C.ar      23 UNK        -0.0193 
     10 C10         0.6202  -17.1332  -50.9979 C.ar      23 UNK        -0.1150 
     11 C11         1.2586  -18.3486  -50.7316 C.ar      23 UNK        -0.0193 
     12 C12         0.9915  -19.0195  -49.5353 C.ar      23 UNK        -0.1150 
     13 C13         0.0850  -18.4899  -48.6135 C.ar      23 UNK        -0.0193 
     14 C14        -0.5650  -17.2893  -48.9069 C.ar      23 UNK        -0.1150 
     15 C15        -0.1449  -19.1757  -47.2740 C.3       23 UNK        -0.0205 
     16 S16        -1.7791  -19.9687  -47.1406 S.3       23 UNK        -0.2404 
     17 C17        -1.5880  -21.3976  -48.2578 C.3       23 UNK        -0.0398 
     18 CA         -1.1821  -22.7285  -47.5757 C.3       11 UNK         0.1400 
     19 N          -0.0022  -22.6187  -46.7188 N.am      11 UNK        -0.5000 
     20 C           0.8885  -23.6053  -46.5535 C.2       10 UNK         0.5000 
     21 O           0.8292  -24.6896  -47.1339 O.2       10 UNK        -0.5000 
     22 CA          2.0240  -23.3462  -45.5509 C.3       10 UNK         0.1400 
     23 CB          3.1354  -22.5022  -46.1944 C.3       10 UNK        -0.1800 
     24 N           1.5568  -22.6991  -44.3245 N.am      10 UNK        -0.5000 
     25 C           0.7521  -23.2858  -43.4252 C.2       9 UNK         0.5000 
     26 O           0.2708  -24.4088  -43.5709 O.2       9 UNK        -0.5000 
     27 CA          0.4107  -22.4891  -42.1519 C.3       9 UNK         0.1400 
     28 CB          1.4282  -22.7959  -41.0431 C.3       9 UNK        -0.1800 
     29 N           0.3461  -21.0427  -42.3514 N.am      9 UNK        -0.5000 
     30 C          -0.4896  -20.4130  -43.1879 C.2       8 UNK         0.5000 
     31 O          -1.3001  -20.9896  -43.9126 O.2       8 UNK        -0.5000 
     32 CA         -0.3595  -18.8807  -43.2492 C.3       8 UNK         0.1400 
     33 CB         -1.1641  -18.2428  -42.1070 C.3       8 UNK        -0.1800 
     34 N           1.0187  -18.3795  -43.1910 N.am      8 UNK        -0.5000 
     35 C           2.0484  -18.7770  -43.9557 C.2       7 UNK         0.5000 
     36 O           2.0018  -19.7411  -44.7207 O.2       7 UNK        -0.5000 
     37 CA          3.3406  -17.9483  -43.8499 C.3       7 UNK         0.1400 
     38 CB          4.1866  -18.0101  -45.1359 C.3       7 UNK        -0.1800 
     39 N           3.0340  -16.5506  -43.5420 N.am      7 UNK        -0.5000 
     40 C           3.7348  -15.7752  -42.7070 C.2       6 UNK         0.5000 
     41 O           4.7079  -16.1742  -42.0657 O.2       6 UNK        -0.5000 
     42 CA          3.3002  -14.3039  -42.5596 C.3       6 UNK         0.1400 
     43 CB          4.1823  -13.3927  -43.4276 C.3       6 UNK        -0.1800 
     44 N           1.8939  -14.0379  -42.8722 N.am      6 UNK        -0.5000 
     45 C           0.8611  -14.4050  -42.0995 C.2       5 UNK         0.5000 
     46 O           0.9702  -15.1420  -41.1196 O.2       5 UNK        -0.5000 
     47 CA         -0.5222  -13.8543  -42.4824 C.3       5 UNK         0.1400 
     48 CB         -0.6254  -12.3582  -42.1450 C.3       5 UNK        -0.1800 
     49 N          -0.7655  -14.0446  -43.9083 N.am      5 UNK        -0.5000 
     50 C          -1.6366  -14.9208  -44.4252 C.2       4 UNK         0.5000 
     51 O          -2.4469  -15.5589  -43.7536 O.2       4 UNK        -0.5000 
     52 CA         -1.5965  -15.1430  -45.9507 C.3       4 UNK         0.1400 
     53 CB         -2.7776  -14.4324  -46.6289 C.3       4 UNK        -0.1800 
     54 N          -0.3427  -14.7193  -46.5848 N.am      4 UNK        -0.5000 
     55 C           0.8572  -15.2685  -46.3341 C.2       3 UNK         0.5000 
     56 O           1.0135  -16.2243  -45.5799 O.2       3 UNK        -0.5000 
     57 CA          2.1065  -14.6063  -46.9480 C.3       3 UNK         0.1400 
     58 CB          2.5586  -15.3521  -48.2110 C.3       3 UNK        -0.1800 
     59 N           1.9366  -13.1879  -47.2624 N.am      3 UNK        -0.5000 
     60 C           1.5699  -12.2278  -46.4012 C.2       2 UNK         0.5000 
     61 O           1.4196  -12.4183  -45.1926 O.2       2 UNK        -0.5000 
     62 CA          1.2528  -10.8430  -47.0008 C.3       2 UNK         0.1400 
     63 CB          2.4404   -9.8911  -46.7969 C.3       2 UNK        -0.1800 
     64 N           0.8920  -10.8650  -48.4263 N.am      2 UNK        -0.5000 
     65 C          -0.1352  -11.5417  -48.9632 C.2       1 UNK         0.5000 
     66 O          -0.9096  -12.2381  -48.3051 O.2       1 UNK        -0.5000 
     67 C          -2.3419  -23.4190  -46.8351 C.2       11 UNK         0.5000 
     68 O          -3.0333  -24.2292  -47.4534 O.2       11 UNK        -0.5000 
     69 N          -2.5178  -23.1536  -45.5297 N.am      12 UNK        -0.5000 
     70 CA         -3.5564  -23.7681  -44.6916 C.3       12 UNK         0.1400 
     71 CB         -3.5562  -23.1312  -43.2959 C.3       12 UNK        -0.1800 
     72 C          -3.4495  -25.3002  -44.5860 C.2       12 UNK         0.5000 
     73 O          -4.4791  -25.9751  -44.5706 O.2       12 UNK        -0.5000 
     74 N          -2.2164  -25.8244  -44.5553 N.am      13 UNK        -0.5000 
     75 CA         -1.9344  -27.2612  -44.5789 C.3       13 UNK         0.1400 
     76 CB         -0.4667  -27.4926  -44.1886 C.3       13 UNK        -0.1800 
     77 C          -2.2345  -27.9236  -45.9389 C.2       13 UNK         0.5000 
     78 O          -2.4525  -29.1353  -45.9789 O.2       13 UNK        -0.5000 
     79 N          -2.2256  -27.1334  -47.0207 N.am      14 UNK        -0.5000 
     80 CA         -2.4864  -27.5856  -48.3823 C.3       14 UNK         0.1400 
     81 CB         -1.6400  -26.7640  -49.3695 C.3       14 UNK        -0.1800 
     82 C          -3.9890  -27.5278  -48.7042 C.2       14 UNK         0.5000 
     83 O          -4.6124  -28.5814  -48.8425 O.2       14 UNK        -0.5000 
     84 N          -4.5451  -26.3133  -48.8240 N.am      15 UNK        -0.5000 
     85 CA         -5.9397  -26.0823  -49.2253 C.3       15 UNK         0.1400 
     86 CB         -6.1257  -26.3782  -50.7297 C.3       15 UNK        -0.1800 
     87 C          -6.4654  -24.6791  -48.8575 C.2       15 UNK         0.5000 
     88 O          -7.5044  -24.2721  -49.3813 O.2       15 UNK        -0.5000 
     89 N          -5.7561  -23.9529  -47.9807 N.am      16 UNK        -0.5000 
     90 CA         -6.0639  -22.6013  -47.5019 C.3       16 UNK         0.1400 
     91 CB         -7.2974  -22.6224  -46.5723 C.3       16 UNK        -0.1800 
     92 C          -6.1513  -21.5952  -48.6641 C.2       16 UNK         0.5000 
     93 O          -5.1744  -21.4529  -49.3997 O.2       16 UNK        -0.5000 
     94 N          -7.3078  -20.9435  -48.8396 N.am      17 UNK        -0.5000 
     95 CA         -7.5732  -19.9464  -49.8802 C.3       17 UNK         0.1400 
     96 CB         -8.9903  -19.3875  -49.6824 C.3       17 UNK        -0.1800 
     97 C          -7.3938  -20.4592  -51.3243 C.2       17 UNK         0.5000 
     98 O          -7.1088  -19.6560  -52.2121 O.2       17 UNK        -0.5000 
     99 N          -7.5466  -21.7745  -51.5350 N.am      18 UNK        -0.5000 
    100 CA        -7.3180  -22.4272  -52.8246 C.3       18 UNK         0.1400 
    101 CB        -8.1419  -23.7217  -52.8843 C.3       18 UNK        -0.1800 
    102 C         -5.8274  -22.7117  -53.1001 C.2       18 UNK         0.5000 
    103 O         -5.4577  -22.8687  -54.2644 O.2       18 UNK        -0.5000 
    104 N         -5.0025  -22.7793  -52.0455 N.am      19 UNK        -0.5000 
    105 CA        -3.5532  -22.9660  -52.1407 C.3       19 UNK         0.1400 
    106 CB        -3.0722  -23.8346  -50.9699 C.3       19 UNK        -0.1800 
    107 C         -2.8019  -21.6245  -52.1567 C.2       19 UNK         0.5000 
    108 O         -1.7579  -21.5288  -52.8008 O.2       19 UNK        -0.5000 
    109 N         -3.3406  -20.6244  -51.4464 N.am      20 UNK        -0.5000 
    110 CA        -2.8342  -19.2552  -51.3679 C.3       20 UNK         0.1400 
    111 CB        -3.6877  -18.4839  -50.3480 C.3       20 UNK        -0.1800 
    112 C         -2.8305  -18.5270  -52.7285 C.2       20 UNK         0.5000 
    113 O         -3.5566  -18.9157  -53.6464 O.2       20 UNK        -0.5000 
    114 N         -2.0213  -17.4605  -52.8052 N.am      21 UNK        -0.5000 
    115 CA        -1.7255  -16.6471  -53.9910 C.3       21 UNK         0.1400 
    116 CB        -2.9839  -15.9251  -54.5158 C.3       21 UNK        -0.1800 
    117 C         -0.9951  -17.4862  -55.0575 C.2       21 UNK         0.5000 
    118 O         -1.4793  -17.6472  -56.1789 O.2       21 UNK        -0.5000 
    119 N          0.1507  -18.0403  -54.6421 N.am      22 UNK        -0.5000 
    120 CA         0.9652  -19.0262  -55.3720 C.3       22 UNK         0.1400 
    121 C          1.5768  -18.5473  -56.7228 C.2       22 UNK         0.5000 
    122 N          1.6317  -17.2527  -57.0101 N.am      22 UNK        -0.7600 
    123 O          2.0136  -19.3694  -57.5236 O.2       22 UNK        -0.5000 
    124 C124        2.0802  -19.6241  -54.4700 C.3       23 UNK        -0.0398 
    125 S125        1.4943  -20.1518  -52.8178 S.3       23 UNK        -0.2404 
    126 C126        2.2646  -18.9178  -51.7193 C.3       23 UNK        -0.0205 
    127 H127        1.1284   -9.5064  -52.5014 H         1 UNK         0.0600 
    128 H128       -0.0439   -8.9168  -53.6777 H         1 UNK         0.0600 
    129 H129       -0.0611  -10.6117  -53.2106 H         1 UNK         0.0600 
    130 H130       -1.6502   -9.8537  -49.9327 H         1 UNK         0.3000 
    131 H131        0.6667  -11.3192  -50.9164 H         1 UNK         0.0600 
    132 H132       -2.0087  -12.7941  -50.6258 H         1 UNK         0.0800 
    133 H133       -1.3825  -12.2896  -52.1614 H         1 UNK         0.0800 
    134 H134       -1.2078  -14.7857  -49.3598 H         1 UNK         0.0800 
    135 H135       -1.9533  -15.4214  -50.8054 H         1 UNK         0.0800 
    136 H136        0.8526  -16.6061  -51.9115 H         1 UNK         0.1150 
    137 H137        1.5020  -19.9470  -49.3170 H         1 UNK         0.1150 
    138 H138       -1.2730  -16.8880  -48.1992 H         1 UNK         0.1150 
    139 H139        0.6387  -19.9082  -47.0795 H         1 UNK         0.0800 
    140 H140       -0.0575  -18.4331  -46.4820 H         1 UNK         0.0800 
    141 H141       -2.5266  -21.5216  -48.7986 H         1 UNK         0.0800 
    142 H142       -0.8542  -21.1504  -49.0249 H         1 UNK         0.0800 
    143 H143       -0.9308  -23.3998  -48.4002 H         1 UNK         0.0600 
    144 H144        0.0858  -21.7763  -46.1677 H         1 UNK         0.3000 
    145 H145        2.4514  -24.3126  -45.2752 H         1 UNK         0.0600 
    146 H146        3.9529  -22.3249  -45.4955 H         1 UNK         0.0600 
    147 H147        3.5542  -23.0103  -47.0638 H         1 UNK         0.0600 
    148 H148        2.7660  -21.5329  -46.5307 H         1 UNK         0.0600 
    149 H149        1.8428  -21.7365  -44.1812 H         1 UNK         0.3000 
    150 H150       -0.5705  -22.8191  -41.8082 H         1 UNK         0.0600 
    151 H151        1.4844  -23.8682  -40.8504 H         1 UNK         0.0600 
    152 H152        1.1494  -22.3134  -40.1061 H         1 UNK         0.0600 
    153 H153        2.4298  -22.4575  -41.3115 H         1 UNK         0.0600 
    154 H154        0.9929  -20.4819  -41.8169 H         1 UNK         0.3000 
    155 H155       -0.7855  -18.5474  -44.1970 H         1 UNK         0.0600 
    156 H156       -1.0988  -17.1558  -42.1334 H         1 UNK         0.0600 
    157 H157       -0.8070  -18.5698  -41.1297 H         1 UNK         0.0600 
    158 H158       -2.2199  -18.5072  -42.1788 H         1 UNK         0.0600 
    159 H159        1.1737  -17.5866  -42.5849 H         1 UNK         0.3000 
    160 H160        3.9164  -18.3933  -43.0363 H         1 UNK         0.0600 
    161 H161        3.6335  -17.6254  -45.9935 H         1 UNK         0.0600 
    162 H162        4.4811  -19.0348  -45.3660 H         1 UNK         0.0600 
    163 H163        5.1012  -17.4256  -45.0362 H         1 UNK         0.0600 
    164 H164        2.2387  -16.1681  -44.0456 H         1 UNK         0.3000 
    165 H165        3.4642  -14.0271  -41.5159 H         1 UNK         0.0600 
    166 H166        4.0627  -13.6056  -44.4894 H         1 UNK         0.0600 
    167 H167        3.9400  -12.3416  -43.2690 H         1 UNK         0.0600 
    168 H168        5.2378  -13.5221  -43.1845 H         1 UNK         0.0600 
    169 H169        1.7228  -13.4231  -43.6638 H         1 UNK         0.3000 
    170 H170       -1.2670  -14.3857  -41.8862 H         1 UNK         0.0600 
    171 H171       -0.4299  -12.1820  -41.0865 H         1 UNK         0.0600 
    172 H172        0.0875  -11.7617  -42.7158 H         1 UNK         0.0600 
    173 H173       -1.6242  -11.9775  -42.3591 H         1 UNK         0.0600 
    174 H174       -0.1381  -13.5583  -44.5384 H         1 UNK         0.3000 
    175 H175       -1.7080  -16.2174  -46.1061 H         1 UNK         0.0600 
    176 H176       -3.7257  -14.7369  -46.1839 H         1 UNK         0.0600 
    177 H177       -2.7028  -13.3488  -46.5304 H         1 UNK         0.0600 
    178 H178       -2.8314  -14.6712  -47.6901 H         1 UNK         0.0600 
    179 H179       -0.3982  -13.9084  -47.1922 H         1 UNK         0.3000 
    180 H180        2.9030  -14.6894  -46.2075 H         1 UNK         0.0600 
    181 H181        1.8760  -15.1808  -49.0422 H         1 UNK         0.0600 
    182 H182        2.6065  -16.4291  -48.0420 H         1 UNK         0.0600 
    183 H183        3.5511  -15.0284  -48.5243 H         1 UNK         0.0600 
    184 H184        2.0330  -12.9324  -48.2337 H         1 UNK         0.3000 
    185 H185        0.3969  -10.4460  -46.4515 H         1 UNK         0.0600 
    186 H186        2.1968   -8.8798  -47.1231 H         1 UNK         0.0600 
    187 H187        2.7184   -9.8323  -45.7435 H         1 UNK         0.0600 
    188 H188        3.3202  -10.2212  -47.3505 H         1 UNK         0.0600 
    189 H189        1.4631  -10.2949  -49.0338 H         1 UNK         0.3000 
    190 H190       -1.9373  -22.4512  -45.0796 H         1 UNK         0.3000 
    191 H191       -4.5219  -23.5510  -45.1481 H         1 UNK         0.0600 
    192 H192       -4.3405  -23.5587  -42.6700 H         1 UNK         0.0600 
    193 H193       -3.7364  -22.0577  -43.3515 H         1 UNK         0.0600 
    194 H194       -2.6072  -23.2899  -42.7859 H         1 UNK         0.0600 
    195 H195       -1.4136  -25.2057  -44.5078 H         1 UNK         0.3000 
    196 H196       -2.5650  -27.7467  -43.8312 H         1 UNK         0.0600 
    197 H197       -0.2213  -28.5553  -44.1917 H         1 UNK         0.0600 
    198 H198       -0.2619  -27.1163  -43.1862 H         1 UNK         0.0600 
    199 H199        0.2148  -26.9944  -44.8798 H         1 UNK         0.0600 
    200 H200       -2.0982  -26.1387  -46.8929 H         1 UNK         0.3000 
    201 H201       -2.1722  -28.6266  -48.4855 H         1 UNK         0.0600 
    202 H202       -1.8848  -27.0148  -50.4024 H         1 UNK         0.0600 
    203 H203       -0.5778  -26.9652  -49.2293 H         1 UNK         0.0600 
    204 H204       -1.7854  -25.6929  -49.2443 H         1 UNK         0.0600 
    205 H205       -3.9731  -25.4965  -48.6383 H         1 UNK         0.3000 
    206 H206       -6.5645  -26.7808  -48.6652 H         1 UNK         0.0600 
    207 H207       -5.7404  -27.3592  -51.0057 H         1 UNK         0.0600 
    208 H208       -7.1825  -26.3741  -50.9968 H         1 UNK         0.0600 
    209 H209       -5.6265  -25.6364  -51.3524 H         1 UNK         0.0600 
    210 H210       -4.8703  -24.3205  -47.6494 H         1 UNK         0.3000 
    211 H211       -5.2100  -22.2739  -46.9095 H         1 UNK         0.0600 
    212 H212       -8.2021  -22.9408  -47.0914 H         1 UNK         0.0600 
    213 H213       -7.4853  -21.6380  -46.1419 H         1 UNK         0.0600 
    214 H214       -7.1407  -23.3080  -45.7394 H         1 UNK         0.0600 
    215 H215       -8.0703  -21.1474  -48.2101 H         1 UNK         0.3000 
    216 H216       -6.8630  -19.1301  -49.7364 H         1 UNK         0.0600 
    217 H217       -9.7466  -20.1674  -49.7801 H         1 UNK         0.0600 
    218 H218       -9.1019  -18.9312  -48.6986 H         1 UNK         0.0600 
    219 H219       -9.2146  -18.6181  -50.4225 H         1 UNK         0.0600 
    220 H220       -7.7706  -22.3761  -50.7517 H         1 UNK         0.3000 
    221 H221       -7.6752  -21.7716  -53.6217 H         1 UNK         0.0600 
    222 H222       -9.2074  -23.5147  -52.7845 H         1 UNK         0.0600 
    223 H223       -7.9981  -24.2357  -53.8355 H         1 UNK         0.0600 
    224 H224       -7.8609  -24.4125  -52.0913 H         1 UNK         0.0600 
    225 H225       -5.3693  -22.5725  -51.1246 H         1 UNK         0.3000 
    226 H226       -3.3040  -23.4911  -53.0652 H         1 UNK         0.0600 
    227 H227       -3.4087  -23.4427  -50.0112 H         1 UNK         0.0600 
    228 H228       -3.4398  -24.8548  -51.0659 H         1 UNK         0.0600 
    229 H229       -1.9831  -23.8879  -50.9421 H         1 UNK         0.0600 
    230 H230       -4.1705  -20.8226  -50.8976 H         1 UNK         0.3000 
    231 H231       -1.8067  -19.3069  -51.0022 H         1 UNK         0.0600 
    232 H232       -3.6802  -18.9735  -49.3742 H         1 UNK         0.0600 
    233 H233       -3.3142  -17.4706  -50.2017 H         1 UNK         0.0600 
    234 H234       -4.7243  -18.4062  -50.6767 H         1 UNK         0.0600 
    235 H235       -1.4698  -17.2399  -51.9878 H         1 UNK         0.3000 
    236 H236       -1.0247  -15.8749  -53.6706 H         1 UNK         0.0600 
    237 H237       -3.4562  -15.3376  -53.7285 H         1 UNK         0.0600 
    238 H238       -2.7264  -15.2393  -55.3235 H         1 UNK         0.0600 
    239 H239       -3.7265  -16.6207  -54.9069 H         1 UNK         0.0600 
    240 H240        0.4379  -17.8851  -53.6887 H         1 UNK         0.3000 
    241 H241        0.2852  -19.8410  -55.6279 H         1 UNK         0.0600 
    242 H242        1.2661  -16.5688  -56.3675 H         1 UNK         0.3800 
    243 H243        2.0272  -16.9549  -57.8882 H         1 UNK         0.3800 
    244 H244        2.5135  -20.5010  -54.9542 H         1 UNK         0.0800 
    245 H245        2.9033  -18.9166  -54.3606 H         1 UNK         0.0800 
    246 H246        3.0876  -19.3897  -51.1805 H         1 UNK         0.0800 
    247 H247        2.7104  -18.1039  -52.2919 H         1 UNK         0.0800 
@<TRIPOS>BOND
     1    1    2 1    
     2    1  127 1    
     3    1  128 1    
     4    1  129 1    
     5    2    3 2    
     6    2    4 am   BACKBONE|DICT|INTERRES
     7    4    5 1    
     8    4  130 1    
     9    5    6 1    
    10    5   65 1    
    11    5  131 1    
    12    6    7 1    
    13    6  132 1    
    14    6  133 1    
    15    7    8 1    
    16    8    9 1    
    17    8  134 1    
    18    8  135 1    
    19    9   10 ar   
    20    9   14 ar   
    21   10   11 ar   
    22   10  136 1    
    23   11   12 ar   
    24   11  126 1    
    25   12   13 ar   
    26   12  137 1    
    27   13   14 ar   
    28   13   15 1    
    29   14  138 1    
    30   15   16 1    
    31   15  139 1    
    32   15  140 1    
    33   16   17 1    
    34   17   18 1    
    35   17  141 1    
    36   17  142 1    
    37   18   19 1    
    38   18   67 1    
    39   18  143 1    
    40   19   20 am   BACKBONE|DICT|INTERRES
    41   19  144 1    
    42   20   21 2    
    43   20   22 1    
    44   22   23 1    
    45   22   24 1    
    46   22  145 1    
    47   23  146 1    
    48   23  147 1    
    49   23  148 1    
    50   24   25 am   BACKBONE|DICT|INTERRES
    51   24  149 1    
    52   25   26 2    
    53   25   27 1    
    54   27   28 1    
    55   27   29 1    
    56   27  150 1    
    57   28  151 1    
    58   28  152 1    
    59   28  153 1    
    60   29   30 am   BACKBONE|DICT|INTERRES
    61   29  154 1    
    62   30   31 2    
    63   30   32 1    
    64   32   33 1    
    65   32   34 1    
    66   32  155 1    
    67   33  156 1    
    68   33  157 1    
    69   33  158 1    
    70   34   35 am   BACKBONE|DICT|INTERRES
    71   34  159 1    
    72   35   36 2    
    73   35   37 1    
    74   37   38 1    
    75   37   39 1    
    76   37  160 1    
    77   38  161 1    
    78   38  162 1    
    79   38  163 1    
    80   39   40 am   BACKBONE|DICT|INTERRES
    81   39  164 1    
    82   40   41 2    
    83   40   42 1    
    84   42   43 1    
    85   42   44 1    
    86   42  165 1    
    87   43  166 1    
    88   43  167 1    
    89   43  168 1    
    90   44   45 am   BACKBONE|DICT|INTERRES
    91   44  169 1    
    92   45   46 2    
    93   45   47 1    
    94   47   48 1    
    95   47   49 1    
    96   47  170 1    
    97   48  171 1    
    98   48  172 1    
    99   48  173 1    
   100   49   50 am   BACKBONE|DICT|INTERRES
   101   49  174 1    
   102   50   51 2    
   103   50   52 1    
   104   52   53 1    
   105   52   54 1    
   106   52  175 1    
   107   53  176 1    
   108   53  177 1    
   109   53  178 1    
   110   54   55 am   BACKBONE|DICT|INTERRES
   111   54  179 1    
   112   55   56 2    
   113   55   57 1    
   114   57   58 1    
   115   57   59 1    
   116   57  180 1    
   117   58  181 1    
   118   58  182 1    
   119   58  183 1    
   120   59   60 am   BACKBONE|DICT|INTERRES
   121   59  184 1    
   122   60   61 2    
   123   60   62 1    
   124   62   63 1    
   125   62   64 1    
   126   62  185 1    
   127   63  186 1    
   128   63  187 1    
   129   63  188 1    
   130   64   65 am   BACKBONE|DICT|INTERRES
   131   64  189 1    
   132   65   66 2    
   133   67   68 2    
   134   67   69 am   BACKBONE|DICT|INTERRES
   135   69   70 1    
   136   69  190 1    
   137   70   71 1    
   138   70   72 1    
   139   70  191 1    
   140   71  192 1    
   141   71  193 1    
   142   71  194 1    
   143   72   73 2    
   144   72   74 am   BACKBONE|DICT|INTERRES
   145   74   75 1    
   146   74  195 1    
   147   75   76 1    
   148   75   77 1    
   149   75  196 1    
   150   76  197 1    
   151   76  198 1    
   152   76  199 1    
   153   77   78 2    
   154   77   79 am   BACKBONE|DICT|INTERRES
   155   79   80 1    
   156   79  200 1    
   157   80   81 1    
   158   80   82 1    
   159   80  201 1    
   160   81  202 1    
   161   81  203 1    
   162   81  204 1    
   163   82   83 2    
   164   82   84 am   BACKBONE|DICT|INTERRES
   165   84   85 1    
   166   84  205 1    
   167   85   86 1    
   168   85   87 1    
   169   85  206 1    
   170   86  207 1    
   171   86  208 1    
   172   86  209 1    
   173   87   88 2    
   174   87   89 am   BACKBONE|DICT|INTERRES
   175   89   90 1    
   176   89  210 1    
   177   90   91 1    
   178   90   92 1    
   179   90  211 1    
   180   91  212 1    
   181   91  213 1    
   182   91  214 1    
   183   92   93 2    
   184   92   94 am   BACKBONE|DICT|INTERRES
   185   94   95 1    
   186   94  215 1    
   187   95   96 1    
   188   95   97 1    
   189   95  216 1    
   190   96  217 1    
   191   96  218 1    
   192   96  219 1    
   193   97   98 2    
   194   97   99 am   BACKBONE|DICT|INTERRES
   195   99  100 1    
   196   99  220 1    
   197  100  101 1    
   198  100  102 1    
   199  100  221 1    
   200  101  222 1    
   201  101  223 1    
   202  101  224 1    
   203  102  103 2    
   204  102  104 am   BACKBONE|DICT|INTERRES
   205  104  105 1    
   206  104  225 1    
   207  105  106 1    
   208  105  107 1    
   209  105  226 1    
   210  106  227 1    
   211  106  228 1    
   212  106  229 1    
   213  107  108 2    
   214  107  109 am   BACKBONE|DICT|INTERRES
   215  109  110 1    
   216  109  230 1    
   217  110  111 1    
   218  110  112 1    
   219  110  231 1    
   220  111  232 1    
   221  111  233 1    
   222  111  234 1    
   223  112  113 2    
   224  112  114 am   BACKBONE|DICT|INTERRES
   225  114  115 1    
   226  114  235 1    
   227  115  116 1    
   228  115  117 1    
   229  115  236 1    
   230  116  237 1    
   231  116  238 1    
   232  116  239 1    
   233  117  118 2    
   234  117  119 am   BACKBONE|DICT|INTERRES
   235  119  120 1    
   236  119  240 1    
   237  120  121 1    
   238  120  124 1    
   239  120  241 1    
   240  121  122 am   BACKBONE|DICT|INTERRES
   241  121  123 2    
   242  122  242 1    
   243  122  243 1    
   244  124  125 1    
   245  124  244 1    
   246  124  245 1    
   247  125  126 1    
   248  126  246 1    
   249  126  247 1    
@<TRIPOS>SUBSTRUCTURE
     1 UNK         1 GROUP             0       ****    0 ROOT    
