@<TRIPOS>MOLECULE
3R540
247   249    1
SMALL
USER_CHARGES


@<TRIPOS>ATOM
      1 CA          1.9210  -15.2578  -44.3032 C.3       0 UNK        -0.1800 
      2 C           1.9896  -13.9225  -45.0268 C.2       0 UNK         0.5000 
      3 O           1.7124  -12.8800  -44.4328 O.2       0 UNK        -0.5000 
      4 N           2.3684  -13.9438  -46.3109 N.am      1 UNK        -0.5000 
      5 CA          2.4564  -12.7655  -47.1863 C.3       1 UNK         0.1400 
      6 C6          2.7469  -13.1479  -48.6578 C.3       23 UNK        -0.0398 
      7 S7          1.4044  -14.1381  -49.3953 S.3       23 UNK        -0.2404 
      8 C8          2.1253  -15.8156  -49.3615 C.3       23 UNK        -0.0205 
      9 C9          1.1656  -16.9039  -49.8362 C.ar      23 UNK        -0.0193 
     10 C10        -0.1904  -16.8740  -49.4935 C.ar      23 UNK        -0.1150 
     11 C11        -1.0599  -17.8848  -49.9080 C.ar      23 UNK        -0.0193 
     12 C12        -0.5657  -18.9378  -50.6781 C.ar      23 UNK        -0.1150 
     13 C13         0.7985  -19.0208  -50.9718 C.ar      23 UNK        -0.0193 
     14 C14         1.6548  -17.9921  -50.5663 C.ar      23 UNK        -0.1150 
     15 C15         1.3535  -20.2523  -51.6726 C.3       23 UNK        -0.0205 
     16 S16         1.8733  -21.5257  -50.4721 S.3       23 UNK        -0.2404 
     17 C17         0.2661  -21.9854  -49.7426 C.3       23 UNK        -0.0398 
     18 CA          0.3500  -23.1186  -48.6971 C.3       11 UNK         0.1400 
     19 N           1.1809  -22.7406  -47.5504 N.am      11 UNK        -0.5000 
     20 C           1.4051  -23.4778  -46.4534 C.2       10 UNK         0.5000 
     21 O           0.9927  -24.6288  -46.3050 O.2       10 UNK        -0.5000 
     22 CA          2.1754  -22.7953  -45.3054 C.3       10 UNK         0.1400 
     23 CB          3.6525  -23.2159  -45.3294 C.3       10 UNK        -0.1800 
     24 N           2.0963  -21.3283  -45.3024 N.am      10 UNK        -0.5000 
     25 C           0.9706  -20.6052  -45.2113 C.2       9 UNK         0.5000 
     26 O          -0.1614  -21.0950  -45.2010 O.2       9 UNK        -0.5000 
     27 CA          1.1518  -19.0758  -45.1915 C.3       9 UNK         0.1400 
     28 CB          1.1429  -18.5283  -46.6261 C.3       9 UNK        -0.1800 
     29 N           0.1195  -18.3934  -44.4088 N.am      9 UNK        -0.5000 
     30 C          -0.0448  -18.5259  -43.0826 C.2       8 UNK         0.5000 
     31 O           0.6952  -19.2149  -42.3780 O.2       8 UNK        -0.5000 
     32 CA         -1.1973  -17.7514  -42.4063 C.3       8 UNK         0.1400 
     33 CB         -0.6431  -16.6814  -41.4507 C.3       8 UNK        -0.1800 
     34 N          -2.1103  -17.1147  -43.3567 N.am      8 UNK        -0.5000 
     35 C          -3.0821  -17.7567  -44.0214 C.2       7 UNK         0.5000 
     36 O          -3.3599  -18.9403  -43.8275 O.2       7 UNK        -0.5000 
     37 CA         -3.8751  -16.9682  -45.0881 C.3       7 UNK         0.1400 
     38 CB         -5.3072  -16.6833  -44.6113 C.3       7 UNK        -0.1800 
     39 N          -3.2619  -15.7083  -45.5188 N.am      7 UNK        -0.5000 
     40 C          -2.0809  -15.6059  -46.1414 C.2       6 UNK         0.5000 
     41 O          -1.3594  -16.5695  -46.3879 O.2       6 UNK        -0.5000 
     42 CA         -1.5949  -14.1884  -46.4954 C.3       6 UNK         0.1400 
     43 CB         -2.2368  -13.7124  -47.8080 C.3       6 UNK        -0.1800 
     44 N          -1.8050  -13.1592  -45.4688 N.am      6 UNK        -0.5000 
     45 C          -1.5920  -13.2622  -44.1481 C.2       5 UNK         0.5000 
     46 O          -1.3184  -14.3126  -43.5688 O.2       5 UNK        -0.5000 
     47 CA         -1.6326  -11.9414  -43.3694 C.3       5 UNK         0.1400 
     48 CB         -1.4696  -12.1289  -41.8495 C.3       5 UNK        -0.1800 
     49 N          -0.5465  -11.1059  -43.8676 N.am      5 UNK        -0.5000 
     50 C          -0.6161   -9.7943  -44.1218 C.2       4 UNK         0.5000 
     51 O          -1.6432   -9.1275  -43.9827 O.2       4 UNK        -0.5000 
     52 CA          0.6855   -9.1260  -44.6188 C.3       4 UNK         0.1400 
     53 CB          0.6851   -7.5919  -44.4537 C.3       4 UNK        -0.1800 
     54 N           1.8887   -9.7208  -44.0265 N.am      4 UNK        -0.5000 
     55 C           2.2284   -9.7612  -42.7273 C.2       3 UNK         0.5000 
     56 O           1.5989   -9.1897  -41.8362 O.2       3 UNK        -0.5000 
     57 CA          3.4630  -10.6042  -42.3463 C.3       3 UNK         0.1400 
     58 CB          3.0652  -11.7425  -41.3905 C.3       3 UNK        -0.1800 
     59 N           4.1165  -11.1920  -43.5169 N.am      3 UNK        -0.5000 
     60 C           5.1440  -10.6480  -44.1827 C.2       2 UNK         0.5000 
     61 O           5.7023   -9.6042  -43.8440 O.2       2 UNK        -0.5000 
     62 CA          5.6206  -11.3839  -45.4524 C.3       2 UNK         0.1400 
     63 CB          6.8335  -12.2713  -45.1342 C.3       2 UNK        -0.1800 
     64 N           4.5806  -12.2076  -46.0763 N.am      2 UNK        -0.5000 
     65 C           3.4839  -11.7295  -46.6825 C.2       1 UNK         0.5000 
     66 O           3.2402  -10.5286  -46.7996 O.2       1 UNK        -0.5000 
     67 C          -1.0856  -23.5116  -48.2929 C.2       11 UNK         0.5000 
     68 O          -1.6545  -24.4048  -48.9160 O.2       11 UNK        -0.5000 
     69 N          -1.6429  -22.8703  -47.2533 N.am      12 UNK        -0.5000 
     70 CA         -3.0196  -23.0705  -46.7927 C.3       12 UNK         0.1400 
     71 CB         -3.3749  -21.9844  -45.7668 C.3       12 UNK        -0.1800 
     72 C          -3.3190  -24.4788  -46.2412 C.2       12 UNK         0.5000 
     73 O          -4.4899  -24.8512  -46.1660 O.2       12 UNK        -0.5000 
     74 N          -2.2755  -25.2509  -45.9034 N.am      13 UNK        -0.5000 
     75 CA         -2.3843  -26.6655  -45.5415 C.3       13 UNK         0.1400 
     76 CB         -1.0663  -27.1233  -44.8992 C.3       13 UNK        -0.1800 
     77 C          -2.7391  -27.5625  -46.7462 C.2       13 UNK         0.5000 
     78 O          -3.3976  -28.5870  -46.5636 O.2       13 UNK        -0.5000 
     79 N          -2.3027  -27.1599  -47.9470 N.am      14 UNK        -0.5000 
     80 CA         -2.5835  -27.8297  -49.2180 C.3       14 UNK         0.1400 
     81 CB         -1.2905  -27.8480  -50.0445 C.3       14 UNK        -0.1800 
     82 C          -3.7114  -27.1261  -49.9965 C.2       14 UNK         0.5000 
     83 O          -4.4089  -27.7775  -50.7751 O.2       14 UNK        -0.5000 
     84 N          -3.8680  -25.8135  -49.7735 N.am      15 UNK        -0.5000 
     85 CA         -4.8346  -24.9044  -50.3836 C.3       15 UNK         0.1400 
     86 CB         -6.2714  -25.2493  -49.9337 C.3       15 UNK        -0.1800 
     87 C          -4.6351  -24.8376  -51.9086 C.2       15 UNK         0.5000 
     88 O          -3.5474  -24.4666  -52.3549 O.2       15 UNK        -0.5000 
     89 N          -5.6619  -25.2119  -52.6825 N.am      16 UNK        -0.5000 
     90 CA         -5.6731  -25.2144  -54.1480 C.3       16 UNK         0.1400 
     91 CB         -7.0660  -25.6426  -54.6329 C.3       16 UNK        -0.1800 
     92 C          -4.5829  -26.0917  -54.7967 C.2       16 UNK         0.5000 
     93 O          -4.1866  -25.8160  -55.9292 O.2       16 UNK        -0.5000 
     94 N          -4.1017  -27.1124  -54.0713 N.am      17 UNK        -0.5000 
     95 CA         -2.9928  -27.9681  -54.4950 C.3       17 UNK         0.1400 
     96 CB         -2.9970  -29.2597  -53.6641 C.3       17 UNK        -0.1800 
     97 C          -1.6212  -27.2637  -54.4317 C.2       17 UNK         0.5000 
     98 O          -0.7146  -27.6676  -55.1612 O.2       17 UNK        -0.5000 
     99 N          -1.4908  -26.2231  -53.5944 N.am      18 UNK        -0.5000 
    100 CA        -0.3356  -25.3254  -53.5834 C.3       18 UNK         0.1400 
    101 CB        -0.0544  -24.8205  -52.1585 C.3       18 UNK        -0.1800 
    102 C         -0.5716  -24.1573  -54.5514 C.2       18 UNK         0.5000 
    103 O          0.2198  -23.9670  -55.4755 O.2       18 UNK        -0.5000 
    104 N         -1.6702  -23.4224  -54.3380 N.am      19 UNK        -0.5000 
    105 CA        -2.1240  -22.3159  -55.1789 C.3       19 UNK         0.1400 
    106 CB        -1.1601  -21.1118  -55.1122 C.3       19 UNK        -0.1800 
    107 C         -3.5346  -21.8996  -54.7510 C.2       19 UNK         0.5000 
    108 O         -4.4579  -21.9282  -55.5646 O.2       19 UNK        -0.5000 
    109 N         -3.6709  -21.5408  -53.4709 N.am      20 UNK        -0.5000 
    110 CA        -4.8961  -21.1124  -52.8102 C.3       20 UNK         0.1400 
    111 CB        -5.3111  -19.7116  -53.3031 C.3       20 UNK        -0.1800 
    112 C         -4.6365  -21.0908  -51.2976 C.2       20 UNK         0.5000 
    113 O         -3.4779  -21.1075  -50.8736 O.2       20 UNK        -0.5000 
    114 N         -5.7190  -21.0341  -50.5130 N.am      21 UNK        -0.5000 
    115 CA        -5.6679  -20.8366  -49.0610 C.3       21 UNK         0.1400 
    116 CB        -6.8190  -21.6154  -48.4061 C.3       21 UNK        -0.1800 
    117 C         -5.7195  -19.3489  -48.6595 C.2       21 UNK         0.5000 
    118 O         -5.4465  -19.0362  -47.5023 O.2       21 UNK        -0.5000 
    119 N         -6.0650  -18.4663  -49.6092 N.am      22 UNK        -0.5000 
    120 CA        -6.1751  -17.0018  -49.4543 C.3       22 UNK         0.1400 
    121 C         -7.3308  -16.5248  -48.5185 C.2       22 UNK         0.5000 
    122 N         -8.3035  -17.3638  -48.1845 N.am      22 UNK        -0.7600 
    123 O         -7.3698  -15.3664  -48.1128 O.2       22 UNK        -0.5000 
    124 C124       -4.8231  -16.3130  -49.1131 C.3       23 UNK        -0.0398 
    125 S125       -3.5029  -16.6372  -50.3347 S.3       23 UNK        -0.2404 
    126 C126       -2.5091  -17.8771  -49.4513 C.3       23 UNK        -0.0205 
    127 H127        0.8991  -15.6340  -44.3205 H         1 UNK         0.0600 
    128 H128        2.5678  -16.0014  -44.7688 H         1 UNK         0.0600 
    129 H129        2.2269  -15.1431  -43.2635 H         1 UNK         0.0600 
    130 H130        2.5815  -14.8283  -46.7458 H         1 UNK         0.3000 
    131 H131        1.4812  -12.2739  -47.1552 H         1 UNK         0.0600 
    132 H132        2.8506  -12.2497  -49.2696 H         1 UNK         0.0800 
    133 H133        3.6948  -13.6821  -48.7435 H         1 UNK         0.0800 
    134 H134        3.0249  -15.8155  -49.9791 H         1 UNK         0.0800 
    135 H135        2.4413  -16.0578  -48.3474 H         1 UNK         0.0800 
    136 H136       -0.5705  -16.0721  -48.8808 H         1 UNK         0.1150 
    137 H137       -1.2312  -19.7303  -50.9893 H         1 UNK         0.1150 
    138 H138        2.7096  -18.0565  -50.7940 H         1 UNK         0.1150 
    139 H139        0.6115  -20.6736  -52.3513 H         1 UNK         0.0800 
    140 H140        2.2093  -19.9745  -52.2895 H         1 UNK         0.0800 
    141 H141       -0.1631  -21.1039  -49.2663 H         1 UNK         0.0800 
    142 H142       -0.4070  -22.2550  -50.5592 H         1 UNK         0.0800 
    143 H143        0.8092  -23.9929  -49.1628 H         1 UNK         0.0600 
    144 H144        1.5792  -21.8141  -47.5833 H         1 UNK         0.3000 
    145 H145        1.7343  -23.1474  -44.3707 H         1 UNK         0.0600 
    146 H146        4.1896  -22.8236  -44.4656 H         1 UNK         0.0600 
    147 H147        3.7506  -24.3021  -45.3041 H         1 UNK         0.0600 
    148 H148        4.1567  -22.8618  -46.2295 H         1 UNK         0.0600 
    149 H149        2.9809  -20.8419  -45.3290 H         1 UNK         0.3000 
    150 H150        2.1173  -18.8432  -44.7378 H         1 UNK         0.0600 
    151 H151        1.9441  -18.9641  -47.2242 H         1 UNK         0.0600 
    152 H152        1.2808  -17.4475  -46.6367 H         1 UNK         0.0600 
    153 H153        0.2016  -18.7478  -47.1321 H         1 UNK         0.0600 
    154 H154       -0.5348  -17.8217  -44.9317 H         1 UNK         0.3000 
    155 H155       -1.7623  -18.4697  -41.8088 H         1 UNK         0.0600 
    156 H156       -0.0497  -17.1362  -40.6568 H         1 UNK         0.0600 
    157 H157       -0.0004  -15.9703  -41.9699 H         1 UNK         0.0600 
    158 H158       -1.4471  -16.1200  -40.9745 H         1 UNK         0.0600 
    159 H159       -1.9305  -16.1345  -43.5605 H         1 UNK         0.3000 
    160 H160       -3.9304  -17.6149  -45.9642 H         1 UNK         0.0600 
    161 H161       -5.8125  -17.6052  -44.3199 H         1 UNK         0.0600 
    162 H162       -5.3184  -16.0139  -43.7504 H         1 UNK         0.0600 
    163 H163       -5.9027  -16.2285  -45.4035 H         1 UNK         0.0600 
    164 H164       -3.7695  -14.8614  -45.3100 H         1 UNK         0.3000 
    165 H165       -0.5186  -14.2577  -46.6585 H         1 UNK         0.0600 
    166 H166       -3.3050  -13.5277  -47.6889 H         1 UNK         0.0600 
    167 H167       -1.7731  -12.7913  -48.1615 H         1 UNK         0.0600 
    168 H168       -2.1221  -14.4514  -48.6004 H         1 UNK         0.0600 
    169 H169       -2.0194  -12.2387  -45.8237 H         1 UNK         0.3000 
    170 H170       -2.6014  -11.4769  -43.5641 H         1 UNK         0.0600 
    171 H171       -2.2561  -12.7685  -41.4472 H         1 UNK         0.0600 
    172 H172       -0.5110  -12.5874  -41.6024 H         1 UNK         0.0600 
    173 H173       -1.5258  -11.1734  -41.3278 H         1 UNK         0.0600 
    174 H174        0.3284  -11.5973  -44.0392 H         1 UNK         0.3000 
    175 H175        0.7416   -9.3390  -45.6872 H         1 UNK         0.0600 
    176 H176        1.6167   -7.1568  -44.8154 H         1 UNK         0.0600 
    177 H177       -0.1262   -7.1384  -45.0242 H         1 UNK         0.0600 
    178 H178        0.5568   -7.2942  -43.4128 H         1 UNK         0.0600 
    179 H179        2.4834  -10.2164  -44.6774 H         1 UNK         0.3000 
    180 H180        4.1591   -9.9473  -41.8209 H         1 UNK         0.0600 
    181 H181        3.9316  -12.3397  -41.1061 H         1 UNK         0.0600 
    182 H182        2.6286  -11.3487  -40.4719 H         1 UNK         0.0600 
    183 H183        2.3301  -12.4107  -41.8405 H         1 UNK         0.0600 
    184 H184        3.6835  -12.0290  -43.8854 H         1 UNK         0.3000 
    185 H185        5.9313  -10.6253  -46.1740 H         1 UNK         0.0600 
    186 H186        7.2285  -12.7387  -46.0364 H         1 UNK         0.0600 
    187 H187        7.6414  -11.6856  -44.6933 H         1 UNK         0.0600 
    188 H188        6.5791  -13.0629  -44.4282 H         1 UNK         0.0600 
    189 H189        4.6936  -13.2085  -46.0060 H         1 UNK         0.3000 
    190 H190       -1.0933  -22.1919  -46.7354 H         1 UNK         0.3000 
    191 H191       -3.6689  -22.9424  -47.6592 H         1 UNK         0.0600 
    192 H192       -4.4155  -22.0670  -45.4508 H         1 UNK         0.0600 
    193 H193       -3.2439  -20.9855  -46.1845 H         1 UNK         0.0600 
    194 H194       -2.7532  -22.0566  -44.8737 H         1 UNK         0.0600 
    195 H195       -1.3402  -24.8745  -45.9936 H         1 UNK         0.3000 
    196 H196       -3.1795  -26.7715  -44.8005 H         1 UNK         0.0600 
    197 H197       -1.1298  -28.1635  -44.5772 H         1 UNK         0.0600 
    198 H198       -0.8259  -26.5247  -44.0205 H         1 UNK         0.0600 
    199 H199       -0.2309  -27.0461  -45.5963 H         1 UNK         0.0600 
    200 H200       -1.7995  -26.2833  -48.0091 H         1 UNK         0.3000 
    201 H201       -2.8932  -28.8624  -49.0453 H         1 UNK         0.0600 
    202 H202       -0.5088  -28.4144  -49.5383 H         1 UNK         0.0600 
    203 H203       -0.9176  -26.8385  -50.2068 H         1 UNK         0.0600 
    204 H204       -1.4421  -28.3055  -51.0210 H         1 UNK         0.0600 
    205 H205       -3.1375  -25.3489  -49.2400 H         1 UNK         0.3000 
    206 H206       -4.5981  -23.9100  -50.0031 H         1 UNK         0.0600 
    207 H207       -6.3485  -25.2281  -48.8463 H         1 UNK         0.0600 
    208 H208       -6.9908  -24.5257  -50.3189 H         1 UNK         0.0600 
    209 H209       -6.5843  -26.2407  -50.2627 H         1 UNK         0.0600 
    210 H210       -6.5046  -25.5357  -52.2302 H         1 UNK         0.3000 
    211 H211       -5.5010  -24.1890  -54.4771 H         1 UNK         0.0600 
    212 H212       -7.3120  -26.6536  -54.3055 H         1 UNK         0.0600 
    213 H213       -7.1229  -25.6271  -55.7222 H         1 UNK         0.0600 
    214 H214       -7.8386  -24.9699  -54.2600 H         1 UNK         0.0600 
    215 H215       -4.4745  -27.2733  -53.1443 H         1 UNK         0.3000 
    216 H216       -3.1593  -28.2481  -55.5375 H         1 UNK         0.0600 
    217 H217       -2.1734  -29.9145  -53.9517 H         1 UNK         0.0600 
    218 H218       -3.9216  -29.8177  -53.8123 H         1 UNK         0.0600 
    219 H219       -2.8998  -29.0573  -52.5994 H         1 UNK         0.0600 
    220 H220       -2.3009  -25.9141  -53.0697 H         1 UNK         0.3000 
    221 H221        0.5572  -25.8570  -53.9200 H         1 UNK         0.0600 
    222 H222       -0.9559  -24.4623  -51.6614 H         1 UNK         0.0600 
    223 H223        0.3796  -25.6099  -51.5477 H         1 UNK         0.0600 
    224 H224        0.6656  -24.0011  -52.1683 H         1 UNK         0.0600 
    225 H225       -2.3011  -23.6923  -53.5861 H         1 UNK         0.3000 
    226 H226       -2.1780  -22.6688  -56.2109 H         1 UNK         0.0600 
    227 H227       -0.1816  -21.3518  -55.5267 H         1 UNK         0.0600 
    228 H228       -1.5501  -20.2705  -55.6864 H         1 UNK         0.0600 
    229 H229       -1.0134  -20.7676  -54.0887 H         1 UNK         0.0600 
    230 H230       -2.8743  -21.5753  -52.8462 H         1 UNK         0.3000 
    231 H231       -5.6855  -21.8359  -53.0228 H         1 UNK         0.0600 
    232 H232       -6.2293  -19.3773  -52.8197 H         1 UNK         0.0600 
    233 H233       -5.4983  -19.7019  -54.3766 H         1 UNK         0.0600 
    234 H234       -4.5394  -18.9694  -53.0929 H         1 UNK         0.0600 
    235 H235       -6.6378  -21.0518  -50.9329 H         1 UNK         0.3000 
    236 H236       -4.7295  -21.2305  -48.6702 H         1 UNK         0.0600 
    237 H237       -7.7919  -21.2787  -48.7655 H         1 UNK         0.0600 
    238 H238       -6.7363  -22.6825  -48.6074 H         1 UNK         0.0600 
    239 H239       -6.8079  -21.4931  -47.3221 H         1 UNK         0.0600 
    240 H240       -6.2709  -18.8179  -50.5309 H         1 UNK         0.3000 
    241 H241       -6.4693  -16.6380  -50.4393 H         1 UNK         0.0600 
    242 H242       -9.0509  -17.0427  -47.5894 H         1 UNK         0.3800 
    243 H243       -8.2980  -18.3153  -48.5130 H         1 UNK         0.3800 
    244 H244       -4.4939  -16.5912  -48.1126 H         1 UNK         0.0800 
    245 H245       -4.9512  -15.2298  -49.0848 H         1 UNK         0.0800 
    246 H246       -2.5339  -17.6919  -48.3787 H         1 UNK         0.0800 
    247 H247       -2.9589  -18.8589  -49.5935 H         1 UNK         0.0800 
@<TRIPOS>BOND
     1    1    2 1    
     2    1  127 1    
     3    1  128 1    
     4    1  129 1    
     5    2    3 2    
     6    2    4 am   BACKBONE|DICT|INTERRES
     7    4    5 1    
     8    4  130 1    
     9    5    6 1    
    10    5   65 1    
    11    5  131 1    
    12    6    7 1    
    13    6  132 1    
    14    6  133 1    
    15    7    8 1    
    16    8    9 1    
    17    8  134 1    
    18    8  135 1    
    19    9   10 ar   
    20    9   14 ar   
    21   10   11 ar   
    22   10  136 1    
    23   11   12 ar   
    24   11  126 1    
    25   12   13 ar   
    26   12  137 1    
    27   13   14 ar   
    28   13   15 1    
    29   14  138 1    
    30   15   16 1    
    31   15  139 1    
    32   15  140 1    
    33   16   17 1    
    34   17   18 1    
    35   17  141 1    
    36   17  142 1    
    37   18   19 1    
    38   18   67 1    
    39   18  143 1    
    40   19   20 am   BACKBONE|DICT|INTERRES
    41   19  144 1    
    42   20   21 2    
    43   20   22 1    
    44   22   23 1    
    45   22   24 1    
    46   22  145 1    
    47   23  146 1    
    48   23  147 1    
    49   23  148 1    
    50   24   25 am   BACKBONE|DICT|INTERRES
    51   24  149 1    
    52   25   26 2    
    53   25   27 1    
    54   27   28 1    
    55   27   29 1    
    56   27  150 1    
    57   28  151 1    
    58   28  152 1    
    59   28  153 1    
    60   29   30 am   BACKBONE|DICT|INTERRES
    61   29  154 1    
    62   30   31 2    
    63   30   32 1    
    64   32   33 1    
    65   32   34 1    
    66   32  155 1    
    67   33  156 1    
    68   33  157 1    
    69   33  158 1    
    70   34   35 am   BACKBONE|DICT|INTERRES
    71   34  159 1    
    72   35   36 2    
    73   35   37 1    
    74   37   38 1    
    75   37   39 1    
    76   37  160 1    
    77   38  161 1    
    78   38  162 1    
    79   38  163 1    
    80   39   40 am   BACKBONE|DICT|INTERRES
    81   39  164 1    
    82   40   41 2    
    83   40   42 1    
    84   42   43 1    
    85   42   44 1    
    86   42  165 1    
    87   43  166 1    
    88   43  167 1    
    89   43  168 1    
    90   44   45 am   BACKBONE|DICT|INTERRES
    91   44  169 1    
    92   45   46 2    
    93   45   47 1    
    94   47   48 1    
    95   47   49 1    
    96   47  170 1    
    97   48  171 1    
    98   48  172 1    
    99   48  173 1    
   100   49   50 am   BACKBONE|DICT|INTERRES
   101   49  174 1    
   102   50   51 2    
   103   50   52 1    
   104   52   53 1    
   105   52   54 1    
   106   52  175 1    
   107   53  176 1    
   108   53  177 1    
   109   53  178 1    
   110   54   55 am   BACKBONE|DICT|INTERRES
   111   54  179 1    
   112   55   56 2    
   113   55   57 1    
   114   57   58 1    
   115   57   59 1    
   116   57  180 1    
   117   58  181 1    
   118   58  182 1    
   119   58  183 1    
   120   59   60 am   BACKBONE|DICT|INTERRES
   121   59  184 1    
   122   60   61 2    
   123   60   62 1    
   124   62   63 1    
   125   62   64 1    
   126   62  185 1    
   127   63  186 1    
   128   63  187 1    
   129   63  188 1    
   130   64   65 am   BACKBONE|DICT|INTERRES
   131   64  189 1    
   132   65   66 2    
   133   67   68 2    
   134   67   69 am   BACKBONE|DICT|INTERRES
   135   69   70 1    
   136   69  190 1    
   137   70   71 1    
   138   70   72 1    
   139   70  191 1    
   140   71  192 1    
   141   71  193 1    
   142   71  194 1    
   143   72   73 2    
   144   72   74 am   BACKBONE|DICT|INTERRES
   145   74   75 1    
   146   74  195 1    
   147   75   76 1    
   148   75   77 1    
   149   75  196 1    
   150   76  197 1    
   151   76  198 1    
   152   76  199 1    
   153   77   78 2    
   154   77   79 am   BACKBONE|DICT|INTERRES
   155   79   80 1    
   156   79  200 1    
   157   80   81 1    
   158   80   82 1    
   159   80  201 1    
   160   81  202 1    
   161   81  203 1    
   162   81  204 1    
   163   82   83 2    
   164   82   84 am   BACKBONE|DICT|INTERRES
   165   84   85 1    
   166   84  205 1    
   167   85   86 1    
   168   85   87 1    
   169   85  206 1    
   170   86  207 1    
   171   86  208 1    
   172   86  209 1    
   173   87   88 2    
   174   87   89 am   BACKBONE|DICT|INTERRES
   175   89   90 1    
   176   89  210 1    
   177   90   91 1    
   178   90   92 1    
   179   90  211 1    
   180   91  212 1    
   181   91  213 1    
   182   91  214 1    
   183   92   93 2    
   184   92   94 am   BACKBONE|DICT|INTERRES
   185   94   95 1    
   186   94  215 1    
   187   95   96 1    
   188   95   97 1    
   189   95  216 1    
   190   96  217 1    
   191   96  218 1    
   192   96  219 1    
   193   97   98 2    
   194   97   99 am   BACKBONE|DICT|INTERRES
   195   99  100 1    
   196   99  220 1    
   197  100  101 1    
   198  100  102 1    
   199  100  221 1    
   200  101  222 1    
   201  101  223 1    
   202  101  224 1    
   203  102  103 2    
   204  102  104 am   BACKBONE|DICT|INTERRES
   205  104  105 1    
   206  104  225 1    
   207  105  106 1    
   208  105  107 1    
   209  105  226 1    
   210  106  227 1    
   211  106  228 1    
   212  106  229 1    
   213  107  108 2    
   214  107  109 am   BACKBONE|DICT|INTERRES
   215  109  110 1    
   216  109  230 1    
   217  110  111 1    
   218  110  112 1    
   219  110  231 1    
   220  111  232 1    
   221  111  233 1    
   222  111  234 1    
   223  112  113 2    
   224  112  114 am   BACKBONE|DICT|INTERRES
   225  114  115 1    
   226  114  235 1    
   227  115  116 1    
   228  115  117 1    
   229  115  236 1    
   230  116  237 1    
   231  116  238 1    
   232  116  239 1    
   233  117  118 2    
   234  117  119 am   BACKBONE|DICT|INTERRES
   235  119  120 1    
   236  119  240 1    
   237  120  121 1    
   238  120  124 1    
   239  120  241 1    
   240  121  122 am   BACKBONE|DICT|INTERRES
   241  121  123 2    
   242  122  242 1    
   243  122  243 1    
   244  124  125 1    
   245  124  244 1    
   246  124  245 1    
   247  125  126 1    
   248  126  246 1    
   249  126  247 1    
@<TRIPOS>SUBSTRUCTURE
     1 UNK         1 GROUP             0       ****    0 ROOT    
