@<TRIPOS>MOLECULE
3R540
247   249    1
SMALL
USER_CHARGES


@<TRIPOS>ATOM
      1 CA         -4.4983  -15.0613  -49.6723 C.3       0 UNK        -0.1800 
      2 C          -3.3094  -15.3762  -48.7768 C.2       0 UNK         0.5000 
      3 O          -3.1285  -16.5269  -48.3873 O.2       0 UNK        -0.5000 
      4 N          -2.5123  -14.3562  -48.4321 N.am      1 UNK        -0.5000 
      5 CA         -1.2668  -14.3867  -47.6413 C.3       1 UNK         0.1400 
      6 C6         -0.1489  -15.2992  -48.2174 C.3       23 UNK        -0.0398 
      7 S7          0.1724  -15.0196  -49.9947 S.3       23 UNK        -0.2404 
      8 C8         -0.1935  -16.6639  -50.6943 C.3       23 UNK        -0.0205 
      9 C9          1.0628  -17.4371  -51.0795 C.ar      23 UNK        -0.0193 
     10 C10         1.1818  -17.9594  -52.3708 C.ar      23 UNK        -0.1150 
     11 C11         2.3147  -18.6834  -52.7571 C.ar      23 UNK        -0.0193 
     12 C12         3.3490  -18.8583  -51.8328 C.ar      23 UNK        -0.1150 
     13 C13         3.2528  -18.3347  -50.5400 C.ar      23 UNK        -0.0193 
     14 C14         2.0985  -17.6426  -50.1613 C.ar      23 UNK        -0.1150 
     15 C15         4.4205  -18.4859  -49.5766 C.3       23 UNK        -0.0205 
     16 S16         4.5095  -20.1524  -48.8532 S.3       23 UNK        -0.2404 
     17 C17         3.3396  -20.0115  -47.4637 C.3       23 UNK        -0.0398 
     18 CA          2.4684  -21.2797  -47.2886 C.3       11 UNK         0.1400 
     19 N           2.0952  -21.4836  -45.8856 N.am      11 UNK        -0.5000 
     20 C           1.5684  -22.6076  -45.3792 C.2       10 UNK         0.5000 
     21 O           1.3947  -23.6382  -46.0290 O.2       10 UNK        -0.5000 
     22 CA          1.1151  -22.5558  -43.9065 C.3       10 UNK         0.1400 
     23 CB          2.2795  -22.8734  -42.9567 C.3       10 UNK        -0.1800 
     24 N           0.5254  -21.2635  -43.5508 N.am      10 UNK        -0.5000 
     25 C          -0.6107  -20.7875  -44.0784 C.2       9 UNK         0.5000 
     26 O          -1.3208  -21.4319  -44.8486 O.2       9 UNK        -0.5000 
     27 CA         -0.9863  -19.3342  -43.7416 C.3       9 UNK         0.1400 
     28 CB         -1.7442  -19.2508  -42.4087 C.3       9 UNK        -0.1800 
     29 N           0.1764  -18.4441  -43.7132 N.am      9 UNK        -0.5000 
     30 C           0.9173  -18.1268  -44.7852 C.2       8 UNK         0.5000 
     31 O           0.6532  -18.4958  -45.9275 O.2       8 UNK        -0.5000 
     32 CA          2.2033  -17.3186  -44.5373 C.3       8 UNK         0.1400 
     33 CB          1.9323  -15.8089  -44.5523 C.3       8 UNK        -0.1800 
     34 N           2.8423  -17.6904  -43.2768 N.am      8 UNK        -0.5000 
     35 C           3.4767  -18.8526  -43.0709 C.2       7 UNK         0.5000 
     36 O           3.6296  -19.7074  -43.9429 O.2       7 UNK        -0.5000 
     37 CA          3.9774  -19.1204  -41.6394 C.3       7 UNK         0.1400 
     38 CB          5.3577  -18.4836  -41.4212 C.3       7 UNK        -0.1800 
     39 N           3.0473  -18.6223  -40.6237 N.am      7 UNK        -0.5000 
     40 C           1.8195  -19.1193  -40.4142 C.2       6 UNK         0.5000 
     41 O           1.3744  -20.0992  -41.0102 O.2       6 UNK        -0.5000 
     42 CA          0.9216  -18.3612  -39.4159 C.3       6 UNK         0.1400 
     43 CB          1.1129  -18.9100  -37.9946 C.3       6 UNK        -0.1800 
     44 N           1.1601  -16.9141  -39.4159 N.am      6 UNK        -0.5000 
     45 C           0.9369  -16.1084  -40.4626 C.2       5 UNK         0.5000 
     46 O           0.4642  -16.4948  -41.5340 O.2       5 UNK        -0.5000 
     47 CA          1.4043  -14.6555  -40.3127 C.3       5 UNK         0.1400 
     48 CB          2.9409  -14.5938  -40.4559 C.3       5 UNK        -0.1800 
     49 N           0.7654  -13.8270  -41.3334 N.am      5 UNK        -0.5000 
     50 C           0.8263  -12.4909  -41.3962 C.2       4 UNK         0.5000 
     51 O           1.3762  -11.7899  -40.5454 O.2       4 UNK        -0.5000 
     52 CA          0.1745  -11.8157  -42.6151 C.3       4 UNK         0.1400 
     53 CB          1.1097  -11.8835  -43.8327 C.3       4 UNK        -0.1800 
     54 N          -1.1286  -12.3832  -42.9625 N.am      4 UNK        -0.5000 
     55 C          -2.2545  -12.1524  -42.2691 C.2       3 UNK         0.5000 
     56 O          -2.2889  -11.4796  -41.2378 O.2       3 UNK        -0.5000 
     57 CA         -3.5739  -12.7339  -42.8202 C.3       3 UNK         0.1400 
     58 CB         -4.3763  -11.6438  -43.5476 C.3       3 UNK        -0.1800 
     59 N          -3.3823  -13.8599  -43.7322 N.am      3 UNK        -0.5000 
     60 C          -2.9797  -15.0795  -43.3574 C.2       2 UNK         0.5000 
     61 O          -2.8067  -15.4056  -42.1833 O.2       2 UNK        -0.5000 
     62 CA         -2.7085  -16.1058  -44.4742 C.3       2 UNK         0.1400 
     63 CB         -3.8768  -17.0976  -44.5880 C.3       2 UNK        -0.1800 
     64 N          -2.4361  -15.5564  -45.8061 N.am      2 UNK        -0.5000 
     65 C          -1.4731  -14.6885  -46.1400 C.2       1 UNK         0.5000 
     66 O          -0.7628  -14.1193  -45.3128 O.2       1 UNK        -0.5000 
     67 C           1.2360  -21.2670  -48.2213 C.2       11 UNK         0.5000 
     68 O           1.2775  -21.8751  -49.2900 O.2       11 UNK        -0.5000 
     69 N           0.1550  -20.6058  -47.7810 N.am      12 UNK        -0.5000 
     70 CA         -1.1434  -20.5496  -48.4570 C.3       12 UNK         0.1400 
     71 CB         -2.0175  -19.4958  -47.7639 C.3       12 UNK        -0.1800 
     72 C          -1.8815  -21.9011  -48.4931 C.2       12 UNK         0.5000 
     73 O          -2.6442  -22.1437  -49.4301 O.2       12 UNK        -0.5000 
     74 N          -1.6172  -22.7480  -47.4894 N.am      13 UNK        -0.5000 
     75 CA         -2.1383  -24.0983  -47.2714 C.3       13 UNK         0.1400 
     76 CB         -1.8222  -25.0143  -48.4739 C.3       13 UNK        -0.1800 
     77 C          -3.6329  -24.1263  -46.8923 C.2       13 UNK         0.5000 
     78 O          -4.2872  -23.0836  -46.7954 O.2       13 UNK        -0.5000 
     79 N          -4.1422  -25.3428  -46.6514 N.am      14 UNK        -0.5000 
     80 CA         -5.5327  -25.6278  -46.2950 C.3       14 UNK         0.1400 
     81 CB         -5.7003  -27.1397  -46.0818 C.3       14 UNK        -0.1800 
     82 C          -6.5125  -25.1188  -47.3660 C.2       14 UNK         0.5000 
     83 O          -6.2911  -25.3571  -48.5553 O.2       14 UNK        -0.5000 
     84 N          -7.5435  -24.3868  -46.9214 N.am      15 UNK        -0.5000 
     85 CA         -8.5660  -23.7148  -47.7360 C.3       15 UNK         0.1400 
     86 CB         -9.4654  -24.7561  -48.4352 C.3       15 UNK        -0.1800 
     87 C          -8.0001  -22.6696  -48.7271 C.2       15 UNK         0.5000 
     88 O          -8.6828  -22.3200  -49.6912 O.2       15 UNK        -0.5000 
     89 N          -6.7655  -22.1994  -48.4796 N.am      16 UNK        -0.5000 
     90 CA         -5.9674  -21.3066  -49.3253 C.3       16 UNK         0.1400 
     91 CB         -6.6194  -19.9101  -49.4116 C.3       16 UNK        -0.1800 
     92 C          -5.6457  -21.9151  -50.7104 C.2       16 UNK         0.5000 
     93 O          -5.5011  -21.1773  -51.6860 O.2       16 UNK        -0.5000 
     94 N          -5.5460  -23.2516  -50.7854 N.am      17 UNK        -0.5000 
     95 CA         -5.3613  -24.0041  -52.0275 C.3       17 UNK         0.1400 
     96 CB         -5.4697  -25.5073  -51.7346 C.3       17 UNK        -0.1800 
     97 C          -4.0472  -23.6934  -52.7658 C.2       17 UNK         0.5000 
     98 O          -4.0574  -23.5765  -53.9919 O.2       17 UNK        -0.5000 
     99 N          -2.9454  -23.5380  -52.0198 N.am      18 UNK        -0.5000 
    100 CA        -1.6398  -23.1979  -52.5865 C.3       18 UNK         0.1400 
    101 CB        -0.5146  -23.6462  -51.6459 C.3       18 UNK        -0.1800 
    102 C         -1.5337  -21.7026  -52.9302 C.2       18 UNK         0.5000 
    103 O         -0.8198  -21.3566  -53.8699 O.2       18 UNK        -0.5000 
    104 N         -2.2816  -20.8491  -52.2136 N.am      19 UNK        -0.5000 
    105 CA        -2.4440  -19.4328  -52.5449 C.3       19 UNK         0.1400 
    106 CB        -3.1091  -18.6777  -51.3879 C.3       19 UNK        -0.1800 
    107 C         -3.2293  -19.2338  -53.8519 C.2       19 UNK         0.5000 
    108 O         -2.8322  -18.4091  -54.6739 O.2       19 UNK        -0.5000 
    109 N         -4.2959  -20.0235  -54.0418 N.am      20 UNK        -0.5000 
    110 CA        -5.0871  -20.0730  -55.2720 C.3       20 UNK         0.1400 
    111 CB        -6.3386  -20.9346  -55.0461 C.3       20 UNK        -0.1800 
    112 C         -4.2685  -20.5843  -56.4724 C.2       20 UNK         0.5000 
    113 O         -4.3170  -19.9788  -57.5445 O.2       20 UNK        -0.5000 
    114 N         -3.4816  -21.6497  -56.2556 N.am      21 UNK        -0.5000 
    115 CA        -2.5538  -22.2205  -57.2394 C.3       21 UNK         0.1400 
    116 CB        -1.9861  -23.5394  -56.6954 C.3       21 UNK        -0.1800 
    117 C         -1.4072  -21.2692  -57.6446 C.2       21 UNK         0.5000 
    118 O         -0.8381  -21.4350  -58.7241 O.2       21 UNK        -0.5000 
    119 N         -1.1045  -20.2856  -56.7883 N.am      22 UNK        -0.5000 
    120 CA        -0.1550  -19.1903  -57.0367 C.3       22 UNK         0.1400 
    121 C         -0.6155  -18.1706  -58.1233 C.2       22 UNK         0.5000 
    122 N         -1.8801  -18.1531  -58.5328 N.am      22 UNK        -0.7600 
    123 O          0.1917  -17.3847  -58.6111 O.2       22 UNK        -0.5000 
    124 C124        0.2220  -18.4703  -55.7101 C.3       23 UNK        -0.0398 
    125 S125        2.0148  -18.1796  -55.5195 S.3       23 UNK        -0.2404 
    126 C126        2.4299  -19.3122  -54.1465 C.3       23 UNK        -0.0205 
    127 H127       -4.5528  -14.0005  -49.9172 H         1 UNK         0.0600 
    128 H128       -4.4236  -15.6225  -50.6034 H         1 UNK         0.0600 
    129 H129       -5.4262  -15.3453  -49.1760 H         1 UNK         0.0600 
    130 H130       -2.7538  -13.4374  -48.7760 H         1 UNK         0.3000 
    131 H131       -0.8908  -13.3632  -47.6850 H         1 UNK         0.0600 
    132 H132        0.7893  -15.1090  -47.6952 H         1 UNK         0.0800 
    133 H133       -0.3771  -16.3497  -48.0327 H         1 UNK         0.0800 
    134 H134       -0.8276  -16.5123  -51.5688 H         1 UNK         0.0800 
    135 H135       -0.7824  -17.2626  -50.0004 H         1 UNK         0.0800 
    136 H136        0.3860  -17.7935  -53.0780 H         1 UNK         0.1150 
    137 H137        4.2369  -19.4061  -52.1162 H         1 UNK         0.1150 
    138 H138        2.0156  -17.2402  -49.1618 H         1 UNK         0.1150 
    139 H139        4.3734  -17.7371  -48.7843 H         1 UNK         0.0800 
    140 H140        5.3499  -18.2925  -50.1144 H         1 UNK         0.0800 
    141 H141        2.7246  -19.1162  -47.5658 H         1 UNK         0.0800 
    142 H142        3.9505  -19.8489  -46.5752 H         1 UNK         0.0800 
    143 H143        3.0713  -22.1473  -47.5665 H         1 UNK         0.0600 
    144 H144        2.2565  -20.7064  -45.2565 H         1 UNK         0.3000 
    145 H145        0.3488  -23.3215  -43.7684 H         1 UNK         0.0600 
    146 H146        1.9497  -22.8800  -41.9176 H         1 UNK         0.0600 
    147 H147        2.6996  -23.8567  -43.1717 H         1 UNK         0.0600 
    148 H148        3.0862  -22.1465  -43.0459 H         1 UNK         0.0600 
    149 H149        1.0130  -20.7083  -42.8545 H         1 UNK         0.3000 
    150 H150       -1.6509  -18.9833  -44.5313 H         1 UNK         0.0600 
    151 H151       -1.1716  -19.6819  -41.5887 H         1 UNK         0.0600 
    152 H152       -2.6874  -19.7950  -42.4669 H         1 UNK         0.0600 
    153 H153       -1.9781  -18.2189  -42.1461 H         1 UNK         0.0600 
    154 H154        0.4219  -18.0347  -42.8180 H         1 UNK         0.3000 
    155 H155        2.8991  -17.5406  -45.3493 H         1 UNK         0.0600 
    156 H156        1.1616  -15.5233  -43.8376 H         1 UNK         0.0600 
    157 H157        1.5947  -15.4906  -45.5371 H         1 UNK         0.0600 
    158 H158        2.8328  -15.2397  -44.3216 H         1 UNK         0.0600 
    159 H159        2.7106  -17.0623  -42.4990 H         1 UNK         0.3000 
    160 H160        4.0738  -20.2012  -41.5157 H         1 UNK         0.0600 
    161 H161        5.3207  -17.3970  -41.5095 H         1 UNK         0.0600 
    162 H162        6.0759  -18.8488  -42.1566 H         1 UNK         0.0600 
    163 H163        5.7525  -18.7273  -40.4347 H         1 UNK         0.0600 
    164 H164        3.3446  -17.8254  -40.0812 H         1 UNK         0.3000 
    165 H165       -0.1162  -18.5295  -39.7096 H         1 UNK         0.0600 
    166 H166        0.4261  -18.4361  -37.2931 H         1 UNK         0.0600 
    167 H167        2.1290  -18.7483  -37.6324 H         1 UNK         0.0600 
    168 H168        0.9195  -19.9832  -37.9617 H         1 UNK         0.0600 
    169 H169        1.5562  -16.5247  -38.5722 H         1 UNK         0.3000 
    170 H170        1.1060  -14.2950  -39.3264 H         1 UNK         0.0600 
    171 H171        3.4355  -15.2485  -39.7376 H         1 UNK         0.0600 
    172 H172        3.2626  -14.8968  -41.4531 H         1 UNK         0.0600 
    173 H173        3.3234  -13.5895  -40.2761 H         1 UNK         0.0600 
    174 H174        0.2542  -14.3459  -42.0368 H         1 UNK         0.3000 
    175 H175        0.0297  -10.7610  -42.3708 H         1 UNK         0.0600 
    176 H176        1.3244  -12.9125  -44.1213 H         1 UNK         0.0600 
    177 H177        0.6739  -11.3784  -44.6948 H         1 UNK         0.0600 
    178 H178        2.0632  -11.3994  -43.6185 H         1 UNK         0.0600 
    179 H179       -1.1614  -12.9677  -43.7930 H         1 UNK         0.3000 
    180 H180       -4.1623  -13.0782  -41.9670 H         1 UNK         0.0600 
    181 H181       -3.8423  -11.2665  -44.4207 H         1 UNK         0.0600 
    182 H182       -4.5701  -10.7956  -42.8896 H         1 UNK         0.0600 
    183 H183       -5.3431  -12.0212  -43.8812 H         1 UNK         0.0600 
    184 H184       -3.4953  -13.6763  -44.7182 H         1 UNK         0.3000 
    185 H185       -1.8138  -16.6478  -44.1735 H         1 UNK         0.0600 
    186 H186       -3.6635  -17.8819  -45.3147 H         1 UNK         0.0600 
    187 H187       -4.0755  -17.5841  -43.6323 H         1 UNK         0.0600 
    188 H188       -4.7946  -16.5974  -44.8993 H         1 UNK         0.0600 
    189 H189       -2.9329  -15.9888  -46.5804 H         1 UNK         0.3000 
    190 H190        0.2387  -20.0599  -46.9282 H         1 UNK         0.3000 
    191 H191       -0.9662  -20.2385  -49.4881 H         1 UNK         0.0600 
    192 H192       -2.9758  -19.3796  -48.2709 H         1 UNK         0.0600 
    193 H193       -1.5276  -18.5230  -47.7559 H         1 UNK         0.0600 
    194 H194       -2.2345  -19.7678  -46.7319 H         1 UNK         0.0600 
    195 H195       -1.0667  -22.3792  -46.7230 H         1 UNK         0.3000 
    196 H196       -1.5918  -24.4798  -46.4077 H         1 UNK         0.0600 
    197 H197       -2.4477  -24.7848  -49.3365 H         1 UNK         0.0600 
    198 H198       -0.7798  -24.9169  -48.7779 H         1 UNK         0.0600 
    199 H199       -1.9843  -26.0637  -48.2278 H         1 UNK         0.0600 
    200 H200       -3.5450  -26.1476  -46.7686 H         1 UNK         0.3000 
    201 H201       -5.7409  -25.1208  -45.3506 H         1 UNK         0.0600 
    202 H202       -5.4725  -27.7012  -46.9889 H         1 UNK         0.0600 
    203 H203       -6.7245  -27.3820  -45.7949 H         1 UNK         0.0600 
    204 H204       -5.0470  -27.5026  -45.2882 H         1 UNK         0.0600 
    205 H205       -7.6210  -24.2304  -45.9257 H         1 UNK         0.3000 
    206 H206       -9.1908  -23.1559  -47.0380 H         1 UNK         0.0600 
    207 H207       -9.8578  -25.4811  -47.7221 H         1 UNK         0.0600 
    208 H208      -10.3218  -24.2786  -48.9126 H         1 UNK         0.0600 
    209 H209       -8.9251  -25.3039  -49.2079 H         1 UNK         0.0600 
    210 H210       -6.2698  -22.5686  -47.6764 H         1 UNK         0.3000 
    211 H211       -5.0123  -21.1859  -48.8143 H         1 UNK         0.0600 
    212 H212       -5.9466  -19.1868  -49.8698 H         1 UNK         0.0600 
    213 H213       -6.8685  -19.5298  -48.4210 H         1 UNK         0.0600 
    214 H214       -7.5331  -19.9243  -50.0060 H         1 UNK         0.0600 
    215 H215       -5.6927  -23.7992  -49.9451 H         1 UNK         0.3000 
    216 H216       -6.1802  -23.7322  -52.6967 H         1 UNK         0.0600 
    217 H217       -4.7165  -25.8319  -51.0153 H         1 UNK         0.0600 
    218 H218       -5.3346  -26.0958  -52.6431 H         1 UNK         0.0600 
    219 H219       -6.4497  -25.7588  -51.3284 H         1 UNK         0.0600 
    220 H220       -3.0230  -23.5299  -51.0094 H         1 UNK         0.3000 
    221 H221       -1.5134  -23.7553  -53.5161 H         1 UNK         0.0600 
    222 H222       -0.5591  -24.7192  -51.4603 H         1 UNK         0.0600 
    223 H223       -0.5614  -23.1385  -50.6861 H         1 UNK         0.0600 
    224 H224        0.4632  -23.4297  -52.0779 H         1 UNK         0.0600 
    225 H225       -2.8352  -21.2178  -51.4503 H         1 UNK         0.3000 
    226 H226       -1.4502  -19.0115  -52.6879 H         1 UNK         0.0600 
    227 H227       -4.1086  -19.0520  -51.1819 H         1 UNK         0.0600 
    228 H228       -2.5259  -18.7587  -50.4749 H         1 UNK         0.0600 
    229 H229       -3.2010  -17.6158  -51.6181 H         1 UNK         0.0600 
    230 H230       -4.6002  -20.6219  -53.2780 H         1 UNK         0.3000 
    231 H231       -5.4126  -19.0560  -55.5001 H         1 UNK         0.0600 
    232 H232       -6.0824  -21.9632  -54.7924 H         1 UNK         0.0600 
    233 H233       -6.9605  -20.9618  -55.9416 H         1 UNK         0.0600 
    234 H234       -6.9497  -20.5352  -54.2364 H         1 UNK         0.0600 
    235 H235       -3.5390  -22.1228  -55.3598 H         1 UNK         0.3000 
    236 H236       -3.1268  -22.4433  -58.1416 H         1 UNK         0.0600 
    237 H237       -2.7815  -24.2346  -56.4263 H         1 UNK         0.0600 
    238 H238       -1.3623  -24.0324  -57.4420 H         1 UNK         0.0600 
    239 H239       -1.3683  -23.3732  -55.8135 H         1 UNK         0.0600 
    240 H240       -1.6088  -20.2461  -55.9135 H         1 UNK         0.3000 
    241 H241        0.7423  -19.6648  -57.4382 H         1 UNK         0.0600 
    242 H242       -2.1618  -17.4916  -59.2389 H         1 UNK         0.3800 
    243 H243       -2.5642  -18.7885  -58.1418 H         1 UNK         0.3800 
    244 H244       -0.1134  -19.0602  -54.8592 H         1 UNK         0.0800 
    245 H245       -0.2983  -17.5164  -55.6037 H         1 UNK         0.0800 
    246 H246        3.4512  -19.6589  -54.3111 H         1 UNK         0.0800 
    247 H247        1.8029  -20.2039  -54.1906 H         1 UNK         0.0800 
@<TRIPOS>BOND
     1    1    2 1    
     2    1  127 1    
     3    1  128 1    
     4    1  129 1    
     5    2    3 2    
     6    2    4 am   BACKBONE|DICT|INTERRES
     7    4    5 1    
     8    4  130 1    
     9    5    6 1    
    10    5   65 1    
    11    5  131 1    
    12    6    7 1    
    13    6  132 1    
    14    6  133 1    
    15    7    8 1    
    16    8    9 1    
    17    8  134 1    
    18    8  135 1    
    19    9   10 ar   
    20    9   14 ar   
    21   10   11 ar   
    22   10  136 1    
    23   11   12 ar   
    24   11  126 1    
    25   12   13 ar   
    26   12  137 1    
    27   13   14 ar   
    28   13   15 1    
    29   14  138 1    
    30   15   16 1    
    31   15  139 1    
    32   15  140 1    
    33   16   17 1    
    34   17   18 1    
    35   17  141 1    
    36   17  142 1    
    37   18   19 1    
    38   18   67 1    
    39   18  143 1    
    40   19   20 am   BACKBONE|DICT|INTERRES
    41   19  144 1    
    42   20   21 2    
    43   20   22 1    
    44   22   23 1    
    45   22   24 1    
    46   22  145 1    
    47   23  146 1    
    48   23  147 1    
    49   23  148 1    
    50   24   25 am   BACKBONE|DICT|INTERRES
    51   24  149 1    
    52   25   26 2    
    53   25   27 1    
    54   27   28 1    
    55   27   29 1    
    56   27  150 1    
    57   28  151 1    
    58   28  152 1    
    59   28  153 1    
    60   29   30 am   BACKBONE|DICT|INTERRES
    61   29  154 1    
    62   30   31 2    
    63   30   32 1    
    64   32   33 1    
    65   32   34 1    
    66   32  155 1    
    67   33  156 1    
    68   33  157 1    
    69   33  158 1    
    70   34   35 am   BACKBONE|DICT|INTERRES
    71   34  159 1    
    72   35   36 2    
    73   35   37 1    
    74   37   38 1    
    75   37   39 1    
    76   37  160 1    
    77   38  161 1    
    78   38  162 1    
    79   38  163 1    
    80   39   40 am   BACKBONE|DICT|INTERRES
    81   39  164 1    
    82   40   41 2    
    83   40   42 1    
    84   42   43 1    
    85   42   44 1    
    86   42  165 1    
    87   43  166 1    
    88   43  167 1    
    89   43  168 1    
    90   44   45 am   BACKBONE|DICT|INTERRES
    91   44  169 1    
    92   45   46 2    
    93   45   47 1    
    94   47   48 1    
    95   47   49 1    
    96   47  170 1    
    97   48  171 1    
    98   48  172 1    
    99   48  173 1    
   100   49   50 am   BACKBONE|DICT|INTERRES
   101   49  174 1    
   102   50   51 2    
   103   50   52 1    
   104   52   53 1    
   105   52   54 1    
   106   52  175 1    
   107   53  176 1    
   108   53  177 1    
   109   53  178 1    
   110   54   55 am   BACKBONE|DICT|INTERRES
   111   54  179 1    
   112   55   56 2    
   113   55   57 1    
   114   57   58 1    
   115   57   59 1    
   116   57  180 1    
   117   58  181 1    
   118   58  182 1    
   119   58  183 1    
   120   59   60 am   BACKBONE|DICT|INTERRES
   121   59  184 1    
   122   60   61 2    
   123   60   62 1    
   124   62   63 1    
   125   62   64 1    
   126   62  185 1    
   127   63  186 1    
   128   63  187 1    
   129   63  188 1    
   130   64   65 am   BACKBONE|DICT|INTERRES
   131   64  189 1    
   132   65   66 2    
   133   67   68 2    
   134   67   69 am   BACKBONE|DICT|INTERRES
   135   69   70 1    
   136   69  190 1    
   137   70   71 1    
   138   70   72 1    
   139   70  191 1    
   140   71  192 1    
   141   71  193 1    
   142   71  194 1    
   143   72   73 2    
   144   72   74 am   BACKBONE|DICT|INTERRES
   145   74   75 1    
   146   74  195 1    
   147   75   76 1    
   148   75   77 1    
   149   75  196 1    
   150   76  197 1    
   151   76  198 1    
   152   76  199 1    
   153   77   78 2    
   154   77   79 am   BACKBONE|DICT|INTERRES
   155   79   80 1    
   156   79  200 1    
   157   80   81 1    
   158   80   82 1    
   159   80  201 1    
   160   81  202 1    
   161   81  203 1    
   162   81  204 1    
   163   82   83 2    
   164   82   84 am   BACKBONE|DICT|INTERRES
   165   84   85 1    
   166   84  205 1    
   167   85   86 1    
   168   85   87 1    
   169   85  206 1    
   170   86  207 1    
   171   86  208 1    
   172   86  209 1    
   173   87   88 2    
   174   87   89 am   BACKBONE|DICT|INTERRES
   175   89   90 1    
   176   89  210 1    
   177   90   91 1    
   178   90   92 1    
   179   90  211 1    
   180   91  212 1    
   181   91  213 1    
   182   91  214 1    
   183   92   93 2    
   184   92   94 am   BACKBONE|DICT|INTERRES
   185   94   95 1    
   186   94  215 1    
   187   95   96 1    
   188   95   97 1    
   189   95  216 1    
   190   96  217 1    
   191   96  218 1    
   192   96  219 1    
   193   97   98 2    
   194   97   99 am   BACKBONE|DICT|INTERRES
   195   99  100 1    
   196   99  220 1    
   197  100  101 1    
   198  100  102 1    
   199  100  221 1    
   200  101  222 1    
   201  101  223 1    
   202  101  224 1    
   203  102  103 2    
   204  102  104 am   BACKBONE|DICT|INTERRES
   205  104  105 1    
   206  104  225 1    
   207  105  106 1    
   208  105  107 1    
   209  105  226 1    
   210  106  227 1    
   211  106  228 1    
   212  106  229 1    
   213  107  108 2    
   214  107  109 am   BACKBONE|DICT|INTERRES
   215  109  110 1    
   216  109  230 1    
   217  110  111 1    
   218  110  112 1    
   219  110  231 1    
   220  111  232 1    
   221  111  233 1    
   222  111  234 1    
   223  112  113 2    
   224  112  114 am   BACKBONE|DICT|INTERRES
   225  114  115 1    
   226  114  235 1    
   227  115  116 1    
   228  115  117 1    
   229  115  236 1    
   230  116  237 1    
   231  116  238 1    
   232  116  239 1    
   233  117  118 2    
   234  117  119 am   BACKBONE|DICT|INTERRES
   235  119  120 1    
   236  119  240 1    
   237  120  121 1    
   238  120  124 1    
   239  120  241 1    
   240  121  122 am   BACKBONE|DICT|INTERRES
   241  121  123 2    
   242  122  242 1    
   243  122  243 1    
   244  124  125 1    
   245  124  244 1    
   246  124  245 1    
   247  125  126 1    
   248  126  246 1    
   249  126  247 1    
@<TRIPOS>SUBSTRUCTURE
     1 UNK         1 GROUP             0       ****    0 ROOT    
