@<TRIPOS>MOLECULE
3R540
247   249    1
SMALL
USER_CHARGES


@<TRIPOS>ATOM
      1 CA         -4.9997  -12.9062  -48.5299 C.3       0 UNK        -0.1800 
      2 C          -3.7654  -13.4528  -47.8272 C.2       0 UNK         0.5000 
      3 O          -3.2549  -12.8254  -46.8995 O.2       0 UNK        -0.5000 
      4 N          -3.2994  -14.6365  -48.2438 N.am      1 UNK        -0.5000 
      5 CA         -2.1038  -15.3160  -47.7235 C.3       1 UNK         0.1400 
      6 C6         -1.6221  -16.4373  -48.6746 C.3       23 UNK        -0.0398 
      7 S7         -1.1364  -15.7986  -50.3113 S.3       23 UNK        -0.2404 
      8 C8         -1.7933  -17.1009  -51.4055 C.3       23 UNK        -0.0205 
      9 C9         -1.1854  -18.4781  -51.1533 C.ar      23 UNK        -0.0193 
     10 C10        -2.0129  -19.6036  -51.1168 C.ar      23 UNK        -0.1150 
     11 C11        -1.4751  -20.8844  -50.9458 C.ar      23 UNK        -0.0193 
     12 C12        -0.0962  -21.0265  -50.7670 C.ar      23 UNK        -0.1150 
     13 C13         0.7446  -19.9097  -50.7872 C.ar      23 UNK        -0.0193 
     14 C14         0.1952  -18.6421  -50.9971 C.ar      23 UNK        -0.1150 
     15 C15         2.2496  -20.0766  -50.6194 C.3       23 UNK        -0.0205 
     16 S16         2.9081  -19.2241  -49.1458 S.3       23 UNK        -0.2404 
     17 C17         2.0924  -20.1306  -47.7923 C.3       23 UNK        -0.0398 
     18 CA          2.8416  -21.4430  -47.4130 C.3       11 UNK         0.1400 
     19 N           3.4665  -21.3605  -46.0879 N.am      11 UNK        -0.5000 
     20 C           4.3835  -22.2199  -45.6215 C.2       10 UNK         0.5000 
     21 O           4.8592  -23.1406  -46.2867 O.2       10 UNK        -0.5000 
     22 CA          4.8203  -22.0415  -44.1549 C.3       10 UNK         0.1400 
     23 CB          5.9258  -20.9817  -44.0343 C.3       10 UNK        -0.1800 
     24 N           3.7037  -21.6973  -43.2714 N.am      10 UNK        -0.5000 
     25 C           2.6929  -22.5274  -42.9737 C.2       9 UNK         0.5000 
     26 O           2.6162  -23.6861  -43.3822 O.2       9 UNK        -0.5000 
     27 CA          1.5595  -21.9660  -42.0971 C.3       9 UNK         0.1400 
     28 CB          1.9237  -22.0762  -40.6091 C.3       9 UNK        -0.1800 
     29 N           1.2243  -20.5790  -42.4166 N.am      9 UNK        -0.5000 
     30 C           0.7011  -20.1649  -43.5796 C.2       8 UNK         0.5000 
     31 O           0.4052  -20.9189  -44.5077 O.2       8 UNK        -0.5000 
     32 CA          0.5316  -18.6453  -43.7524 C.3       8 UNK         0.1400 
     33 CB         -0.7039  -18.1488  -42.9887 C.3       8 UNK        -0.1800 
     34 N           1.7105  -17.8996  -43.3131 N.am      8 UNK        -0.5000 
     35 C           2.9433  -18.0396  -43.8200 C.2       7 UNK         0.5000 
     36 O           3.2224  -18.8005  -44.7456 O.2       7 UNK        -0.5000 
     37 CA          4.0627  -17.2370  -43.1392 C.3       7 UNK         0.1400 
     38 CB          4.1142  -15.7986  -43.6757 C.3       7 UNK        -0.1800 
     39 N           3.8968  -17.2202  -41.6865 N.am      7 UNK        -0.5000 
     40 C           4.1430  -18.2680  -40.8882 C.2       6 UNK         0.5000 
     41 O           4.5799  -19.3463  -41.2917 O.2       6 UNK        -0.5000 
     42 CA          3.8121  -18.0906  -39.3939 C.3       6 UNK         0.1400 
     43 CB          4.9552  -17.3661  -38.6675 C.3       6 UNK        -0.1800 
     44 N           2.5583  -17.3673  -39.1691 N.am      6 UNK        -0.5000 
     45 C           1.3489  -17.8416  -39.4972 C.2       5 UNK         0.5000 
     46 O           1.1669  -18.9488  -40.0022 O.2       5 UNK        -0.5000 
     47 CA          0.1391  -16.9166  -39.2568 C.3       5 UNK         0.1400 
     48 CB         -0.3759  -17.0783  -37.8187 C.3       5 UNK        -0.1800 
     49 N           0.3595  -15.4912  -39.5314 N.am      5 UNK        -0.5000 
     50 C           0.8887  -14.9680  -40.6465 C.2       4 UNK         0.5000 
     51 O           1.3915  -15.6394  -41.5472 O.2       4 UNK        -0.5000 
     52 CA          0.7979  -13.4361  -40.7784 C.3       4 UNK         0.1400 
     53 CB          2.0005  -12.8304  -41.5324 C.3       4 UNK        -0.1800 
     54 N          -0.4825  -13.0449  -41.3824 N.am      4 UNK        -0.5000 
     55 C          -0.9224  -13.3268  -42.6189 C.2       3 UNK         0.5000 
     56 O          -0.2387  -13.8388  -43.5070 O.2       3 UNK        -0.5000 
     57 CA         -2.3841  -12.9459  -42.9236 C.3       3 UNK         0.1400 
     58 CB         -2.4535  -11.5919  -43.6459 C.3       3 UNK        -0.1800 
     59 N          -3.0292  -13.9631  -43.7537 N.am      3 UNK        -0.5000 
     60 C          -3.3375  -15.2001  -43.3350 C.2       2 UNK         0.5000 
     61 O          -3.2304  -15.5660  -42.1638 O.2       2 UNK        -0.5000 
     62 CA         -3.8559  -16.2017  -44.3891 C.3       2 UNK         0.1400 
     63 CB         -5.3800  -16.3660  -44.2810 C.3       2 UNK        -0.1800 
     64 N          -3.5171  -15.8272  -45.7623 N.am      2 UNK        -0.5000 
     65 C          -2.2861  -15.8693  -46.2925 C.2       1 UNK         0.5000 
     66 O          -1.3119  -16.3298  -45.7012 O.2       1 UNK        -0.5000 
     67 C           1.8823  -22.6454  -47.5361 C.2       11 UNK         0.5000 
     68 O           1.7118  -23.1628  -48.6397 O.2       11 UNK        -0.5000 
     69 N           1.2393  -23.0153  -46.4170 N.am      12 UNK        -0.5000 
     70 CA          0.0220  -23.8295  -46.3288 C.3       12 UNK         0.1400 
     71 CB          0.2496  -25.2684  -46.8374 C.3       12 UNK        -0.1800 
     72 C          -1.1439  -23.0948  -47.0233 C.2       12 UNK         0.5000 
     73 O          -1.7936  -23.6408  -47.9165 O.2       12 UNK        -0.5000 
     74 N          -1.3173  -21.8256  -46.6287 N.am      13 UNK        -0.5000 
     75 CA         -2.2180  -20.8470  -47.2293 C.3       13 UNK         0.1400 
     76 CB         -2.0121  -19.4966  -46.5328 C.3       13 UNK        -0.1800 
     77 C          -3.7051  -21.2396  -47.1918 C.2       13 UNK         0.5000 
     78 O          -4.1484  -21.9336  -46.2741 O.2       13 UNK        -0.5000 
     79 N          -4.4484  -20.7243  -48.1754 N.am      14 UNK        -0.5000 
     80 CA         -5.8894  -20.8931  -48.3359 C.3       14 UNK         0.1400 
     81 CB         -6.1680  -22.0143  -49.3533 C.3       14 UNK        -0.1800 
     82 C          -6.5051  -19.5370  -48.7199 C.2       14 UNK         0.5000 
     83 O          -7.2504  -19.4372  -49.6957 O.2       14 UNK        -0.5000 
     84 N          -6.1476  -18.5046  -47.9416 N.am      15 UNK        -0.5000 
     85 CA         -6.5772  -17.1109  -48.0700 C.3       15 UNK         0.1400 
     86 CB         -8.0653  -16.9653  -47.6805 C.3       15 UNK        -0.1800 
     87 C          -6.2166  -16.5146  -49.4462 C.2       15 UNK         0.5000 
     88 O          -5.0296  -16.3719  -49.7405 O.2       15 UNK        -0.5000 
     89 N          -7.2287  -16.1539  -50.2425 N.am      16 UNK        -0.5000 
     90 CA         -7.0904  -15.4875  -51.5377 C.3       16 UNK         0.1400 
     91 CB         -8.3509  -14.6388  -51.7766 C.3       16 UNK        -0.1800 
     92 C          -6.8407  -16.4467  -52.7208 C.2       16 UNK         0.5000 
     93 O          -6.7188  -15.9692  -53.8506 O.2       16 UNK        -0.5000 
     94 N          -6.7940  -17.7645  -52.4727 N.am      17 UNK        -0.5000 
     95 CA         -6.5259  -18.7922  -53.4836 C.3       17 UNK         0.1400 
     96 CB         -6.6768  -20.1778  -52.8413 C.3       17 UNK        -0.1800 
     97 C          -5.1286  -18.6580  -54.1215 C.2       17 UNK         0.5000 
     98 O          -4.1877  -18.2129  -53.4611 O.2       17 UNK        -0.5000 
     99 N          -5.0180  -19.0642  -55.3921 N.am      18 UNK        -0.5000 
    100 CA        -3.7587  -19.1077  -56.1315 C.3       18 UNK         0.1400 
    101 CB        -4.0564  -19.2676  -57.6307 C.3       18 UNK        -0.1800 
    102 C         -2.8827  -20.2668  -55.6319 C.2       18 UNK         0.5000 
    103 O         -3.3588  -21.4037  -55.5884 O.2       18 UNK        -0.5000 
    104 N         -1.6170  -19.9696  -55.3074 N.am      19 UNK        -0.5000 
    105 CA        -0.6437  -20.9069  -54.7334 C.3       19 UNK         0.1400 
    106 CB         0.6772  -20.1662  -54.4789 C.3       19 UNK        -0.1800 
    107 C         -0.3985  -22.1692  -55.5820 C.2       19 UNK         0.5000 
    108 O         -0.1390  -23.2362  -55.0271 O.2       19 UNK        -0.5000 
    109 N         -0.5268  -22.0357  -56.9086 N.am      20 UNK        -0.5000 
    110 CA        -0.4388  -23.1335  -57.8710 C.3       20 UNK         0.1400 
    111 CB        -0.3629  -22.5434  -59.2876 C.3       20 UNK        -0.1800 
    112 C         -1.6011  -24.1437  -57.7709 C.2       20 UNK         0.5000 
    113 O         -1.4267  -25.2926  -58.1794 O.2       20 UNK        -0.5000 
    114 N         -2.7568  -23.7102  -57.2475 N.am      21 UNK        -0.5000 
    115 CA        -3.9388  -24.5465  -57.0580 C.3       21 UNK         0.1400 
    116 CB        -5.2091  -23.7070  -57.2763 C.3       21 UNK        -0.1800 
    117 C         -3.9383  -25.1979  -55.6665 C.2       21 UNK         0.5000 
    118 O         -4.1153  -26.4134  -55.5715 O.2       21 UNK        -0.5000 
    119 N         -3.7514  -24.3872  -54.6161 N.am      22 UNK        -0.5000 
    120 CA        -3.7693  -24.8417  -53.2135 C.3       22 UNK         0.1400 
    121 C         -2.4480  -25.4872  -52.7065 C.2       22 UNK         0.5000 
    122 N         -1.3060  -25.2885  -53.3511 N.am      22 UNK        -0.7600 
    123 O         -2.4650  -26.2082  -51.7128 O.2       22 UNK        -0.5000 
    124 C124       -4.2967  -23.7526  -52.2430 C.3       23 UNK        -0.0398 
    125 S125       -3.4615  -22.1432  -52.4127 S.3       23 UNK        -0.2404 
    126 C126       -2.3738  -22.1162  -50.9568 C.3       23 UNK        -0.0205 
    127 H127       -5.8533  -12.9154  -47.8523 H         1 UNK         0.0600 
    128 H128       -5.2559  -13.4928  -49.4122 H         1 UNK         0.0600 
    129 H129       -4.8257  -11.8782  -48.8478 H         1 UNK         0.0600 
    130 H130       -3.7864  -15.1346  -48.9853 H         1 UNK         0.3000 
    131 H131       -1.3070  -14.5720  -47.6572 H         1 UNK         0.0600 
    132 H132       -0.7552  -16.9581  -48.2631 H         1 UNK         0.0800 
    133 H133       -2.4042  -17.1886  -48.7955 H         1 UNK         0.0800 
    134 H134       -2.8784  -17.1324  -51.2936 H         1 UNK         0.0800 
    135 H135       -1.6017  -16.8225  -52.4423 H         1 UNK         0.0800 
    136 H136       -3.0781  -19.4861  -51.2606 H         1 UNK         0.1150 
    137 H137        0.3251  -22.0117  -50.6239 H         1 UNK         0.1150 
    138 H138        0.8474  -17.7812  -51.0357 H         1 UNK         0.1150 
    139 H139        2.5196  -21.1327  -50.5695 H         1 UNK         0.0800 
    140 H140        2.7456  -19.6778  -51.5053 H         1 UNK         0.0800 
    141 H141        2.0280  -19.4550  -46.9398 H         1 UNK         0.0800 
    142 H142        1.0509  -20.2972  -48.0750 H         1 UNK         0.0800 
    143 H143        3.6434  -21.6222  -48.1328 H         1 UNK         0.0600 
    144 H144        3.1925  -20.5776  -45.5001 H         1 UNK         0.3000 
    145 H145        5.2325  -22.9940  -43.8152 H         1 UNK         0.0600 
    146 H146        6.2772  -20.8937  -43.0061 H         1 UNK         0.0600 
    147 H147        5.5828  -19.9987  -44.3557 H         1 UNK         0.0600 
    148 H148        6.7862  -21.2452  -44.6506 H         1 UNK         0.0600 
    149 H149        3.7092  -20.7680  -42.8702 H         1 UNK         0.3000 
    150 H150        0.6701  -22.5737  -42.2760 H         1 UNK         0.0600 
    151 H151        2.1775  -23.1028  -40.3421 H         1 UNK         0.0600 
    152 H152        1.0891  -21.7730  -39.9767 H         1 UNK         0.0600 
    153 H153        2.7791  -21.4481  -40.3571 H         1 UNK         0.0600 
    154 H154        1.3882  -19.8955  -41.6825 H         1 UNK         0.3000 
    155 H155        0.3897  -18.4360  -44.8139 H         1 UNK         0.0600 
    156 H156       -0.6486  -18.3920  -41.9294 H         1 UNK         0.0600 
    157 H157       -1.6124  -18.6076  -43.3770 H         1 UNK         0.0600 
    158 H158       -0.8163  -17.0680  -43.0790 H         1 UNK         0.0600 
    159 H159        1.5686  -17.2030  -42.5855 H         1 UNK         0.3000 
    160 H160        5.0144  -17.7185  -43.3737 H         1 UNK         0.0600 
    161 H161        3.1788  -15.2663  -43.5018 H         1 UNK         0.0600 
    162 H162        4.2966  -15.7931  -44.7510 H         1 UNK         0.0600 
    163 H163        4.9168  -15.2299  -43.2060 H         1 UNK         0.0600 
    164 H164        3.4344  -16.4092  -41.2973 H         1 UNK         0.3000 
    165 H165        3.7102  -19.0869  -38.9581 H         1 UNK         0.0600 
    166 H166        4.7681  -17.3105  -37.5950 H         1 UNK         0.0600 
    167 H167        5.9002  -17.8935  -38.8046 H         1 UNK         0.0600 
    168 H168        5.0896  -16.3494  -39.0387 H         1 UNK         0.0600 
    169 H169        2.6234  -16.4437  -38.7673 H         1 UNK         0.3000 
    170 H170       -0.6547  -17.2430  -39.9299 H         1 UNK         0.0600 
    171 H171       -0.5720  -18.1265  -37.5884 H         1 UNK         0.0600 
    172 H172        0.3471  -16.7115  -37.0890 H         1 UNK         0.0600 
    173 H173       -1.3096  -16.5358  -37.6695 H         1 UNK         0.0600 
    174 H174       -0.0263  -14.8556  -38.8484 H         1 UNK         0.3000 
    175 H175        0.8084  -13.0160  -39.7714 H         1 UNK         0.0600 
    176 H176        2.0892  -13.2103  -42.5500 H         1 UNK         0.0600 
    177 H177        1.9230  -11.7447  -41.5877 H         1 UNK         0.0600 
    178 H178        2.9341  -13.0650  -41.0202 H         1 UNK         0.0600 
    179 H179       -1.1343  -12.6107  -40.7438 H         1 UNK         0.3000 
    180 H180       -2.9374  -12.8680  -41.9853 H         1 UNK         0.0600 
    181 H181       -3.4856  -11.3032  -43.8459 H         1 UNK         0.0600 
    182 H182       -1.9232  -11.6181  -44.5989 H         1 UNK         0.0600 
    183 H183       -2.0050  -10.8026  -43.0415 H         1 UNK         0.0600 
    184 H184       -3.1075  -13.7507  -44.7396 H         1 UNK         0.3000 
    185 H185       -3.3952  -17.1676  -44.1751 H         1 UNK         0.0600 
    186 H186       -5.7404  -17.1553  -44.9404 H         1 UNK         0.0600 
    187 H187       -5.6725  -16.6386  -43.2660 H         1 UNK         0.0600 
    188 H188       -5.9044  -15.4446  -44.5368 H         1 UNK         0.0600 
    189 H189       -4.2488  -15.4069  -46.3140 H         1 UNK         0.3000 
    190 H190        1.4517  -22.4901  -45.5777 H         1 UNK         0.3000 
    191 H191       -0.2313  -23.8905  -45.2693 H         1 UNK         0.0600 
    192 H192       -0.6237  -25.8896  -46.6364 H         1 UNK         0.0600 
    193 H193        1.1012  -25.7312  -46.3386 H         1 UNK         0.0600 
    194 H194        0.4292  -25.3036  -47.9119 H         1 UNK         0.0600 
    195 H195       -0.7359  -21.4845  -45.8671 H         1 UNK         0.3000 
    196 H196       -1.9179  -20.7377  -48.2705 H         1 UNK         0.0600 
    197 H197       -2.2001  -19.5680  -45.4617 H         1 UNK         0.0600 
    198 H198       -0.9956  -19.1299  -46.6754 H         1 UNK         0.0600 
    199 H199       -2.6890  -18.7416  -46.9314 H         1 UNK         0.0600 
    200 H200       -4.0082  -20.1303  -48.8640 H         1 UNK         0.3000 
    201 H201       -6.3445  -21.1765  -47.3846 H         1 UNK         0.0600 
    202 H202       -7.2386  -22.1460  -49.5134 H         1 UNK         0.0600 
    203 H203       -5.7716  -22.9674  -49.0031 H         1 UNK         0.0600 
    204 H204       -5.7117  -21.8020  -50.3186 H         1 UNK         0.0600 
    205 H205       -5.5055  -18.6945  -47.1863 H         1 UNK         0.3000 
    206 H206       -5.9971  -16.5418  -47.3435 H         1 UNK         0.0600 
    207 H207       -8.2338  -17.3177  -46.6628 H         1 UNK         0.0600 
    208 H208       -8.3817  -15.9217  -47.7110 H         1 UNK         0.0600 
    209 H209       -8.7241  -17.5351  -48.3367 H         1 UNK         0.0600 
    210 H210       -8.1718  -16.3416  -49.9343 H         1 UNK         0.3000 
    211 H211       -6.2346  -14.8105  -51.4949 H         1 UNK         0.0600 
    212 H212       -9.2454  -15.2589  -51.8456 H         1 UNK         0.0600 
    213 H213       -8.2738  -14.0692  -52.7036 H         1 UNK         0.0600 
    214 H214       -8.5009  -13.9201  -50.9705 H         1 UNK         0.0600 
    215 H215       -6.8940  -18.0852  -51.5179 H         1 UNK         0.3000 
    216 H216       -7.2780  -18.6888  -54.2683 H         1 UNK         0.0600 
    217 H217       -7.6714  -20.3162  -52.4171 H         1 UNK         0.0600 
    218 H218       -5.9477  -20.3164  -52.0438 H         1 UNK         0.0600 
    219 H219       -6.5171  -20.9726  -53.5713 H         1 UNK         0.0600 
    220 H220       -5.8224  -19.4598  -55.8557 H         1 UNK         0.3000 
    221 H221       -3.2319  -18.1626  -55.9824 H         1 UNK         0.0600 
    222 H222       -4.6575  -18.4383  -58.0041 H         1 UNK         0.0600 
    223 H223       -3.1336  -19.2872  -58.2118 H         1 UNK         0.0600 
    224 H224       -4.5947  -20.1933  -57.8396 H         1 UNK         0.0600 
    225 H225       -1.3132  -19.0099  -55.3807 H         1 UNK         0.3000 
    226 H226       -1.0361  -21.2360  -53.7713 H         1 UNK         0.0600 
    227 H227        0.5276  -19.3064  -53.8263 H         1 UNK         0.0600 
    228 H228        1.4019  -20.8192  -53.9906 H         1 UNK         0.0600 
    229 H229        1.1254  -19.8100  -55.4071 H         1 UNK         0.0600 
    230 H230       -0.7486  -21.1229  -57.2773 H         1 UNK         0.3000 
    231 H231        0.4871  -23.6792  -57.6773 H         1 UNK         0.0600 
    232 H232       -0.2661  -23.3320  -60.0351 H         1 UNK         0.0600 
    233 H233        0.5007  -21.8870  -59.3967 H         1 UNK         0.0600 
    234 H234       -1.2568  -21.9678  -59.5316 H         1 UNK         0.0600 
    235 H235       -2.8102  -22.7706  -56.8669 H         1 UNK         0.3000 
    236 H236       -3.9459  -25.3452  -57.8029 H         1 UNK         0.0600 
    237 H237       -5.2984  -22.8984  -56.5508 H         1 UNK         0.0600 
    238 H238       -5.2208  -23.2640  -58.2722 H         1 UNK         0.0600 
    239 H239       -6.1025  -24.3258  -57.1851 H         1 UNK         0.0600 
    240 H240       -3.6045  -23.3949  -54.7665 H         1 UNK         0.3000 
    241 H241       -4.5006  -25.6506  -53.1553 H         1 UNK         0.0600 
    242 H242       -1.2305  -24.6354  -54.1227 H         1 UNK         0.3800 
    243 H243       -0.4700  -25.7301  -53.0051 H         1 UNK         0.3800 
    244 H244       -4.2523  -24.0894  -51.2055 H         1 UNK         0.0800 
    245 H245       -5.3548  -23.5820  -52.4452 H         1 UNK         0.0800 
    246 H246       -2.9803  -22.1386  -50.0531 H         1 UNK         0.0800 
    247 H247       -1.7728  -23.0270  -50.9485 H         1 UNK         0.0800 
@<TRIPOS>BOND
     1    1    2 1    
     2    1  127 1    
     3    1  128 1    
     4    1  129 1    
     5    2    3 2    
     6    2    4 am   BACKBONE|DICT|INTERRES
     7    4    5 1    
     8    4  130 1    
     9    5    6 1    
    10    5   65 1    
    11    5  131 1    
    12    6    7 1    
    13    6  132 1    
    14    6  133 1    
    15    7    8 1    
    16    8    9 1    
    17    8  134 1    
    18    8  135 1    
    19    9   10 ar   
    20    9   14 ar   
    21   10   11 ar   
    22   10  136 1    
    23   11   12 ar   
    24   11  126 1    
    25   12   13 ar   
    26   12  137 1    
    27   13   14 ar   
    28   13   15 1    
    29   14  138 1    
    30   15   16 1    
    31   15  139 1    
    32   15  140 1    
    33   16   17 1    
    34   17   18 1    
    35   17  141 1    
    36   17  142 1    
    37   18   19 1    
    38   18   67 1    
    39   18  143 1    
    40   19   20 am   BACKBONE|DICT|INTERRES
    41   19  144 1    
    42   20   21 2    
    43   20   22 1    
    44   22   23 1    
    45   22   24 1    
    46   22  145 1    
    47   23  146 1    
    48   23  147 1    
    49   23  148 1    
    50   24   25 am   BACKBONE|DICT|INTERRES
    51   24  149 1    
    52   25   26 2    
    53   25   27 1    
    54   27   28 1    
    55   27   29 1    
    56   27  150 1    
    57   28  151 1    
    58   28  152 1    
    59   28  153 1    
    60   29   30 am   BACKBONE|DICT|INTERRES
    61   29  154 1    
    62   30   31 2    
    63   30   32 1    
    64   32   33 1    
    65   32   34 1    
    66   32  155 1    
    67   33  156 1    
    68   33  157 1    
    69   33  158 1    
    70   34   35 am   BACKBONE|DICT|INTERRES
    71   34  159 1    
    72   35   36 2    
    73   35   37 1    
    74   37   38 1    
    75   37   39 1    
    76   37  160 1    
    77   38  161 1    
    78   38  162 1    
    79   38  163 1    
    80   39   40 am   BACKBONE|DICT|INTERRES
    81   39  164 1    
    82   40   41 2    
    83   40   42 1    
    84   42   43 1    
    85   42   44 1    
    86   42  165 1    
    87   43  166 1    
    88   43  167 1    
    89   43  168 1    
    90   44   45 am   BACKBONE|DICT|INTERRES
    91   44  169 1    
    92   45   46 2    
    93   45   47 1    
    94   47   48 1    
    95   47   49 1    
    96   47  170 1    
    97   48  171 1    
    98   48  172 1    
    99   48  173 1    
   100   49   50 am   BACKBONE|DICT|INTERRES
   101   49  174 1    
   102   50   51 2    
   103   50   52 1    
   104   52   53 1    
   105   52   54 1    
   106   52  175 1    
   107   53  176 1    
   108   53  177 1    
   109   53  178 1    
   110   54   55 am   BACKBONE|DICT|INTERRES
   111   54  179 1    
   112   55   56 2    
   113   55   57 1    
   114   57   58 1    
   115   57   59 1    
   116   57  180 1    
   117   58  181 1    
   118   58  182 1    
   119   58  183 1    
   120   59   60 am   BACKBONE|DICT|INTERRES
   121   59  184 1    
   122   60   61 2    
   123   60   62 1    
   124   62   63 1    
   125   62   64 1    
   126   62  185 1    
   127   63  186 1    
   128   63  187 1    
   129   63  188 1    
   130   64   65 am   BACKBONE|DICT|INTERRES
   131   64  189 1    
   132   65   66 2    
   133   67   68 2    
   134   67   69 am   BACKBONE|DICT|INTERRES
   135   69   70 1    
   136   69  190 1    
   137   70   71 1    
   138   70   72 1    
   139   70  191 1    
   140   71  192 1    
   141   71  193 1    
   142   71  194 1    
   143   72   73 2    
   144   72   74 am   BACKBONE|DICT|INTERRES
   145   74   75 1    
   146   74  195 1    
   147   75   76 1    
   148   75   77 1    
   149   75  196 1    
   150   76  197 1    
   151   76  198 1    
   152   76  199 1    
   153   77   78 2    
   154   77   79 am   BACKBONE|DICT|INTERRES
   155   79   80 1    
   156   79  200 1    
   157   80   81 1    
   158   80   82 1    
   159   80  201 1    
   160   81  202 1    
   161   81  203 1    
   162   81  204 1    
   163   82   83 2    
   164   82   84 am   BACKBONE|DICT|INTERRES
   165   84   85 1    
   166   84  205 1    
   167   85   86 1    
   168   85   87 1    
   169   85  206 1    
   170   86  207 1    
   171   86  208 1    
   172   86  209 1    
   173   87   88 2    
   174   87   89 am   BACKBONE|DICT|INTERRES
   175   89   90 1    
   176   89  210 1    
   177   90   91 1    
   178   90   92 1    
   179   90  211 1    
   180   91  212 1    
   181   91  213 1    
   182   91  214 1    
   183   92   93 2    
   184   92   94 am   BACKBONE|DICT|INTERRES
   185   94   95 1    
   186   94  215 1    
   187   95   96 1    
   188   95   97 1    
   189   95  216 1    
   190   96  217 1    
   191   96  218 1    
   192   96  219 1    
   193   97   98 2    
   194   97   99 am   BACKBONE|DICT|INTERRES
   195   99  100 1    
   196   99  220 1    
   197  100  101 1    
   198  100  102 1    
   199  100  221 1    
   200  101  222 1    
   201  101  223 1    
   202  101  224 1    
   203  102  103 2    
   204  102  104 am   BACKBONE|DICT|INTERRES
   205  104  105 1    
   206  104  225 1    
   207  105  106 1    
   208  105  107 1    
   209  105  226 1    
   210  106  227 1    
   211  106  228 1    
   212  106  229 1    
   213  107  108 2    
   214  107  109 am   BACKBONE|DICT|INTERRES
   215  109  110 1    
   216  109  230 1    
   217  110  111 1    
   218  110  112 1    
   219  110  231 1    
   220  111  232 1    
   221  111  233 1    
   222  111  234 1    
   223  112  113 2    
   224  112  114 am   BACKBONE|DICT|INTERRES
   225  114  115 1    
   226  114  235 1    
   227  115  116 1    
   228  115  117 1    
   229  115  236 1    
   230  116  237 1    
   231  116  238 1    
   232  116  239 1    
   233  117  118 2    
   234  117  119 am   BACKBONE|DICT|INTERRES
   235  119  120 1    
   236  119  240 1    
   237  120  121 1    
   238  120  124 1    
   239  120  241 1    
   240  121  122 am   BACKBONE|DICT|INTERRES
   241  121  123 2    
   242  122  242 1    
   243  122  243 1    
   244  124  125 1    
   245  124  244 1    
   246  124  245 1    
   247  125  126 1    
   248  126  246 1    
   249  126  247 1    
@<TRIPOS>SUBSTRUCTURE
     1 UNK         1 GROUP             0       ****    0 ROOT    
