@<TRIPOS>MOLECULE
3R540
247   249    1
SMALL
USER_CHARGES


@<TRIPOS>ATOM
      1 CA          5.7096  -16.9916  -50.2643 C.3       0 UNK        -0.1800 
      2 C           5.0094  -15.9790  -49.3702 C.2       0 UNK         0.5000 
      3 O           5.2997  -15.9085  -48.1753 O.2       0 UNK        -0.5000 
      4 N           4.0923  -15.1864  -49.9395 N.am      1 UNK        -0.5000 
      5 CA          3.2923  -14.1768  -49.2399 C.3       1 UNK         0.1400 
      6 C6          1.9291  -13.9470  -49.9439 C.3       23 UNK        -0.0398 
      7 S7          0.6441  -13.2546  -48.8411 S.3       23 UNK        -0.2404 
      8 C8          0.2980  -14.6235  -47.6878 C.3       23 UNK        -0.0205 
      9 C9         -0.1383  -15.8988  -48.3898 C.ar      23 UNK        -0.0193 
     10 C10        -1.4742  -16.0793  -48.7543 C.ar      23 UNK        -0.1150 
     11 C11        -1.8925  -17.2742  -49.3451 C.ar      23 UNK        -0.0193 
     12 C12        -0.9599  -18.2902  -49.5773 C.ar      23 UNK        -0.1150 
     13 C13         0.3870  -18.1095  -49.2474 C.ar      23 UNK        -0.0193 
     14 C14         0.7890  -16.9122  -48.6483 C.ar      23 UNK        -0.1150 
     15 C15         1.4002  -19.2116  -49.5389 C.3       23 UNK        -0.0205 
     16 S16         2.4156  -19.6775  -48.0947 S.3       23 UNK        -0.2404 
     17 C17         1.1471  -20.0591  -46.8399 C.3       23 UNK        -0.0398 
     18 CA          0.8406  -21.5648  -46.6757 C.3       11 UNK         0.1400 
     19 N           0.0694  -21.7937  -45.4556 N.am      11 UNK        -0.5000 
     20 C          -0.2756  -22.9830  -44.9489 C.2       10 UNK         0.5000 
     21 O           0.0776  -24.0627  -45.4215 O.2       10 UNK        -0.5000 
     22 CA         -1.2194  -22.9486  -43.7348 C.3       10 UNK         0.1400 
     23 CB         -0.4368  -22.6924  -42.4378 C.3       10 UNK        -0.1800 
     24 N          -2.2642  -21.9334  -43.8870 N.am      10 UNK        -0.5000 
     25 C          -3.2747  -22.0170  -44.7636 C.2       9 UNK         0.5000 
     26 O          -3.4477  -22.9752  -45.5154 O.2       9 UNK        -0.5000 
     27 CA         -4.2320  -20.8142  -44.8402 C.3       9 UNK         0.1400 
     28 CB         -5.3052  -20.8955  -43.7452 C.3       9 UNK        -0.1800 
     29 N          -3.5393  -19.5279  -44.7540 N.am      9 UNK        -0.5000 
     30 C          -2.7304  -19.0539  -45.7109 C.2       8 UNK         0.5000 
     31 O          -2.4785  -19.6599  -46.7513 O.2       8 UNK        -0.5000 
     32 CA         -2.0607  -17.6939  -45.4446 C.3       8 UNK         0.1400 
     33 CB         -3.0438  -16.5490  -45.7273 C.3       8 UNK        -0.1800 
     34 N          -1.5133  -17.5278  -44.0953 N.am      8 UNK        -0.5000 
     35 C          -0.6615  -18.3601  -43.4777 C.2       7 UNK         0.5000 
     36 O          -0.3341  -19.4555  -43.9324 O.2       7 UNK        -0.5000 
     37 CA         -0.0586  -17.9056  -42.1357 C.3       7 UNK         0.1400 
     38 CB          1.4765  -17.9888  -42.1788 C.3       7 UNK        -0.1800 
     39 N          -0.4368  -16.5338  -41.7942 N.am      7 UNK        -0.5000 
     40 C          -1.2935  -16.1848  -40.8248 C.2       6 UNK         0.5000 
     41 O          -1.8851  -16.9965  -40.1125 O.2       6 UNK        -0.5000 
     42 CA         -1.5328  -14.6765  -40.6017 C.3       6 UNK         0.1400 
     43 CB         -0.7369  -14.1836  -39.3833 C.3       6 UNK        -0.1800 
     44 N          -1.1819  -13.8489  -41.7577 N.am      6 UNK        -0.5000 
     45 C          -1.8649  -13.8167  -42.9095 C.2       5 UNK         0.5000 
     46 O          -2.8950  -14.4599  -43.1078 O.2       5 UNK        -0.5000 
     47 CA         -1.2719  -12.9596  -44.0444 C.3       5 UNK         0.1400 
     48 CB         -1.8645  -11.5434  -44.0194 C.3       5 UNK        -0.1800 
     49 N           0.1914  -12.8660  -44.0204 N.am      5 UNK        -0.5000 
     50 C           1.0443  -13.8926  -44.1302 C.2       4 UNK         0.5000 
     51 O           0.6754  -15.0654  -44.2035 O.2       4 UNK        -0.5000 
     52 CA          2.5500  -13.5501  -44.1628 C.3       4 UNK         0.1400 
     53 CB          3.4169  -14.7459  -44.5988 C.3       4 UNK        -0.1800 
     54 N           2.8640  -12.4160  -45.0347 N.am      4 UNK        -0.5000 
     55 C           2.7099  -11.1166  -44.7457 C.2       3 UNK         0.5000 
     56 O           2.1705  -10.7204  -43.7113 O.2       3 UNK        -0.5000 
     57 CA          3.2104  -10.0979  -45.7963 C.3       3 UNK         0.1400 
     58 CB          3.7914   -8.8226  -45.1516 C.3       3 UNK        -0.1800 
     59 N           4.1447  -10.6697  -46.7770 N.am      3 UNK        -0.5000 
     60 C           5.3679  -11.1770  -46.5589 C.2       2 UNK         0.5000 
     61 O           5.9312  -11.1663  -45.4635 O.2       2 UNK        -0.5000 
     62 CA          6.0244  -11.8818  -47.7660 C.3       2 UNK         0.1400 
     63 CB          7.4288  -12.4263  -47.4497 C.3       2 UNK        -0.1800 
     64 N           5.1886  -12.9902  -48.2343 N.am      2 UNK        -0.5000 
     65 C           4.0943  -12.8785  -48.9968 C.2       1 UNK         0.5000 
     66 O           3.7145  -11.8042  -49.4663 O.2       1 UNK        -0.5000 
     67 C           0.1261  -22.1583  -47.9082 C.2       11 UNK         0.5000 
     68 O           0.7492  -22.8885  -48.6795 O.2       11 UNK        -0.5000 
     69 N          -1.1794  -21.8812  -48.0439 N.am      12 UNK        -0.5000 
     70 CA         -2.0340  -22.4507  -49.0831 C.3       12 UNK         0.1400 
     71 CB         -3.4153  -21.7919  -49.0463 C.3       12 UNK        -0.1800 
     72 C          -2.1597  -23.9784  -48.9771 C.2       12 UNK         0.5000 
     73 O          -2.0324  -24.6550  -49.9945 O.2       12 UNK        -0.5000 
     74 N          -2.3531  -24.5022  -47.7577 N.am      13 UNK        -0.5000 
     75 CA         -2.4208  -25.9394  -47.4830 C.3       13 UNK         0.1400 
     76 CB         -2.7975  -26.1778  -46.0136 C.3       13 UNK        -0.1800 
     77 C          -1.1206  -26.6814  -47.8451 C.2       13 UNK         0.5000 
     78 O          -1.1867  -27.7554  -48.4431 O.2       13 UNK        -0.5000 
     79 N           0.0341  -26.0738  -47.5358 N.am      14 UNK        -0.5000 
     80 CA          1.3617  -26.5615  -47.9194 C.3       14 UNK         0.1400 
     81 CB          2.4377  -25.7339  -47.2007 C.3       14 UNK        -0.1800 
     82 C           1.5910  -26.5528  -49.4447 C.2       14 UNK         0.5000 
     83 O           2.2550  -27.4504  -49.9640 O.2       14 UNK        -0.5000 
     84 N           1.0082  -25.5648  -50.1367 N.am      15 UNK        -0.5000 
     85 CA          0.9934  -25.4494  -51.5973 C.3       15 UNK         0.1400 
     86 CB          0.7686  -23.9742  -51.9722 C.3       15 UNK        -0.1800 
     87 C          -0.0599  -26.3534  -52.2780 C.2       15 UNK         0.5000 
     88 O          -0.0830  -26.4163  -53.5079 O.2       15 UNK        -0.5000 
     89 N          -0.9096  -27.0215  -51.4819 N.am      16 UNK        -0.5000 
     90 CA         -2.0502  -27.8560  -51.8756 C.3       16 UNK         0.1400 
     91 CB         -1.5827  -29.1071  -52.6485 C.3       16 UNK        -0.1800 
     92 C          -3.1558  -27.0610  -52.6056 C.2       16 UNK         0.5000 
     93 O          -3.7758  -27.5734  -53.5400 O.2       16 UNK        -0.5000 
     94 N          -3.3826  -25.8220  -52.1581 N.am      17 UNK        -0.5000 
     95 CA         -4.3859  -24.8900  -52.6611 C.3       17 UNK         0.1400 
     96 CB         -3.6599  -23.6153  -53.1213 C.3       17 UNK        -0.1800 
     97 C          -5.3986  -24.5472  -51.5557 C.2       17 UNK         0.5000 
     98 O          -5.1639  -24.8308  -50.3784 O.2       17 UNK        -0.5000 
     99 N          -6.5040  -23.9071  -51.9534 N.am      18 UNK        -0.5000 
    100 CA        -7.4579  -23.2815  -51.0386 C.3       18 UNK         0.1400 
    101 CB        -8.7857  -23.0559  -51.7778 C.3       18 UNK        -0.1800 
    102 C         -6.9022  -21.9419  -50.5247 C.2       18 UNK         0.5000 
    103 O         -6.1790  -21.2611  -51.2571 O.2       18 UNK        -0.5000 
    104 N         -7.2895  -21.5536  -49.3031 N.am      19 UNK        -0.5000 
    105 CA        -6.8549  -20.3162  -48.6411 C.3       19 UNK         0.1400 
    106 CB        -7.3743  -20.3109  -47.1953 C.3       19 UNK        -0.1800 
    107 C         -7.2717  -19.0242  -49.3734 C.2       19 UNK         0.5000 
    108 O         -6.6012  -18.0040  -49.2251 O.2       19 UNK        -0.5000 
    109 N         -8.3563  -19.0945  -50.1562 N.am      20 UNK        -0.5000 
    110 CA        -8.8294  -18.0096  -51.0160 C.3       20 UNK         0.1400 
    111 CB       -10.3475  -18.1601  -51.2031 C.3       20 UNK        -0.1800 
    112 C         -8.1239  -17.9775  -52.3874 C.2       20 UNK         0.5000 
    113 O         -8.1502  -16.9376  -53.0470 O.2       20 UNK        -0.5000 
    114 N         -7.5368  -19.1067  -52.8086 N.am      21 UNK        -0.5000 
    115 CA        -6.8589  -19.2578  -54.0967 C.3       21 UNK         0.1400 
    116 CB        -7.0605  -20.6916  -54.6143 C.3       21 UNK        -0.1800 
    117 C         -5.3620  -18.9270  -53.9917 C.2       21 UNK         0.5000 
    118 O         -4.8314  -18.2549  -54.8774 O.2       21 UNK        -0.5000 
    119 N         -4.7268  -19.3954  -52.9085 N.am      22 UNK        -0.5000 
    120 CA        -3.2911  -19.2735  -52.6042 C.3       22 UNK         0.1400 
    121 C         -2.3691  -20.1114  -53.5427 C.2       22 UNK         0.5000 
    122 N         -1.0758  -20.1807  -53.2525 N.am      22 UNK        -0.7600 
    123 O         -2.7983  -20.7178  -54.5211 O.2       22 UNK        -0.5000 
    124 C124       -2.8034  -17.7984  -52.4820 C.3       23 UNK        -0.0398 
    125 S125       -3.7827  -16.7706  -51.3323 S.3       23 UNK        -0.2404 
    126 C126       -3.3570  -17.4724  -49.7070 C.3       23 UNK        -0.0205 
    127 H127        5.3691  -16.9242  -51.2977 H         1 UNK         0.0600 
    128 H128        5.5138  -18.0027  -49.9070 H         1 UNK         0.0600 
    129 H129        6.7866  -16.8249  -50.2486 H         1 UNK         0.0600 
    130 H130        3.9283  -15.2622  -50.9335 H         1 UNK         0.3000 
    131 H131        3.0802  -14.5814  -48.2499 H         1 UNK         0.0600 
    132 H132        1.5477  -14.8832  -50.3513 H         1 UNK         0.0800 
    133 H133        2.0394  -13.2915  -50.8094 H         1 UNK         0.0800 
    134 H134       -0.4877  -14.3059  -47.0018 H         1 UNK         0.0800 
    135 H135        1.1689  -14.8165  -47.0624 H         1 UNK         0.0800 
    136 H136       -2.1928  -15.2947  -48.5636 H         1 UNK         0.1150 
    137 H137       -1.2849  -19.2217  -50.0170 H         1 UNK         0.1150 
    138 H138        1.8256  -16.7753  -48.3748 H         1 UNK         0.1150 
    139 H139        0.9022  -20.1047  -49.9189 H         1 UNK         0.0800 
    140 H140        2.0640  -18.8715  -50.3346 H         1 UNK         0.0800 
    141 H141        0.2325  -19.4966  -47.0242 H         1 UNK         0.0800 
    142 H142        1.5348  -19.6686  -45.8980 H         1 UNK         0.0800 
    143 H143        1.7874  -22.0958  -46.5568 H         1 UNK         0.0600 
    144 H144       -0.2352  -20.9588  -44.9588 H         1 UNK         0.3000 
    145 H145       -1.6994  -23.9260  -43.6545 H         1 UNK         0.0600 
    146 H146       -1.0940  -22.7239  -41.5687 H         1 UNK         0.0600 
    147 H147        0.3319  -23.4523  -42.2915 H         1 UNK         0.0600 
    148 H148        0.0601  -21.7218  -42.4476 H         1 UNK         0.0600 
    149 H149       -2.1538  -21.0836  -43.3536 H         1 UNK         0.3000 
    150 H150       -4.7337  -20.8599  -45.8088 H         1 UNK         0.0600 
    151 H151       -5.8470  -21.8407  -43.8003 H         1 UNK         0.0600 
    152 H152       -6.0383  -20.0959  -43.8529 H         1 UNK         0.0600 
    153 H153       -4.8711  -20.8226  -42.7473 H         1 UNK         0.0600 
    154 H154       -3.6836  -18.9767  -43.9209 H         1 UNK         0.3000 
    155 H155       -1.2259  -17.6059  -46.1423 H         1 UNK         0.0600 
    156 H156       -3.8260  -16.4926  -44.9694 H         1 UNK         0.0600 
    157 H157       -3.5350  -16.6766  -46.6911 H         1 UNK         0.0600 
    158 H158       -2.5294  -15.5888  -45.7509 H         1 UNK         0.0600 
    159 H159       -1.7266  -16.6536  -43.6365 H         1 UNK         0.3000 
    160 H160       -0.4134  -18.6036  -41.3751 H         1 UNK         0.0600 
    161 H161        1.8888  -17.3603  -42.9686 H         1 UNK         0.0600 
    162 H162        1.8109  -19.0103  -42.3643 H         1 UNK         0.0600 
    163 H163        1.9157  -17.6718  -41.2329 H         1 UNK         0.0600 
    164 H164       -0.0257  -15.8117  -42.3754 H         1 UNK         0.3000 
    165 H165       -2.5962  -14.5407  -40.3935 H         1 UNK         0.0600 
    166 H166       -0.9509  -13.1363  -39.1691 H         1 UNK         0.0600 
    167 H167       -0.9944  -14.7550  -38.4905 H         1 UNK         0.0600 
    168 H168        0.3382  -14.2832  -39.5379 H         1 UNK         0.0600 
    169 H169       -0.3452  -13.2893  -41.6809 H         1 UNK         0.3000 
    170 H170       -1.5563  -13.4295  -44.9873 H         1 UNK         0.0600 
    171 H171       -2.9542  -11.5742  -44.0596 H         1 UNK         0.0600 
    172 H172       -1.5833  -11.0059  -43.1129 H         1 UNK         0.0600 
    173 H173       -1.5253  -10.9592  -44.8751 H         1 UNK         0.0600 
    174 H174        0.5920  -11.9385  -43.9267 H         1 UNK         0.3000 
    175 H175        2.8355  -13.2892  -43.1418 H         1 UNK         0.0600 
    176 H176        3.1639  -15.0860  -45.6036 H         1 UNK         0.0600 
    177 H177        4.4764  -14.4888  -44.5906 H         1 UNK         0.0600 
    178 H178        3.2884  -15.5921  -43.9234 H         1 UNK         0.0600 
    179 H179        3.2915  -12.6427  -45.9187 H         1 UNK         0.3000 
    180 H180        2.3273   -9.8026  -46.3645 H         1 UNK         0.0600 
    181 H181        4.6320   -9.0456  -44.4942 H         1 UNK         0.0600 
    182 H182        3.0384   -8.3094  -44.5524 H         1 UNK         0.0600 
    183 H183        4.1347   -8.1186  -45.9096 H         1 UNK         0.0600 
    184 H184        3.7809  -10.7617  -47.7210 H         1 UNK         0.3000 
    185 H185        6.1242  -11.1429  -48.5639 H         1 UNK         0.0600 
    186 H186        7.8829  -12.8783  -48.3317 H         1 UNK         0.0600 
    187 H187        8.0929  -11.6275  -47.1169 H         1 UNK         0.0600 
    188 H188        7.4009  -13.1822  -46.6637 H         1 UNK         0.0600 
    189 H189        5.4391  -13.9195  -47.9100 H         1 UNK         0.3000 
    190 H190       -1.6226  -21.2306  -47.4002 H         1 UNK         0.3000 
    191 H191       -1.5784  -22.2197  -50.0483 H         1 UNK         0.0600 
    192 H192       -3.9282  -21.9784  -48.1024 H         1 UNK         0.0600 
    193 H193       -4.0437  -22.1792  -49.8474 H         1 UNK         0.0600 
    194 H194       -3.3400  -20.7154  -49.1812 H         1 UNK         0.0600 
    195 H195       -2.5013  -23.8801  -46.9687 H         1 UNK         0.3000 
    196 H196       -3.2179  -26.3512  -48.1057 H         1 UNK         0.0600 
    197 H197       -2.8732  -27.2443  -45.7982 H         1 UNK         0.0600 
    198 H198       -3.7626  -25.7298  -45.7770 H         1 UNK         0.0600 
    199 H199       -2.0570  -25.7575  -45.3336 H         1 UNK         0.0600 
    200 H200        0.0036  -25.2132  -46.9956 H         1 UNK         0.3000 
    201 H201        1.4469  -27.5957  -47.5797 H         1 UNK         0.0600 
    202 H202        2.3258  -25.7978  -46.1182 H         1 UNK         0.0600 
    203 H203        2.3895  -24.6809  -47.4791 H         1 UNK         0.0600 
    204 H204        3.4374  -26.0938  -47.4468 H         1 UNK         0.0600 
    205 H205        0.5179  -24.8401  -49.6247 H         1 UNK         0.3000 
    206 H206        1.9715  -25.7480  -51.9796 H         1 UNK         0.0600 
    207 H207        1.5184  -23.3304  -51.5119 H         1 UNK         0.0600 
    208 H208        0.8343  -23.8295  -53.0511 H         1 UNK         0.0600 
    209 H209       -0.2131  -23.6219  -51.6562 H         1 UNK         0.0600 
    210 H210       -0.8152  -26.8760  -50.4849 H         1 UNK         0.3000 
    211 H211       -2.5005  -28.2008  -50.9438 H         1 UNK         0.0600 
    212 H212       -1.1802  -28.8533  -53.6293 H         1 UNK         0.0600 
    213 H213       -2.4100  -29.8000  -52.8056 H         1 UNK         0.0600 
    214 H214       -0.8112  -29.6447  -52.0972 H         1 UNK         0.0600 
    215 H215       -2.8633  -25.4896  -51.3455 H         1 UNK         0.3000 
    216 H216       -4.9287  -25.3196  -53.5053 H         1 UNK         0.0600 
    217 H217       -4.3590  -22.8843  -53.5294 H         1 UNK         0.0600 
    218 H218       -2.9311  -23.8356  -53.9014 H         1 UNK         0.0600 
    219 H219       -3.1291  -23.1348  -52.2980 H         1 UNK         0.0600 
    220 H220       -6.6130  -23.6834  -52.9312 H         1 UNK         0.3000 
    221 H221       -7.6348  -23.9463  -50.1904 H         1 UNK         0.0600 
    222 H222       -8.6688  -22.3829  -52.6278 H         1 UNK         0.0600 
    223 H223       -9.1930  -23.9962  -52.1500 H         1 UNK         0.0600 
    224 H224       -9.5344  -22.6200  -51.1153 H         1 UNK         0.0600 
    225 H225       -7.8997  -22.1552  -48.7685 H         1 UNK         0.3000 
    226 H226       -5.7647  -20.3221  -48.6068 H         1 UNK         0.0600 
    227 H227       -7.0367  -21.1921  -46.6497 H         1 UNK         0.0600 
    228 H228       -7.0122  -19.4359  -46.6536 H         1 UNK         0.0600 
    229 H229       -8.4642  -20.2920  -47.1602 H         1 UNK         0.0600 
    230 H230       -8.8647  -19.9651  -50.1974 H         1 UNK         0.3000 
    231 H231       -8.6422  -17.0518  -50.5256 H         1 UNK         0.0600 
    232 H232      -10.8679  -18.1276  -50.2457 H         1 UNK         0.0600 
    233 H233      -10.6022  -19.1008  -51.6929 H         1 UNK         0.0600 
    234 H234      -10.7480  -17.3518  -51.8164 H         1 UNK         0.0600 
    235 H235       -7.4734  -19.8908  -52.1735 H         1 UNK         0.3000 
    236 H236       -7.3037  -18.5778  -54.8265 H         1 UNK         0.0600 
    237 H237       -6.5898  -20.8212  -55.5896 H         1 UNK         0.0600 
    238 H238       -6.6248  -21.4312  -53.9425 H         1 UNK         0.0600 
    239 H239       -8.1191  -20.9236  -54.7306 H         1 UNK         0.0600 
    240 H240       -5.2541  -19.9821  -52.2677 H         1 UNK         0.3000 
    241 H241       -3.1852  -19.7448  -51.6276 H         1 UNK         0.0600 
    242 H242       -0.6704  -19.6973  -52.4691 H         1 UNK         0.3800 
    243 H243       -0.4803  -20.7245  -53.8570 H         1 UNK         0.3800 
    244 H244       -2.8294  -17.3130  -53.4581 H         1 UNK         0.0800 
    245 H245       -1.7603  -17.7519  -52.1708 H         1 UNK         0.0800 
    246 H246       -3.6265  -18.5265  -49.6777 H         1 UNK         0.0800 
    247 H247       -3.9860  -16.9913  -48.9579 H         1 UNK         0.0800 
@<TRIPOS>BOND
     1    1    2 1    
     2    1  127 1    
     3    1  128 1    
     4    1  129 1    
     5    2    3 2    
     6    2    4 am   BACKBONE|DICT|INTERRES
     7    4    5 1    
     8    4  130 1    
     9    5    6 1    
    10    5   65 1    
    11    5  131 1    
    12    6    7 1    
    13    6  132 1    
    14    6  133 1    
    15    7    8 1    
    16    8    9 1    
    17    8  134 1    
    18    8  135 1    
    19    9   10 ar   
    20    9   14 ar   
    21   10   11 ar   
    22   10  136 1    
    23   11   12 ar   
    24   11  126 1    
    25   12   13 ar   
    26   12  137 1    
    27   13   14 ar   
    28   13   15 1    
    29   14  138 1    
    30   15   16 1    
    31   15  139 1    
    32   15  140 1    
    33   16   17 1    
    34   17   18 1    
    35   17  141 1    
    36   17  142 1    
    37   18   19 1    
    38   18   67 1    
    39   18  143 1    
    40   19   20 am   BACKBONE|DICT|INTERRES
    41   19  144 1    
    42   20   21 2    
    43   20   22 1    
    44   22   23 1    
    45   22   24 1    
    46   22  145 1    
    47   23  146 1    
    48   23  147 1    
    49   23  148 1    
    50   24   25 am   BACKBONE|DICT|INTERRES
    51   24  149 1    
    52   25   26 2    
    53   25   27 1    
    54   27   28 1    
    55   27   29 1    
    56   27  150 1    
    57   28  151 1    
    58   28  152 1    
    59   28  153 1    
    60   29   30 am   BACKBONE|DICT|INTERRES
    61   29  154 1    
    62   30   31 2    
    63   30   32 1    
    64   32   33 1    
    65   32   34 1    
    66   32  155 1    
    67   33  156 1    
    68   33  157 1    
    69   33  158 1    
    70   34   35 am   BACKBONE|DICT|INTERRES
    71   34  159 1    
    72   35   36 2    
    73   35   37 1    
    74   37   38 1    
    75   37   39 1    
    76   37  160 1    
    77   38  161 1    
    78   38  162 1    
    79   38  163 1    
    80   39   40 am   BACKBONE|DICT|INTERRES
    81   39  164 1    
    82   40   41 2    
    83   40   42 1    
    84   42   43 1    
    85   42   44 1    
    86   42  165 1    
    87   43  166 1    
    88   43  167 1    
    89   43  168 1    
    90   44   45 am   BACKBONE|DICT|INTERRES
    91   44  169 1    
    92   45   46 2    
    93   45   47 1    
    94   47   48 1    
    95   47   49 1    
    96   47  170 1    
    97   48  171 1    
    98   48  172 1    
    99   48  173 1    
   100   49   50 am   BACKBONE|DICT|INTERRES
   101   49  174 1    
   102   50   51 2    
   103   50   52 1    
   104   52   53 1    
   105   52   54 1    
   106   52  175 1    
   107   53  176 1    
   108   53  177 1    
   109   53  178 1    
   110   54   55 am   BACKBONE|DICT|INTERRES
   111   54  179 1    
   112   55   56 2    
   113   55   57 1    
   114   57   58 1    
   115   57   59 1    
   116   57  180 1    
   117   58  181 1    
   118   58  182 1    
   119   58  183 1    
   120   59   60 am   BACKBONE|DICT|INTERRES
   121   59  184 1    
   122   60   61 2    
   123   60   62 1    
   124   62   63 1    
   125   62   64 1    
   126   62  185 1    
   127   63  186 1    
   128   63  187 1    
   129   63  188 1    
   130   64   65 am   BACKBONE|DICT|INTERRES
   131   64  189 1    
   132   65   66 2    
   133   67   68 2    
   134   67   69 am   BACKBONE|DICT|INTERRES
   135   69   70 1    
   136   69  190 1    
   137   70   71 1    
   138   70   72 1    
   139   70  191 1    
   140   71  192 1    
   141   71  193 1    
   142   71  194 1    
   143   72   73 2    
   144   72   74 am   BACKBONE|DICT|INTERRES
   145   74   75 1    
   146   74  195 1    
   147   75   76 1    
   148   75   77 1    
   149   75  196 1    
   150   76  197 1    
   151   76  198 1    
   152   76  199 1    
   153   77   78 2    
   154   77   79 am   BACKBONE|DICT|INTERRES
   155   79   80 1    
   156   79  200 1    
   157   80   81 1    
   158   80   82 1    
   159   80  201 1    
   160   81  202 1    
   161   81  203 1    
   162   81  204 1    
   163   82   83 2    
   164   82   84 am   BACKBONE|DICT|INTERRES
   165   84   85 1    
   166   84  205 1    
   167   85   86 1    
   168   85   87 1    
   169   85  206 1    
   170   86  207 1    
   171   86  208 1    
   172   86  209 1    
   173   87   88 2    
   174   87   89 am   BACKBONE|DICT|INTERRES
   175   89   90 1    
   176   89  210 1    
   177   90   91 1    
   178   90   92 1    
   179   90  211 1    
   180   91  212 1    
   181   91  213 1    
   182   91  214 1    
   183   92   93 2    
   184   92   94 am   BACKBONE|DICT|INTERRES
   185   94   95 1    
   186   94  215 1    
   187   95   96 1    
   188   95   97 1    
   189   95  216 1    
   190   96  217 1    
   191   96  218 1    
   192   96  219 1    
   193   97   98 2    
   194   97   99 am   BACKBONE|DICT|INTERRES
   195   99  100 1    
   196   99  220 1    
   197  100  101 1    
   198  100  102 1    
   199  100  221 1    
   200  101  222 1    
   201  101  223 1    
   202  101  224 1    
   203  102  103 2    
   204  102  104 am   BACKBONE|DICT|INTERRES
   205  104  105 1    
   206  104  225 1    
   207  105  106 1    
   208  105  107 1    
   209  105  226 1    
   210  106  227 1    
   211  106  228 1    
   212  106  229 1    
   213  107  108 2    
   214  107  109 am   BACKBONE|DICT|INTERRES
   215  109  110 1    
   216  109  230 1    
   217  110  111 1    
   218  110  112 1    
   219  110  231 1    
   220  111  232 1    
   221  111  233 1    
   222  111  234 1    
   223  112  113 2    
   224  112  114 am   BACKBONE|DICT|INTERRES
   225  114  115 1    
   226  114  235 1    
   227  115  116 1    
   228  115  117 1    
   229  115  236 1    
   230  116  237 1    
   231  116  238 1    
   232  116  239 1    
   233  117  118 2    
   234  117  119 am   BACKBONE|DICT|INTERRES
   235  119  120 1    
   236  119  240 1    
   237  120  121 1    
   238  120  124 1    
   239  120  241 1    
   240  121  122 am   BACKBONE|DICT|INTERRES
   241  121  123 2    
   242  122  242 1    
   243  122  243 1    
   244  124  125 1    
   245  124  244 1    
   246  124  245 1    
   247  125  126 1    
   248  126  246 1    
   249  126  247 1    
@<TRIPOS>SUBSTRUCTURE
     1 UNK         1 GROUP             0       ****    0 ROOT    
