@<TRIPOS>MOLECULE
3R540
247   249    1
SMALL
USER_CHARGES


@<TRIPOS>ATOM
      1 CA         -1.7840  -14.7066  -49.4400 C.3       0 UNK        -0.1800 
      2 C          -0.8996  -13.6596  -48.7804 C.2       0 UNK         0.5000 
      3 O          -1.4133  -12.7453  -48.1341 O.2       0 UNK        -0.5000 
      4 N           0.4243  -13.7841  -48.9346 N.am      1 UNK        -0.5000 
      5 CA          1.4289  -12.8805  -48.3640 C.3       1 UNK         0.1400 
      6 C6          2.7569  -12.8859  -49.1617 C.3       23 UNK        -0.0398 
      7 S7          2.5335  -12.3243  -50.8863 S.3       23 UNK        -0.2404 
      8 C8          3.0759  -13.7745  -51.8445 C.3       23 UNK        -0.0205 
      9 C9          2.0801  -14.9215  -51.7676 C.ar      23 UNK        -0.0193 
     10 C10         0.9901  -14.9716  -52.6410 C.ar      23 UNK        -0.1150 
     11 C11         0.0921  -16.0424  -52.5939 C.ar      23 UNK        -0.0193 
     12 C12         0.2711  -17.0523  -51.6430 C.ar      23 UNK        -0.1150 
     13 C13         1.3527  -17.0063  -50.7611 C.ar      23 UNK        -0.0193 
     14 C14         2.2608  -15.9483  -50.8382 C.ar      23 UNK        -0.1150 
     15 C15         1.5640  -18.1031  -49.7341 C.3       23 UNK        -0.0205 
     16 S16         1.1714  -17.5239  -48.0555 S.3       23 UNK        -0.2404 
     17 C17        -0.6042  -17.9194  -47.8936 C.3       23 UNK        -0.0398 
     18 CA         -0.8622  -19.4175  -47.6025 C.3       11 UNK         0.1400 
     19 N          -0.1212  -19.9308  -46.4465 N.am      11 UNK        -0.5000 
     20 C           0.0911  -21.2353  -46.2277 C.2       10 UNK         0.5000 
     21 O          -0.3258  -22.1242  -46.9714 O.2       10 UNK        -0.5000 
     22 CA          0.8640  -21.6169  -44.9533 C.3       10 UNK         0.1400 
     23 CB          2.3708  -21.3792  -45.1337 C.3       10 UNK        -0.1800 
     24 N           0.3854  -20.9102  -43.7645 N.am      10 UNK        -0.5000 
     25 C          -0.8453  -21.0464  -43.2505 C.2       9 UNK         0.5000 
     26 O          -1.7024  -21.7935  -43.7211 O.2       9 UNK        -0.5000 
     27 CA         -1.1947  -20.1817  -42.0262 C.3       9 UNK         0.1400 
     28 CB         -0.6153  -20.7946  -40.7427 C.3       9 UNK        -0.1800 
     29 N          -0.7432  -18.7973  -42.1565 N.am      9 UNK        -0.5000 
     30 C          -1.1611  -17.9438  -43.1028 C.2       8 UNK         0.5000 
     31 O          -1.9966  -18.2212  -43.9620 O.2       8 UNK        -0.5000 
     32 CA         -0.4809  -16.5649  -43.1325 C.3       8 UNK         0.1400 
     33 CB         -0.9975  -15.6787  -41.9886 C.3       8 UNK        -0.1800 
     34 N           0.9765  -16.6621  -43.0585 N.am      8 UNK        -0.5000 
     35 C           1.7462  -17.3515  -43.9130 C.2       7 UNK         0.5000 
     36 O           1.3107  -17.9727  -44.8793 O.2       7 UNK        -0.5000 
     37 CA          3.2462  -17.4175  -43.5880 C.3       7 UNK         0.1400 
     38 CB          3.9594  -16.1174  -43.9924 C.3       7 UNK        -0.1800 
     39 N           3.4728  -17.6973  -42.1700 N.am      7 UNK        -0.5000 
     40 C           3.1723  -18.8608  -41.5736 C.2       6 UNK         0.5000 
     41 O           2.7172  -19.8385  -42.1672 O.2       6 UNK        -0.5000 
     42 CA          3.3768  -18.9261  -40.0494 C.3       6 UNK         0.1400 
     43 CB          4.8462  -19.2169  -39.7098 C.3       6 UNK        -0.1800 
     44 N           2.9560  -17.6962  -39.3768 N.am      6 UNK        -0.5000 
     45 C           1.6862  -17.2732  -39.3001 C.2       5 UNK         0.5000 
     46 O           0.7285  -17.8982  -39.7555 O.2       5 UNK        -0.5000 
     47 CA          1.4563  -15.8953  -38.6490 C.3       5 UNK         0.1400 
     48 CB          1.3304  -16.0324  -37.1245 C.3       5 UNK        -0.1800 
     49 N           2.5026  -14.9164  -38.9667 N.am      5 UNK        -0.5000 
     50 C           2.7911  -14.4966  -40.2048 C.2       4 UNK         0.5000 
     51 O           2.2181  -14.9130  -41.2161 O.2       4 UNK        -0.5000 
     52 CA          3.9278  -13.4762  -40.3496 C.3       4 UNK         0.1400 
     53 CB          5.3004  -14.1438  -40.1544 C.3       4 UNK        -0.1800 
     54 N           3.8404  -12.9208  -41.6921 N.am      4 UNK        -0.5000 
     55 C           4.2656  -11.7243  -42.1038 C.2       3 UNK         0.5000 
     56 O           4.8693  -10.9268  -41.3851 O.2       3 UNK        -0.5000 
     57 CA          3.9615  -11.3555  -43.5708 C.3       3 UNK         0.1400 
     58 CB          5.2147  -11.5388  -44.4405 C.3       3 UNK        -0.1800 
     59 N           2.8698  -12.1403  -44.1568 N.am      3 UNK        -0.5000 
     60 C           1.5710  -12.0124  -43.8594 C.2       2 UNK         0.5000 
     61 O           1.1417  -11.1804  -43.0585 O.2       2 UNK        -0.5000 
     62 CA          0.6013  -12.9672  -44.5932 C.3       2 UNK         0.1400 
     63 CB         -0.8618  -12.7771  -44.1520 C.3       2 UNK        -0.1800 
     64 N           0.6525  -12.8229  -46.0483 N.am      2 UNK        -0.5000 
     65 C           1.6422  -13.1954  -46.8681 C.2       1 UNK         0.5000 
     66 O           2.6673  -13.7627  -46.4845 O.2       1 UNK        -0.5000 
     67 C          -2.3693  -19.7310  -47.5029 C.2       11 UNK         0.5000 
     68 O          -2.9854  -20.0283  -48.5263 O.2       11 UNK        -0.5000 
     69 N          -2.9300  -19.7248  -46.2832 N.am      12 UNK        -0.5000 
     70 CA         -4.2986  -20.1686  -46.0095 C.3       12 UNK         0.1400 
     71 CB         -4.6936  -19.8217  -44.5669 C.3       12 UNK        -0.1800 
     72 C          -4.4929  -21.6705  -46.2818 C.2       12 UNK         0.5000 
     73 O          -5.4948  -22.0458  -46.8879 O.2       12 UNK        -0.5000 
     74 N          -3.5187  -22.4990  -45.8781 N.am      13 UNK        -0.5000 
     75 CA         -3.4896  -23.9354  -46.1611 C.3       13 UNK         0.1400 
     76 CB         -2.3489  -24.6020  -45.3781 C.3       13 UNK        -0.1800 
     77 C          -3.3793  -24.2411  -47.6663 C.2       13 UNK         0.5000 
     78 O          -4.0476  -25.1570  -48.1447 O.2       13 UNK        -0.5000 
     79 N          -2.5802  -23.4453  -48.3926 N.am      14 UNK        -0.5000 
     80 CA         -2.4665  -23.5017  -49.8510 C.3       14 UNK         0.1400 
     81 CB         -1.3035  -22.6147  -50.3222 C.3       14 UNK        -0.1800 
     82 C          -3.7754  -23.1083  -50.5603 C.2       14 UNK         0.5000 
     83 O          -4.1553  -23.7619  -51.5291 O.2       14 UNK        -0.5000 
     84 N          -4.4530  -22.0660  -50.0594 N.am      15 UNK        -0.5000 
     85 CA         -5.7516  -21.6050  -50.5573 C.3       15 UNK         0.1400 
     86 CB         -6.0671  -20.2298  -49.9494 C.3       15 UNK        -0.1800 
     87 C          -6.8979  -22.5977  -50.2788 C.2       15 UNK         0.5000 
     88 O          -7.8320  -22.6829  -51.0757 O.2       15 UNK        -0.5000 
     89 N          -6.8081  -23.3269  -49.1586 N.am      16 UNK        -0.5000 
     90 CA         -7.7585  -24.3621  -48.7476 C.3       16 UNK         0.1400 
     91 CB         -7.6059  -24.6042  -47.2376 C.3       16 UNK        -0.1800 
     92 C          -7.6066  -25.6865  -49.5240 C.2       16 UNK         0.5000 
     93 O          -8.5155  -26.5175  -49.4728 O.2       16 UNK        -0.5000 
     94 N          -6.4725  -25.8745  -50.2116 N.am      17 UNK        -0.5000 
     95 CA         -6.1835  -27.0286  -51.0622 C.3       17 UNK         0.1400 
     96 CB         -4.6574  -27.1345  -51.2420 C.3       17 UNK        -0.1800 
     97 C          -6.9106  -26.9467  -52.4226 C.2       17 UNK         0.5000 
     98 O          -7.6872  -26.0219  -52.6712 O.2       17 UNK        -0.5000 
     99 N          -6.6378  -27.9260  -53.2960 N.am      18 UNK        -0.5000 
    100 CA        -7.1538  -27.9810  -54.6681 C.3       18 UNK         0.1400 
    101 CB        -6.8970  -29.3833  -55.2416 C.3       18 UNK        -0.1800 
    102 C         -6.5533  -26.9008  -55.5931 C.2       18 UNK         0.5000 
    103 O         -7.1790  -26.5429  -56.5923 O.2       18 UNK        -0.5000 
    104 N         -5.3563  -26.4057  -55.2504 N.am      19 UNK        -0.5000 
    105 CA        -4.6862  -25.2938  -55.9206 C.3       19 UNK         0.1400 
    106 CB        -3.2164  -25.2613  -55.4719 C.3       19 UNK        -0.1800 
    107 C         -5.3653  -23.9512  -55.5969 C.2       19 UNK         0.5000 
    108 O         -5.8529  -23.7581  -54.4817 O.2       19 UNK        -0.5000 
    109 N         -5.3300  -23.0156  -56.5523 N.am      20 UNK        -0.5000 
    110 CA        -5.8269  -21.6453  -56.4022 C.3       20 UNK         0.1400 
    111 CB        -6.1886  -21.0964  -57.7944 C.3       20 UNK        -0.1800 
    112 C         -4.8019  -20.7607  -55.6607 C.2       20 UNK         0.5000 
    113 O         -4.3235  -19.7687  -56.2155 O.2       20 UNK        -0.5000 
    114 N         -4.4466  -21.1683  -54.4337 N.am      21 UNK        -0.5000 
    115 CA        -3.3957  -20.6054  -53.5829 C.3       21 UNK         0.1400 
    116 CB        -3.8058  -19.2121  -53.0545 C.3       21 UNK        -0.1800 
    117 C         -2.0320  -20.6406  -54.3026 C.2       21 UNK         0.5000 
    118 O         -1.4968  -21.7293  -54.5161 O.2       21 UNK        -0.5000 
    119 N         -1.5146  -19.4681  -54.6827 N.am      22 UNK        -0.5000 
    120 CA        -0.3058  -19.3019  -55.5012 C.3       22 UNK         0.1400 
    121 C         -0.5371  -19.4300  -57.0371 C.2       22 UNK         0.5000 
    122 N         -1.7637  -19.5628  -57.5283 N.am      22 UNK        -0.7600 
    123 O          0.4233  -19.4282  -57.8027 O.2       22 UNK        -0.5000 
    124 C124        0.4599  -18.0081  -55.1236 C.3       23 UNK        -0.0398 
    125 S125       -0.5118  -16.4621  -55.2869 S.3       23 UNK        -0.2404 
    126 C126       -1.0634  -16.1206  -53.5799 C.3       23 UNK        -0.0205 
    127 H127       -1.1948  -15.4614  -49.9558 H         1 UNK         0.0600 
    128 H128       -2.4445  -14.2363  -50.1681 H         1 UNK         0.0600 
    129 H129       -2.3978  -15.2067  -48.6912 H         1 UNK         0.0600 
    130 H130        0.7913  -14.5576  -49.4723 H         1 UNK         0.3000 
    131 H131        1.0393  -11.8611  -48.4160 H         1 UNK         0.0600 
    132 H132        3.4757  -12.2101  -48.6949 H         1 UNK         0.0800 
    133 H133        3.2210  -13.8715  -49.1387 H         1 UNK         0.0800 
    134 H134        4.0604  -14.0951  -51.4999 H         1 UNK         0.0800 
    135 H135        3.2047  -13.4764  -52.8861 H         1 UNK         0.0800 
    136 H136        0.8509  -14.1878  -53.3726 H         1 UNK         0.1150 
    137 H137       -0.4234  -17.8795  -51.5977 H         1 UNK         0.1150 
    138 H138        3.1082  -15.9284  -50.1675 H         1 UNK         0.1150 
    139 H139        0.9815  -18.9910  -49.9810 H         1 UNK         0.0800 
    140 H140        2.6096  -18.4134  -49.7577 H         1 UNK         0.0800 
    141 H141       -1.1157  -17.6146  -48.8076 H         1 UNK         0.0800 
    142 H142       -1.0098  -17.3025  -47.0896 H         1 UNK         0.0800 
    143 H143       -0.5027  -19.9699  -48.4725 H         1 UNK         0.0600 
    144 H144        0.2909  -19.2421  -45.8195 H         1 UNK         0.3000 
    145 H145        0.7116  -22.6849  -44.7849 H         1 UNK         0.0600 
    146 H146        2.6000  -20.3229  -45.2748 H         1 UNK         0.0600 
    147 H147        2.9311  -21.7297  -44.2668 H         1 UNK         0.0600 
    148 H148        2.7489  -21.9161  -46.0044 H         1 UNK         0.0600 
    149 H149        1.0459  -20.2912  -43.3065 H         1 UNK         0.3000 
    150 H150       -2.2824  -20.1663  -41.9326 H         1 UNK         0.0600 
    151 H151       -0.9459  -21.8265  -40.6178 H         1 UNK         0.0600 
    152 H152       -0.9387  -20.2403  -39.8615 H         1 UNK         0.0600 
    153 H153        0.4751  -20.7965  -40.7536 H         1 UNK         0.0600 
    154 H154       -0.0707  -18.4732  -41.4676 H         1 UNK         0.3000 
    155 H155       -0.7271  -16.0846  -44.0816 H         1 UNK         0.0600 
    156 H156       -0.8996  -16.1674  -41.0196 H         1 UNK         0.0600 
    157 H157       -0.4512  -14.7386  -41.9336 H         1 UNK         0.0600 
    158 H158       -2.0523  -15.4407  -42.1290 H         1 UNK         0.0600 
    159 H159        1.4260  -16.1632  -42.2942 H         1 UNK         0.3000 
    160 H160        3.6800  -18.2347  -44.1681 H         1 UNK         0.0600 
    161 H161        3.8496  -15.9352  -45.0623 H         1 UNK         0.0600 
    162 H162        5.0271  -16.1683  -43.7793 H         1 UNK         0.0600 
    163 H163        3.5544  -15.2495  -43.4744 H         1 UNK         0.0600 
    164 H164        3.7915  -16.9294  -41.5995 H         1 UNK         0.3000 
    165 H165        2.7684  -19.7487  -39.6669 H         1 UNK         0.0600 
    166 H166        4.9851  -19.3411  -38.6357 H         1 UNK         0.0600 
    167 H167        5.1818  -20.1379  -40.1884 H         1 UNK         0.0600 
    168 H168        5.5054  -18.4144  -40.0433 H         1 UNK         0.0600 
    169 H169        3.6810  -17.1212  -38.9741 H         1 UNK         0.3000 
    170 H170        0.5116  -15.5058  -39.0336 H         1 UNK         0.0600 
    171 H171        0.5450  -16.7418  -36.8601 H         1 UNK         0.0600 
    172 H172        2.2581  -16.3861  -36.6729 H         1 UNK         0.0600 
    173 H173        1.0735  -15.0790  -36.6626 H         1 UNK         0.0600 
    174 H174        3.0176  -14.5367  -38.1853 H         1 UNK         0.3000 
    175 H175        3.7836  -12.6842  -39.6121 H         1 UNK         0.0600 
    176 H176        5.4635  -14.9459  -40.8754 H         1 UNK         0.0600 
    177 H177        6.1093  -13.4223  -40.2714 H         1 UNK         0.0600 
    178 H178        5.3935  -14.5725  -39.1560 H         1 UNK         0.0600 
    179 H179        3.2907  -13.4856  -42.3261 H         1 UNK         0.3000 
    180 H180        3.6778  -10.3013  -43.5933 H         1 UNK         0.0600 
    181 H181        5.5354  -12.5812  -44.4672 H         1 UNK         0.0600 
    182 H182        6.0477  -10.9478  -44.0575 H         1 UNK         0.0600 
    183 H183        5.0335  -11.2174  -45.4664 H         1 UNK         0.0600 
    184 H184        3.1207  -12.8169  -44.8728 H         1 UNK         0.3000 
    185 H185        0.9018  -13.9848  -44.3361 H         1 UNK         0.0600 
    186 H186       -1.5030  -13.5530  -44.5708 H         1 UNK         0.0600 
    187 H187       -0.9634  -12.8215  -43.0678 H         1 UNK         0.0600 
    188 H188       -1.2535  -11.8108  -44.4720 H         1 UNK         0.0600 
    189 H189       -0.1695  -12.4176  -46.4825 H         1 UNK         0.3000 
    190 H190       -2.3842  -19.4196  -45.4826 H         1 UNK         0.3000 
    191 H191       -4.9662  -19.6229  -46.6795 H         1 UNK         0.0600 
    192 H192       -4.0330  -20.2971  -43.8418 H         1 UNK         0.0600 
    193 H193       -5.7107  -20.1507  -44.3504 H         1 UNK         0.0600 
    194 H194       -4.6586  -18.7455  -44.3977 H         1 UNK         0.0600 
    195 H195       -2.7491  -22.1276  -45.3284 H         1 UNK         0.3000 
    196 H196       -4.4310  -24.3604  -45.8074 H         1 UNK         0.0600 
    197 H197       -2.3253  -25.6767  -45.5624 H         1 UNK         0.0600 
    198 H198       -2.4730  -24.4590  -44.3046 H         1 UNK         0.0600 
    199 H199       -1.3756  -24.1995  -45.6580 H         1 UNK         0.0600 
    200 H200       -2.0084  -22.7595  -47.9102 H         1 UNK         0.3000 
    201 H201       -2.2371  -24.5334  -50.1264 H         1 UNK         0.0600 
    202 H202       -0.3673  -22.9038  -49.8443 H         1 UNK         0.0600 
    203 H203       -1.4803  -21.5624  -50.1024 H         1 UNK         0.0600 
    204 H204       -1.1606  -22.7024  -51.4001 H         1 UNK         0.0600 
    205 H205       -4.0427  -21.5345  -49.2977 H         1 UNK         0.3000 
    206 H206       -5.6754  -21.4893  -51.6401 H         1 UNK         0.0600 
    207 H207       -5.2752  -19.5109  -50.1597 H         1 UNK         0.0600 
    208 H208       -6.9931  -19.8255  -50.3598 H         1 UNK         0.0600 
    209 H209       -6.1846  -20.2861  -48.8672 H         1 UNK         0.0600 
    210 H210       -6.0544  -23.1226  -48.5108 H         1 UNK         0.3000 
    211 H211       -8.7698  -23.9929  -48.9301 H         1 UNK         0.0600 
    212 H212       -6.6088  -24.9683  -46.9892 H         1 UNK         0.0600 
    213 H213       -8.3239  -25.3452  -46.8840 H         1 UNK         0.0600 
    214 H214       -7.7796  -23.6890  -46.6714 H         1 UNK         0.0600 
    215 H215       -5.7891  -25.1297  -50.2178 H         1 UNK         0.3000 
    216 H216       -6.5313  -27.9288  -50.5514 H         1 UNK         0.0600 
    217 H217       -4.3748  -28.0856  -51.6939 H         1 UNK         0.0600 
    218 H218       -4.1403  -27.0723  -50.2840 H         1 UNK         0.0600 
    219 H219       -4.2703  -26.3415  -51.8818 H         1 UNK         0.0600 
    220 H220       -6.0077  -28.6667  -53.0238 H         1 UNK         0.3000 
    221 H221       -8.2333  -27.8196  -54.6340 H         1 UNK         0.0600 
    222 H222       -5.8313  -29.6109  -55.2873 H         1 UNK         0.0600 
    223 H223       -7.3802  -30.1517  -54.6377 H         1 UNK         0.0600 
    224 H224       -7.2947  -29.4701  -56.2537 H         1 UNK         0.0600 
    225 H225       -4.9387  -26.7291  -54.3916 H         1 UNK         0.3000 
    226 H226       -4.7224  -25.4621  -56.9990 H         1 UNK         0.0600 
    227 H227       -3.1282  -25.1009  -54.3960 H         1 UNK         0.0600 
    228 H228       -2.7069  -26.1935  -55.7164 H         1 UNK         0.0600 
    229 H229       -2.6732  -24.4545  -55.9662 H         1 UNK         0.0600 
    230 H230       -4.8750  -23.2284  -57.4285 H         1 UNK         0.3000 
    231 H231       -6.7403  -21.6562  -55.8036 H         1 UNK         0.0600 
    232 H232       -6.5919  -20.0855  -57.7233 H         1 UNK         0.0600 
    233 H233       -6.9473  -21.7135  -58.2761 H         1 UNK         0.0600 
    234 H234       -5.3194  -21.0586  -58.4523 H         1 UNK         0.0600 
    235 H235       -4.8633  -22.0344  -54.1043 H         1 UNK         0.3000 
    236 H236       -3.3013  -21.2680  -52.7239 H         1 UNK         0.0600 
    237 H237       -3.9175  -18.4772  -53.8522 H         1 UNK         0.0600 
    238 H238       -3.0699  -18.8315  -52.3451 H         1 UNK         0.0600 
    239 H239       -4.7587  -19.2627  -52.5295 H         1 UNK         0.0600 
    240 H240       -2.0512  -18.6287  -54.5251 H         1 UNK         0.3000 
    241 H241        0.3664  -20.1273  -55.2592 H         1 UNK         0.0600 
    242 H242       -1.8850  -19.6471  -58.5246 H         1 UNK         0.3800 
    243 H243       -2.5829  -19.5689  -56.9262 H         1 UNK         0.3800 
    244 H244        0.8383  -18.1058  -54.1078 H         1 UNK         0.0800 
    245 H245        1.3545  -17.9054  -55.7401 H         1 UNK         0.0800 
    246 H246       -1.6048  -15.1736  -53.5688 H         1 UNK         0.0800 
    247 H247       -1.7811  -16.8808  -53.2723 H         1 UNK         0.0800 
@<TRIPOS>BOND
     1    1    2 1    
     2    1  127 1    
     3    1  128 1    
     4    1  129 1    
     5    2    3 2    
     6    2    4 am   BACKBONE|DICT|INTERRES
     7    4    5 1    
     8    4  130 1    
     9    5    6 1    
    10    5   65 1    
    11    5  131 1    
    12    6    7 1    
    13    6  132 1    
    14    6  133 1    
    15    7    8 1    
    16    8    9 1    
    17    8  134 1    
    18    8  135 1    
    19    9   10 ar   
    20    9   14 ar   
    21   10   11 ar   
    22   10  136 1    
    23   11   12 ar   
    24   11  126 1    
    25   12   13 ar   
    26   12  137 1    
    27   13   14 ar   
    28   13   15 1    
    29   14  138 1    
    30   15   16 1    
    31   15  139 1    
    32   15  140 1    
    33   16   17 1    
    34   17   18 1    
    35   17  141 1    
    36   17  142 1    
    37   18   19 1    
    38   18   67 1    
    39   18  143 1    
    40   19   20 am   BACKBONE|DICT|INTERRES
    41   19  144 1    
    42   20   21 2    
    43   20   22 1    
    44   22   23 1    
    45   22   24 1    
    46   22  145 1    
    47   23  146 1    
    48   23  147 1    
    49   23  148 1    
    50   24   25 am   BACKBONE|DICT|INTERRES
    51   24  149 1    
    52   25   26 2    
    53   25   27 1    
    54   27   28 1    
    55   27   29 1    
    56   27  150 1    
    57   28  151 1    
    58   28  152 1    
    59   28  153 1    
    60   29   30 am   BACKBONE|DICT|INTERRES
    61   29  154 1    
    62   30   31 2    
    63   30   32 1    
    64   32   33 1    
    65   32   34 1    
    66   32  155 1    
    67   33  156 1    
    68   33  157 1    
    69   33  158 1    
    70   34   35 am   BACKBONE|DICT|INTERRES
    71   34  159 1    
    72   35   36 2    
    73   35   37 1    
    74   37   38 1    
    75   37   39 1    
    76   37  160 1    
    77   38  161 1    
    78   38  162 1    
    79   38  163 1    
    80   39   40 am   BACKBONE|DICT|INTERRES
    81   39  164 1    
    82   40   41 2    
    83   40   42 1    
    84   42   43 1    
    85   42   44 1    
    86   42  165 1    
    87   43  166 1    
    88   43  167 1    
    89   43  168 1    
    90   44   45 am   BACKBONE|DICT|INTERRES
    91   44  169 1    
    92   45   46 2    
    93   45   47 1    
    94   47   48 1    
    95   47   49 1    
    96   47  170 1    
    97   48  171 1    
    98   48  172 1    
    99   48  173 1    
   100   49   50 am   BACKBONE|DICT|INTERRES
   101   49  174 1    
   102   50   51 2    
   103   50   52 1    
   104   52   53 1    
   105   52   54 1    
   106   52  175 1    
   107   53  176 1    
   108   53  177 1    
   109   53  178 1    
   110   54   55 am   BACKBONE|DICT|INTERRES
   111   54  179 1    
   112   55   56 2    
   113   55   57 1    
   114   57   58 1    
   115   57   59 1    
   116   57  180 1    
   117   58  181 1    
   118   58  182 1    
   119   58  183 1    
   120   59   60 am   BACKBONE|DICT|INTERRES
   121   59  184 1    
   122   60   61 2    
   123   60   62 1    
   124   62   63 1    
   125   62   64 1    
   126   62  185 1    
   127   63  186 1    
   128   63  187 1    
   129   63  188 1    
   130   64   65 am   BACKBONE|DICT|INTERRES
   131   64  189 1    
   132   65   66 2    
   133   67   68 2    
   134   67   69 am   BACKBONE|DICT|INTERRES
   135   69   70 1    
   136   69  190 1    
   137   70   71 1    
   138   70   72 1    
   139   70  191 1    
   140   71  192 1    
   141   71  193 1    
   142   71  194 1    
   143   72   73 2    
   144   72   74 am   BACKBONE|DICT|INTERRES
   145   74   75 1    
   146   74  195 1    
   147   75   76 1    
   148   75   77 1    
   149   75  196 1    
   150   76  197 1    
   151   76  198 1    
   152   76  199 1    
   153   77   78 2    
   154   77   79 am   BACKBONE|DICT|INTERRES
   155   79   80 1    
   156   79  200 1    
   157   80   81 1    
   158   80   82 1    
   159   80  201 1    
   160   81  202 1    
   161   81  203 1    
   162   81  204 1    
   163   82   83 2    
   164   82   84 am   BACKBONE|DICT|INTERRES
   165   84   85 1    
   166   84  205 1    
   167   85   86 1    
   168   85   87 1    
   169   85  206 1    
   170   86  207 1    
   171   86  208 1    
   172   86  209 1    
   173   87   88 2    
   174   87   89 am   BACKBONE|DICT|INTERRES
   175   89   90 1    
   176   89  210 1    
   177   90   91 1    
   178   90   92 1    
   179   90  211 1    
   180   91  212 1    
   181   91  213 1    
   182   91  214 1    
   183   92   93 2    
   184   92   94 am   BACKBONE|DICT|INTERRES
   185   94   95 1    
   186   94  215 1    
   187   95   96 1    
   188   95   97 1    
   189   95  216 1    
   190   96  217 1    
   191   96  218 1    
   192   96  219 1    
   193   97   98 2    
   194   97   99 am   BACKBONE|DICT|INTERRES
   195   99  100 1    
   196   99  220 1    
   197  100  101 1    
   198  100  102 1    
   199  100  221 1    
   200  101  222 1    
   201  101  223 1    
   202  101  224 1    
   203  102  103 2    
   204  102  104 am   BACKBONE|DICT|INTERRES
   205  104  105 1    
   206  104  225 1    
   207  105  106 1    
   208  105  107 1    
   209  105  226 1    
   210  106  227 1    
   211  106  228 1    
   212  106  229 1    
   213  107  108 2    
   214  107  109 am   BACKBONE|DICT|INTERRES
   215  109  110 1    
   216  109  230 1    
   217  110  111 1    
   218  110  112 1    
   219  110  231 1    
   220  111  232 1    
   221  111  233 1    
   222  111  234 1    
   223  112  113 2    
   224  112  114 am   BACKBONE|DICT|INTERRES
   225  114  115 1    
   226  114  235 1    
   227  115  116 1    
   228  115  117 1    
   229  115  236 1    
   230  116  237 1    
   231  116  238 1    
   232  116  239 1    
   233  117  118 2    
   234  117  119 am   BACKBONE|DICT|INTERRES
   235  119  120 1    
   236  119  240 1    
   237  120  121 1    
   238  120  124 1    
   239  120  241 1    
   240  121  122 am   BACKBONE|DICT|INTERRES
   241  121  123 2    
   242  122  242 1    
   243  122  243 1    
   244  124  125 1    
   245  124  244 1    
   246  124  245 1    
   247  125  126 1    
   248  126  246 1    
   249  126  247 1    
@<TRIPOS>SUBSTRUCTURE
     1 UNK         1 GROUP             0       ****    0 ROOT    
