@<TRIPOS>MOLECULE
3R540
247   249    1
SMALL
USER_CHARGES


@<TRIPOS>ATOM
      1 CA          6.6014  -15.2238  -44.6286 C.3       0 UNK        -0.1800 
      2 C           5.6180  -14.0803  -44.4329 C.2       0 UNK         0.5000 
      3 O           5.4360  -13.6139  -43.3087 O.2       0 UNK        -0.5000 
      4 N           4.9960  -13.6127  -45.5237 N.am      1 UNK        -0.5000 
      5 CA          3.9474  -12.5803  -45.5292 C.3       1 UNK         0.1400 
      6 C6          3.2798  -12.4271  -46.9146 C.3       23 UNK        -0.0398 
      7 S7          2.4346  -13.9567  -47.4361 S.3       23 UNK        -0.2404 
      8 C8          3.5131  -14.5103  -48.7892 C.3       23 UNK        -0.0205 
      9 C9          2.9764  -15.7686  -49.4517 C.ar      23 UNK        -0.0193 
     10 C10         1.9435  -15.6753  -50.3889 C.ar      23 UNK        -0.1150 
     11 C11         1.4715  -16.8187  -51.0377 C.ar      23 UNK        -0.0193 
     12 C12         2.0434  -18.0598  -50.7501 C.ar      23 UNK        -0.1150 
     13 C13         3.0667  -18.1695  -49.8053 C.ar      23 UNK        -0.0193 
     14 C14         3.5272  -17.0200  -49.1546 C.ar      23 UNK        -0.1150 
     15 C15         3.6895  -19.5269  -49.5127 C.3       23 UNK        -0.0205 
     16 S16         2.8727  -20.3773  -48.1268 S.3       23 UNK        -0.2404 
     17 C17         1.2297  -20.7416  -48.8330 C.3       23 UNK        -0.0398 
     18 CA          0.4556  -21.7832  -47.9926 C.3       11 UNK         0.1400 
     19 N           0.0606  -21.2680  -46.6769 N.am      11 UNK        -0.5000 
     20 C          -0.4439  -22.0184  -45.6874 C.2       10 UNK         0.5000 
     21 O          -0.5834  -23.2376  -45.7645 O.2       10 UNK        -0.5000 
     22 CA         -0.9268  -21.2880  -44.4206 C.3       10 UNK         0.1400 
     23 CB          0.2474  -20.9597  -43.4872 C.3       10 UNK        -0.1800 
     24 N          -1.6794  -20.0717  -44.7279 N.am      10 UNK        -0.5000 
     25 C          -2.8458  -20.0504  -45.3886 C.2       9 UNK         0.5000 
     26 O          -3.4399  -21.0627  -45.7562 O.2       9 UNK        -0.5000 
     27 CA         -3.4221  -18.6696  -45.7461 C.3       9 UNK         0.1400 
     28 CB         -4.2354  -18.0881  -44.5800 C.3       9 UNK        -0.1800 
     29 N          -2.3816  -17.7236  -46.1465 N.am      9 UNK        -0.5000 
     30 C          -1.6452  -17.8362  -47.2613 C.2       8 UNK         0.5000 
     31 O          -1.7918  -18.7362  -48.0893 O.2       8 UNK        -0.5000 
     32 CA         -0.5256  -16.7941  -47.4418 C.3       8 UNK         0.1400 
     33 CB         -1.1050  -15.4628  -47.9448 C.3       8 UNK        -0.1800 
     34 N           0.2209  -16.5645  -46.2017 N.am      8 UNK        -0.5000 
     35 C           0.9598  -17.5012  -45.5872 C.2       7 UNK         0.5000 
     36 O           1.0975  -18.6430  -46.0183 O.2       7 UNK        -0.5000 
     37 CA          1.5929  -17.1379  -44.2288 C.3       7 UNK         0.1400 
     38 CB          2.9629  -16.4785  -44.4302 C.3       7 UNK        -0.1800 
     39 N           0.7503  -16.2677  -43.4081 N.am      7 UNK        -0.5000 
     40 C          -0.5025  -16.5565  -43.0224 C.2       6 UNK         0.5000 
     41 O          -1.0371  -17.6456  -43.2294 O.2       6 UNK        -0.5000 
     42 CA         -1.3210  -15.4430  -42.3350 C.3       6 UNK         0.1400 
     43 CB         -1.4127  -15.7029  -40.8241 C.3       6 UNK        -0.1800 
     44 N          -0.7992  -14.0916  -42.5500 N.am      6 UNK        -0.5000 
     45 C          -0.6184  -13.4894  -43.7346 C.2       5 UNK         0.5000 
     46 O          -0.9684  -13.9796  -44.8084 O.2       5 UNK        -0.5000 
     47 CA          0.1358  -12.1433  -43.7230 C.3       5 UNK         0.1400 
     48 CB         -0.8448  -10.9766  -43.9110 C.3       5 UNK        -0.1800 
     49 N           0.9405  -11.9016  -42.5168 N.am      5 UNK        -0.5000 
     50 C           1.9582  -12.6634  -42.0919 C.2       4 UNK         0.5000 
     51 O           2.3022  -13.7126  -42.6379 O.2       4 UNK        -0.5000 
     52 CA          2.6790  -12.2058  -40.8208 C.3       4 UNK         0.1400 
     53 CB          2.4421  -13.1986  -39.6679 C.3       4 UNK        -0.1800 
     54 N           4.1045  -12.0818  -41.1037 N.am      4 UNK        -0.5000 
     55 C           4.9552  -11.3200  -40.4042 C.2       3 UNK         0.5000 
     56 O           4.6305  -10.6627  -39.4142 O.2       3 UNK        -0.5000 
     57 CA          6.4052  -11.2535  -40.9087 C.3       3 UNK         0.1400 
     58 CB          7.1746  -12.5371  -40.5569 C.3       3 UNK        -0.1800 
     59 N           6.4408  -11.0324  -42.3532 N.am      3 UNK        -0.5000 
     60 C           6.4310   -9.8235  -42.9338 C.2       2 UNK         0.5000 
     61 O           6.4622   -8.7648  -42.3051 O.2       2 UNK        -0.5000 
     62 CA          6.3794   -9.7769  -44.4749 C.3       2 UNK         0.1400 
     63 CB          7.7957   -9.6461  -45.0559 C.3       2 UNK        -0.1800 
     64 N           5.7317  -10.9489  -45.0634 N.am      2 UNK        -0.5000 
     65 C           4.4192  -11.2114  -44.9930 C.2       1 UNK         0.5000 
     66 O           3.5950  -10.4381  -44.5044 O.2       1 UNK        -0.5000 
     67 C          -0.7487  -22.3452  -48.7778 C.2       11 UNK         0.5000 
     68 O          -0.6286  -23.4158  -49.3743 O.2       11 UNK        -0.5000 
     69 N          -1.8975  -21.6539  -48.7320 N.am      12 UNK        -0.5000 
     70 CA         -3.1550  -22.1184  -49.3244 C.3       12 UNK         0.1400 
     71 CB         -4.1999  -20.9941  -49.2720 C.3       12 UNK        -0.1800 
     72 C          -3.6854  -23.4035  -48.6570 C.2       12 UNK         0.5000 
     73 O          -4.1032  -24.3263  -49.3577 O.2       12 UNK        -0.5000 
     74 N          -3.6150  -23.4638  -47.3199 N.am      13 UNK        -0.5000 
     75 CA         -3.9720  -24.6367  -46.5202 C.3       13 UNK         0.1400 
     76 CB         -3.9936  -24.2604  -45.0313 C.3       13 UNK        -0.1800 
     77 C          -3.0420  -25.8394  -46.7668 C.2       13 UNK         0.5000 
     78 O          -3.5216  -26.9722  -46.7942 O.2       13 UNK        -0.5000 
     79 N          -1.7425  -25.5758  -46.9651 N.am      14 UNK        -0.5000 
     80 CA         -0.7342  -26.5751  -47.3210 C.3       14 UNK         0.1400 
     81 CB          0.6712  -25.9748  -47.1657 C.3       14 UNK        -0.1800 
     82 C          -0.9339  -27.1410  -48.7390 C.2       14 UNK         0.5000 
     83 O          -0.7336  -28.3395  -48.9410 O.2       14 UNK        -0.5000 
     84 N          -1.3446  -26.2838  -49.6867 N.am      15 UNK        -0.5000 
     85 CA         -1.7373  -26.6762  -51.0429 C.3       15 UNK         0.1400 
     86 CB         -1.9053  -25.4254  -51.9203 C.3       15 UNK        -0.1800 
     87 C          -3.0181  -27.5333  -51.0492 C.2       15 UNK         0.5000 
     88 O          -3.0874  -28.5148  -51.7895 O.2       15 UNK        -0.5000 
     89 N          -3.9834  -27.1589  -50.1951 N.am      16 UNK        -0.5000 
     90 CA         -5.2169  -27.8816  -49.8570 C.3       16 UNK         0.1400 
     91 CB         -4.8874  -29.2347  -49.1913 C.3       16 UNK        -0.1800 
     92 C          -6.2181  -28.0345  -51.0226 C.2       16 UNK         0.5000 
     93 O          -7.1090  -28.8843  -50.9569 O.2       16 UNK        -0.5000 
     94 N          -6.0709  -27.2072  -52.0634 N.am      17 UNK        -0.5000 
     95 CA         -6.9751  -27.1369  -53.2085 C.3       17 UNK         0.1400 
     96 CB         -6.2384  -26.4440  -54.3653 C.3       17 UNK        -0.1800 
     97 C          -8.2737  -26.3872  -52.8571 C.2       17 UNK         0.5000 
     98 O          -8.2947  -25.5953  -51.9110 O.2       17 UNK        -0.5000 
     99 N          -9.3284  -26.6242  -53.6485 N.am      18 UNK        -0.5000 
    100 CA       -10.5967  -25.8965  -53.5783 C.3       18 UNK         0.1400 
    101 CB       -11.6314  -26.5862  -54.4811 C.3       18 UNK        -0.1800 
    102 C        -10.3842  -24.4301  -53.9938 C.2       18 UNK         0.5000 
    103 O         -9.9359  -24.1812  -55.1154 O.2       18 UNK        -0.5000 
    104 N        -10.6307  -23.5015  -53.0597 N.am      19 UNK        -0.5000 
    105 CA       -10.3554  -22.0556  -53.1006 C.3       19 UNK         0.1400 
    106 CB       -11.1015  -21.3619  -54.2564 C.3       19 UNK        -0.1800 
    107 C         -8.8536  -21.6950  -53.1108 C.2       19 UNK         0.5000 
    108 O         -8.4591  -20.7455  -52.4330 O.2       19 UNK        -0.5000 
    109 N         -8.0491  -22.4532  -53.8671 N.am      20 UNK        -0.5000 
    110 CA        -6.5892  -22.4356  -54.0211 C.3       20 UNK         0.1400 
    111 CB        -5.8835  -22.7254  -52.6816 C.3       20 UNK        -0.1800 
    112 C         -6.0034  -21.1758  -54.6842 C.2       20 UNK         0.5000 
    113 O         -5.0280  -21.2964  -55.4262 O.2       20 UNK        -0.5000 
    114 N         -6.5721  -19.9971  -54.3942 N.am      21 UNK        -0.5000 
    115 CA        -6.1697  -18.6677  -54.8748 C.3       21 UNK         0.1400 
    116 CB        -6.4961  -18.5200  -56.3752 C.3       21 UNK        -0.1800 
    117 C         -4.6990  -18.3233  -54.5446 C.2       21 UNK         0.5000 
    118 O         -4.0332  -17.6314  -55.3167 O.2       21 UNK        -0.5000 
    119 N         -4.2200  -18.8406  -53.4047 N.am      22 UNK        -0.5000 
    120 CA        -2.8234  -18.7978  -52.9431 C.3       22 UNK         0.1400 
    121 C         -1.8418  -19.7138  -53.7435 C.2       22 UNK         0.5000 
    122 N         -2.3065  -20.5909  -54.6261 N.am      22 UNK        -0.7600 
    123 O         -0.6327  -19.6615  -53.5422 O.2       22 UNK        -0.5000 
    124 C124       -2.3049  -17.3414  -52.7566 C.3       23 UNK        -0.0398 
    125 S125       -1.2416  -17.1609  -51.2889 S.3       23 UNK        -0.2404 
    126 C126        0.3473  -16.7245  -52.0528 C.3       23 UNK        -0.0205 
    127 H127        6.2901  -16.0867  -44.0399 H         1 UNK         0.0600 
    128 H128        7.5956  -14.9241  -44.2976 H         1 UNK         0.0600 
    129 H129        6.6655  -15.5298  -45.6729 H         1 UNK         0.0600 
    130 H130        5.1934  -14.0350  -46.4183 H         1 UNK         0.3000 
    131 H131        3.1750  -12.9213  -44.8427 H         1 UNK         0.0600 
    132 H132        2.5240  -11.6397  -46.8896 H         1 UNK         0.0800 
    133 H133        4.0103  -12.1218  -47.6657 H         1 UNK         0.0800 
    134 H134        3.5964  -13.7176  -49.5343 H         1 UNK         0.0800 
    135 H135        4.5200  -14.6834  -48.4078 H         1 UNK         0.0800 
    136 H136        1.5086  -14.7111  -50.6123 H         1 UNK         0.1150 
    137 H137        1.6811  -18.9423  -51.2589 H         1 UNK         0.1150 
    138 H138        4.3226  -17.0995  -48.4270 H         1 UNK         0.1150 
    139 H139        3.6575  -20.1602  -50.4007 H         1 UNK         0.0800 
    140 H140        4.7458  -19.4004  -49.2710 H         1 UNK         0.0800 
    141 H141        1.3773  -21.1047  -49.8519 H         1 UNK         0.0800 
    142 H142        0.6611  -19.8132  -48.9109 H         1 UNK         0.0800 
    143 H143        1.1262  -22.6269  -47.8156 H         1 UNK         0.0600 
    144 H144        0.2183  -20.2766  -46.5133 H         1 UNK         0.3000 
    145 H145       -1.5997  -21.9613  -43.8858 H         1 UNK         0.0600 
    146 H146       -0.0920  -20.4405  -42.5906 H         1 UNK         0.0600 
    147 H147        0.7521  -21.8715  -43.1659 H         1 UNK         0.0600 
    148 H148        0.9912  -20.3330  -43.9771 H         1 UNK         0.0600 
    149 H149       -1.2848  -19.1916  -44.4102 H         1 UNK         0.3000 
    150 H150       -4.0973  -18.8017  -46.5941 H         1 UNK         0.0600 
    151 H151       -5.0482  -18.7603  -44.3022 H         1 UNK         0.0600 
    152 H152       -4.6833  -17.1315  -44.8495 H         1 UNK         0.0600 
    153 H153       -3.6230  -17.9337  -43.6918 H         1 UNK         0.0600 
    154 H154       -2.1598  -16.9855  -45.4948 H         1 UNK         0.3000 
    155 H155        0.1697  -17.1742  -48.1937 H         1 UNK         0.0600 
    156 H156       -1.7447  -14.9917  -47.1983 H         1 UNK         0.0600 
    157 H157       -0.3138  -14.7597  -48.2015 H         1 UNK         0.0600 
    158 H158       -1.7082  -15.6091  -48.8404 H         1 UNK         0.0600 
    159 H159        0.1168  -15.6545  -45.7693 H         1 UNK         0.3000 
    160 H160        1.7424  -18.0658  -43.6743 H         1 UNK         0.0600 
    161 H161        2.8667  -15.5107  -44.9209 H         1 UNK         0.0600 
    162 H162        3.6136  -17.0991  -45.0478 H         1 UNK         0.0600 
    163 H163        3.4685  -16.3189  -43.4776 H         1 UNK         0.0600 
    164 H164        1.1368  -15.3585  -43.1767 H         1 UNK         0.3000 
    165 H165       -2.3286  -15.4785  -42.7538 H         1 UNK         0.0600 
    166 H166       -2.0626  -14.9761  -40.3364 H         1 UNK         0.0600 
    167 H167       -1.8254  -16.6923  -40.6215 H         1 UNK         0.0600 
    168 H168       -0.4326  -15.6519  -40.3479 H         1 UNK         0.0600 
    169 H169       -0.4705  -13.6063  -41.7289 H         1 UNK         0.3000 
    170 H170        0.8177  -12.1541  -44.5755 H         1 UNK         0.0600 
    171 H171       -1.4409  -11.1080  -44.8152 H         1 UNK         0.0600 
    172 H172       -1.5358  -10.8928  -43.0713 H         1 UNK         0.0600 
    173 H173       -0.3156  -10.0285  -44.0088 H         1 UNK         0.0600 
    174 H174        0.7171  -11.0624  -42.0011 H         1 UNK         0.3000 
    175 H175        2.2877  -11.2283  -40.5306 H         1 UNK         0.0600 
    176 H176        2.8544  -14.1824  -39.8958 H         1 UNK         0.0600 
    177 H177        2.9009  -12.8507  -38.7424 H         1 UNK         0.0600 
    178 H178        1.3765  -13.3253  -39.4732 H         1 UNK         0.0600 
    179 H179        4.4413  -12.6113  -41.9051 H         1 UNK         0.3000 
    180 H180        6.9018  -10.4240  -40.4005 H         1 UNK         0.0600 
    181 H181        6.7243  -13.4222  -41.0063 H         1 UNK         0.0600 
    182 H182        7.1932  -12.6937  -39.4777 H         1 UNK         0.0600 
    183 H183        8.2093  -12.4802  -40.8950 H         1 UNK         0.0600 
    184 H184        6.3387  -11.8593  -42.9309 H         1 UNK         0.3000 
    185 H185        5.8099   -8.8899  -44.7604 H         1 UNK         0.0600 
    186 H186        8.3006   -8.7644  -44.6589 H         1 UNK         0.0600 
    187 H187        8.4116  -10.5134  -44.8149 H         1 UNK         0.0600 
    188 H188        7.7694   -9.5427  -46.1409 H         1 UNK         0.0600 
    189 H189        6.3361  -11.6415  -45.4808 H         1 UNK         0.3000 
    190 H190       -1.9138  -20.7536  -48.2626 H         1 UNK         0.3000 
    191 H191       -2.9626  -22.3482  -50.3746 H         1 UNK         0.0600 
    192 H192       -4.4332  -20.7072  -48.2470 H         1 UNK         0.0600 
    193 H193       -5.1323  -21.3053  -49.7439 H         1 UNK         0.0600 
    194 H194       -3.8492  -20.1041  -49.7944 H         1 UNK         0.0600 
    195 H195       -3.3152  -22.6387  -46.8067 H         1 UNK         0.3000 
    196 H196       -4.9819  -24.9378  -46.8066 H         1 UNK         0.0600 
    197 H197       -4.2858  -25.1129  -44.4170 H         1 UNK         0.0600 
    198 H198       -4.7075  -23.4597  -44.8376 H         1 UNK         0.0600 
    199 H199       -3.0152  -23.9265  -44.6860 H         1 UNK         0.0600 
    200 H200       -1.4128  -24.6241  -46.8323 H         1 UNK         0.3000 
    201 H201       -0.8242  -27.4057  -46.6178 H         1 UNK         0.0600 
    202 H202        0.8444  -25.6358  -46.1442 H         1 UNK         0.0600 
    203 H203        0.8230  -25.1250  -47.8308 H         1 UNK         0.0600 
    204 H204        1.4389  -26.7139  -47.3974 H         1 UNK         0.0600 
    205 H205       -1.4105  -25.2977  -49.4566 H         1 UNK         0.3000 
    206 H206       -0.9303  -27.2788  -51.4649 H         1 UNK         0.0600 
    207 H207       -0.9840  -24.8437  -51.9563 H         1 UNK         0.0600 
    208 H208       -2.1576  -25.6998  -52.9452 H         1 UNK         0.0600 
    209 H209       -2.6962  -24.7720  -51.5529 H         1 UNK         0.0600 
    210 H210       -3.8508  -26.2830  -49.6977 H         1 UNK         0.3000 
    211 H211       -5.7207  -27.2652  -49.1112 H         1 UNK         0.0600 
    212 H212       -4.4591  -29.9416  -49.9024 H         1 UNK         0.0600 
    213 H213       -5.7828  -29.6948  -48.7723 H         1 UNK         0.0600 
    214 H214       -4.1766  -29.1112  -48.3744 H         1 UNK         0.0600 
    215 H215       -5.3390  -26.5148  -52.0158 H         1 UNK         0.3000 
    216 H216       -7.2350  -28.1514  -53.5184 H         1 UNK         0.0600 
    217 H217       -5.8777  -25.4577  -54.0762 H         1 UNK         0.0600 
    218 H218       -6.8872  -26.3183  -55.2331 H         1 UNK         0.0600 
    219 H219       -5.3772  -27.0300  -54.6868 H         1 UNK         0.0600 
    220 H220       -9.2252  -27.2639  -54.4228 H         1 UNK         0.3000 
    221 H221      -10.9609  -25.9338  -52.5493 H         1 UNK         0.0600 
    222 H222      -11.3113  -26.6040  -55.5238 H         1 UNK         0.0600 
    223 H223      -11.8062  -27.6151  -54.1661 H         1 UNK         0.0600 
    224 H224      -12.5898  -26.0669  -54.4411 H         1 UNK         0.0600 
    225 H225      -10.9467  -23.8337  -52.1588 H         1 UNK         0.3000 
    226 H226      -10.7603  -21.6568  -52.1692 H         1 UNK         0.0600 
    227 H227      -12.1691  -21.5792  -54.2232 H         1 UNK         0.0600 
    228 H228      -10.9883  -20.2789  -54.1944 H         1 UNK         0.0600 
    229 H229      -10.7260  -21.6695  -55.2325 H         1 UNK         0.0600 
    230 H230       -8.5256  -23.1569  -54.4255 H         1 UNK         0.3000 
    231 H231       -6.3644  -23.2603  -54.6980 H         1 UNK         0.0600 
    232 H232       -6.0559  -21.9335  -51.9530 H         1 UNK         0.0600 
    233 H233       -4.8048  -22.8140  -52.8175 H         1 UNK         0.0600 
    234 H234       -6.2326  -23.6609  -52.2443 H         1 UNK         0.0600 
    235 H235       -7.3362  -20.0187  -53.7227 H         1 UNK         0.3000 
    236 H236       -6.7800  -17.9462  -54.3301 H         1 UNK         0.0600 
    237 H237       -6.3265  -17.4977  -56.7151 H         1 UNK         0.0600 
    238 H238       -5.8789  -19.1762  -56.9895 H         1 UNK         0.0600 
    239 H239       -7.5408  -18.7576  -56.5759 H         1 UNK         0.0600 
    240 H240       -4.8483  -19.3968  -52.8436 H         1 UNK         0.3000 
    241 H241       -2.8699  -19.2610  -51.9570 H         1 UNK         0.0600 
    242 H242       -1.6508  -21.1756  -55.1187 H         1 UNK         0.3800 
    243 H243       -3.2967  -20.6755  -54.8330 H         1 UNK         0.3800 
    244 H244       -1.7981  -16.9822  -53.6539 H         1 UNK         0.0800 
    245 H245       -3.1423  -16.6593  -52.6036 H         1 UNK         0.0800 
    246 H246        0.2857  -15.7176  -52.4683 H         1 UNK         0.0800 
    247 H247        0.5573  -17.3928  -52.8885 H         1 UNK         0.0800 
@<TRIPOS>BOND
     1    1    2 1    
     2    1  127 1    
     3    1  128 1    
     4    1  129 1    
     5    2    3 2    
     6    2    4 am   BACKBONE|DICT|INTERRES
     7    4    5 1    
     8    4  130 1    
     9    5    6 1    
    10    5   65 1    
    11    5  131 1    
    12    6    7 1    
    13    6  132 1    
    14    6  133 1    
    15    7    8 1    
    16    8    9 1    
    17    8  134 1    
    18    8  135 1    
    19    9   10 ar   
    20    9   14 ar   
    21   10   11 ar   
    22   10  136 1    
    23   11   12 ar   
    24   11  126 1    
    25   12   13 ar   
    26   12  137 1    
    27   13   14 ar   
    28   13   15 1    
    29   14  138 1    
    30   15   16 1    
    31   15  139 1    
    32   15  140 1    
    33   16   17 1    
    34   17   18 1    
    35   17  141 1    
    36   17  142 1    
    37   18   19 1    
    38   18   67 1    
    39   18  143 1    
    40   19   20 am   BACKBONE|DICT|INTERRES
    41   19  144 1    
    42   20   21 2    
    43   20   22 1    
    44   22   23 1    
    45   22   24 1    
    46   22  145 1    
    47   23  146 1    
    48   23  147 1    
    49   23  148 1    
    50   24   25 am   BACKBONE|DICT|INTERRES
    51   24  149 1    
    52   25   26 2    
    53   25   27 1    
    54   27   28 1    
    55   27   29 1    
    56   27  150 1    
    57   28  151 1    
    58   28  152 1    
    59   28  153 1    
    60   29   30 am   BACKBONE|DICT|INTERRES
    61   29  154 1    
    62   30   31 2    
    63   30   32 1    
    64   32   33 1    
    65   32   34 1    
    66   32  155 1    
    67   33  156 1    
    68   33  157 1    
    69   33  158 1    
    70   34   35 am   BACKBONE|DICT|INTERRES
    71   34  159 1    
    72   35   36 2    
    73   35   37 1    
    74   37   38 1    
    75   37   39 1    
    76   37  160 1    
    77   38  161 1    
    78   38  162 1    
    79   38  163 1    
    80   39   40 am   BACKBONE|DICT|INTERRES
    81   39  164 1    
    82   40   41 2    
    83   40   42 1    
    84   42   43 1    
    85   42   44 1    
    86   42  165 1    
    87   43  166 1    
    88   43  167 1    
    89   43  168 1    
    90   44   45 am   BACKBONE|DICT|INTERRES
    91   44  169 1    
    92   45   46 2    
    93   45   47 1    
    94   47   48 1    
    95   47   49 1    
    96   47  170 1    
    97   48  171 1    
    98   48  172 1    
    99   48  173 1    
   100   49   50 am   BACKBONE|DICT|INTERRES
   101   49  174 1    
   102   50   51 2    
   103   50   52 1    
   104   52   53 1    
   105   52   54 1    
   106   52  175 1    
   107   53  176 1    
   108   53  177 1    
   109   53  178 1    
   110   54   55 am   BACKBONE|DICT|INTERRES
   111   54  179 1    
   112   55   56 2    
   113   55   57 1    
   114   57   58 1    
   115   57   59 1    
   116   57  180 1    
   117   58  181 1    
   118   58  182 1    
   119   58  183 1    
   120   59   60 am   BACKBONE|DICT|INTERRES
   121   59  184 1    
   122   60   61 2    
   123   60   62 1    
   124   62   63 1    
   125   62   64 1    
   126   62  185 1    
   127   63  186 1    
   128   63  187 1    
   129   63  188 1    
   130   64   65 am   BACKBONE|DICT|INTERRES
   131   64  189 1    
   132   65   66 2    
   133   67   68 2    
   134   67   69 am   BACKBONE|DICT|INTERRES
   135   69   70 1    
   136   69  190 1    
   137   70   71 1    
   138   70   72 1    
   139   70  191 1    
   140   71  192 1    
   141   71  193 1    
   142   71  194 1    
   143   72   73 2    
   144   72   74 am   BACKBONE|DICT|INTERRES
   145   74   75 1    
   146   74  195 1    
   147   75   76 1    
   148   75   77 1    
   149   75  196 1    
   150   76  197 1    
   151   76  198 1    
   152   76  199 1    
   153   77   78 2    
   154   77   79 am   BACKBONE|DICT|INTERRES
   155   79   80 1    
   156   79  200 1    
   157   80   81 1    
   158   80   82 1    
   159   80  201 1    
   160   81  202 1    
   161   81  203 1    
   162   81  204 1    
   163   82   83 2    
   164   82   84 am   BACKBONE|DICT|INTERRES
   165   84   85 1    
   166   84  205 1    
   167   85   86 1    
   168   85   87 1    
   169   85  206 1    
   170   86  207 1    
   171   86  208 1    
   172   86  209 1    
   173   87   88 2    
   174   87   89 am   BACKBONE|DICT|INTERRES
   175   89   90 1    
   176   89  210 1    
   177   90   91 1    
   178   90   92 1    
   179   90  211 1    
   180   91  212 1    
   181   91  213 1    
   182   91  214 1    
   183   92   93 2    
   184   92   94 am   BACKBONE|DICT|INTERRES
   185   94   95 1    
   186   94  215 1    
   187   95   96 1    
   188   95   97 1    
   189   95  216 1    
   190   96  217 1    
   191   96  218 1    
   192   96  219 1    
   193   97   98 2    
   194   97   99 am   BACKBONE|DICT|INTERRES
   195   99  100 1    
   196   99  220 1    
   197  100  101 1    
   198  100  102 1    
   199  100  221 1    
   200  101  222 1    
   201  101  223 1    
   202  101  224 1    
   203  102  103 2    
   204  102  104 am   BACKBONE|DICT|INTERRES
   205  104  105 1    
   206  104  225 1    
   207  105  106 1    
   208  105  107 1    
   209  105  226 1    
   210  106  227 1    
   211  106  228 1    
   212  106  229 1    
   213  107  108 2    
   214  107  109 am   BACKBONE|DICT|INTERRES
   215  109  110 1    
   216  109  230 1    
   217  110  111 1    
   218  110  112 1    
   219  110  231 1    
   220  111  232 1    
   221  111  233 1    
   222  111  234 1    
   223  112  113 2    
   224  112  114 am   BACKBONE|DICT|INTERRES
   225  114  115 1    
   226  114  235 1    
   227  115  116 1    
   228  115  117 1    
   229  115  236 1    
   230  116  237 1    
   231  116  238 1    
   232  116  239 1    
   233  117  118 2    
   234  117  119 am   BACKBONE|DICT|INTERRES
   235  119  120 1    
   236  119  240 1    
   237  120  121 1    
   238  120  124 1    
   239  120  241 1    
   240  121  122 am   BACKBONE|DICT|INTERRES
   241  121  123 2    
   242  122  242 1    
   243  122  243 1    
   244  124  125 1    
   245  124  244 1    
   246  124  245 1    
   247  125  126 1    
   248  126  246 1    
   249  126  247 1    
@<TRIPOS>SUBSTRUCTURE
     1 UNK         1 GROUP             0       ****    0 ROOT    
