@<TRIPOS>MOLECULE
3R540
247   249    1
SMALL
USER_CHARGES


@<TRIPOS>ATOM
      1 CA         -0.6537  -12.8909  -44.0646 C.3       0 UNK        -0.1800 
      2 C          -1.0943  -13.3840  -45.4364 C.2       0 UNK         0.5000 
      3 O          -0.3067  -14.0121  -46.1429 O.2       0 UNK        -0.5000 
      4 N          -2.3353  -13.0593  -45.8299 N.am      1 UNK        -0.5000 
      5 CA         -2.9606  -13.3515  -47.1314 C.3       1 UNK         0.1400 
      6 C6         -3.4495  -14.8206  -47.2630 C.3       23 UNK        -0.0398 
      7 S7         -4.8888  -14.9201  -48.3888 S.3       23 UNK        -0.2404 
      8 C8         -6.1201  -15.8455  -47.4190 C.3       23 UNK        -0.0205 
      9 C9         -6.0216  -17.3442  -47.6625 C.ar      23 UNK        -0.0193 
     10 C10        -6.3929  -17.8726  -48.9030 C.ar      23 UNK        -0.1150 
     11 C11        -6.3364  -19.2492  -49.1369 C.ar      23 UNK        -0.0193 
     12 C12        -5.9126  -20.1017  -48.1153 C.ar      23 UNK        -0.1150 
     13 C13        -5.5307  -19.5864  -46.8745 C.ar      23 UNK        -0.0193 
     14 C14        -5.5885  -18.2065  -46.6512 C.ar      23 UNK        -0.1150 
     15 C15        -5.0629  -20.5253  -45.7750 C.3       23 UNK        -0.0205 
     16 S16        -3.2843  -20.3519  -45.4453 S.3       23 UNK        -0.2404 
     17 C17        -2.5120  -20.9572  -46.9852 C.3       23 UNK        -0.0398 
     18 CA         -1.8760  -22.3605  -46.8491 C.3       11 UNK         0.1400 
     19 N          -0.8666  -22.4200  -45.7816 N.am      11 UNK        -0.5000 
     20 C          -0.1211  -23.4772  -45.4300 C.2       10 UNK         0.5000 
     21 O          -0.2419  -24.5911  -45.9417 O.2       10 UNK        -0.5000 
     22 CA          0.9360  -23.2718  -44.3288 C.3       10 UNK         0.1400 
     23 CB          2.3064  -22.9884  -44.9602 C.3       10 UNK        -0.1800 
     24 N           0.6222  -22.2066  -43.3737 N.am      10 UNK        -0.5000 
     25 C          -0.3836  -22.2397  -42.4865 C.2       9 UNK         0.5000 
     26 O          -1.2030  -23.1565  -42.4176 O.2       9 UNK        -0.5000 
     27 CA         -0.4967  -21.0445  -41.5237 C.3       9 UNK         0.1400 
     28 CB          0.5577  -21.1280  -40.4084 C.3       9 UNK        -0.1800 
     29 N          -0.3420  -19.7891  -42.2562 N.am      9 UNK        -0.5000 
     30 C          -1.3663  -19.0445  -42.6932 C.2       8 UNK         0.5000 
     31 O          -2.5321  -19.2305  -42.3421 O.2       8 UNK        -0.5000 
     32 CA         -1.0635  -17.9059  -43.6930 C.3       8 UNK         0.1400 
     33 CB         -1.3423  -16.5355  -43.0633 C.3       8 UNK        -0.1800 
     34 N           0.2953  -17.9136  -44.2389 N.am      8 UNK        -0.5000 
     35 C           0.7936  -18.8394  -45.0683 C.2       7 UNK         0.5000 
     36 O           0.1465  -19.7858  -45.5065 O.2       7 UNK        -0.5000 
     37 CA          2.2950  -18.7479  -45.3872 C.3       7 UNK         0.1400 
     38 CB          2.5567  -17.8035  -46.5656 C.3       7 UNK        -0.1800 
     39 N           3.0820  -18.3321  -44.2260 N.am      7 UNK        -0.5000 
     40 C           3.2117  -19.0558  -43.1050 C.2       6 UNK         0.5000 
     41 O           2.7027  -20.1668  -42.9530 O.2       6 UNK        -0.5000 
     42 CA          3.9942  -18.4060  -41.9499 C.3       6 UNK         0.1400 
     43 CB          5.5051  -18.6045  -42.1407 C.3       6 UNK        -0.1800 
     44 N           3.7024  -16.9765  -41.8268 N.am      6 UNK        -0.5000 
     45 C           2.5425  -16.4782  -41.3736 C.2       5 UNK         0.5000 
     46 O           1.6267  -17.1722  -40.9329 O.2       5 UNK        -0.5000 
     47 CA          2.3623  -14.9487  -41.4665 C.3       5 UNK         0.1400 
     48 CB          2.8963  -14.2627  -40.2004 C.3       5 UNK        -0.1800 
     49 N           3.0039  -14.3579  -42.6472 N.am      5 UNK        -0.5000 
     50 C           2.6589  -14.6405  -43.9097 C.2       4 UNK         0.5000 
     51 O           1.7567  -15.4261  -44.2038 O.2       4 UNK        -0.5000 
     52 CA          3.5023  -13.9999  -45.0198 C.3       4 UNK         0.1400 
     53 CB          4.8335  -14.7703  -45.1585 C.3       4 UNK        -0.1800 
     54 N           2.7474  -14.0325  -46.2729 N.am      4 UNK        -0.5000 
     55 C           3.1279  -13.4965  -47.4394 C.2       3 UNK         0.5000 
     56 O           4.1547  -12.8317  -47.5844 O.2       3 UNK        -0.5000 
     57 CA          2.2037  -13.7118  -48.6471 C.3       3 UNK         0.1400 
     58 CB          1.7251  -15.1677  -48.7901 C.3       3 UNK        -0.1800 
     59 N           1.0455  -12.8369  -48.5269 N.am      3 UNK        -0.5000 
     60 C           0.7437  -11.8290  -49.3561 C.2       2 UNK         0.5000 
     61 O           1.4419  -11.5131  -50.3212 O.2       2 UNK        -0.5000 
     62 CA         -0.5408  -11.0205  -49.0539 C.3       2 UNK         0.1400 
     63 CB         -1.2575  -10.5329  -50.3293 C.3       2 UNK        -0.1800 
     64 N          -1.4900  -11.6893  -48.1563 N.am      2 UNK        -0.5000 
     65 C          -2.0991  -12.8745  -48.3283 C.2       1 UNK         0.5000 
     66 O          -1.9544  -13.5880  -49.3235 O.2       1 UNK        -0.5000 
     67 C          -2.9633  -23.4527  -46.8040 C.2       11 UNK         0.5000 
     68 O          -3.5104  -23.7884  -47.8542 O.2       11 UNK        -0.5000 
     69 N          -3.2255  -24.0081  -45.6142 N.am      12 UNK        -0.5000 
     70 CA         -4.1388  -25.1272  -45.3896 C.3       12 UNK         0.1400 
     71 CB         -4.2990  -25.3306  -43.8753 C.3       12 UNK        -0.1800 
     72 C          -3.7025  -26.4437  -46.0686 C.2       12 UNK         0.5000 
     73 O          -4.5574  -27.3000  -46.3000 O.2       12 UNK        -0.5000 
     74 N          -2.4036  -26.5889  -46.3707 N.am      13 UNK        -0.5000 
     75 CA         -1.8312  -27.7686  -47.0211 C.3       13 UNK         0.1400 
     76 CB         -1.0276  -28.5744  -45.9877 C.3       13 UNK        -0.1800 
     77 C          -0.9477  -27.4019  -48.2248 C.2       13 UNK         0.5000 
     78 O          -1.0088  -28.0869  -49.2464 O.2       13 UNK        -0.5000 
     79 N          -0.1309  -26.3489  -48.0903 N.am      14 UNK        -0.5000 
     80 CA          0.8826  -25.9612  -49.0742 C.3       14 UNK         0.1400 
     81 CB          2.0511  -25.2927  -48.3311 C.3       14 UNK        -0.1800 
     82 C           0.3550  -25.0158  -50.1678 C.2       14 UNK         0.5000 
     83 O           1.0344  -24.8456  -51.1804 O.2       14 UNK        -0.5000 
     84 N          -0.8097  -24.3889  -49.9323 N.am      15 UNK        -0.5000 
     85 CA         -1.4315  -23.3469  -50.7647 C.3       15 UNK         0.1400 
     86 CB         -1.9218  -23.9344  -52.1034 C.3       15 UNK        -0.1800 
     87 C          -0.5324  -22.1002  -50.9442 C.2       15 UNK         0.5000 
     88 O          -0.5092  -21.4932  -52.0141 O.2       15 UNK        -0.5000 
     89 N           0.2064  -21.7576  -49.8788 N.am      16 UNK        -0.5000 
     90 CA          1.2296  -20.7105  -49.8377 C.3       16 UNK         0.1400 
     91 CB          2.0734  -20.9250  -48.5708 C.3       16 UNK        -0.1800 
     92 C           0.6921  -19.2647  -49.8941 C.2       16 UNK         0.5000 
     93 O           1.4797  -18.3456  -50.1192 O.2       16 UNK        -0.5000 
     94 N          -0.6174  -19.0809  -49.6779 N.am      17 UNK        -0.5000 
     95 CA         -1.3220  -17.8025  -49.7974 C.3       17 UNK         0.1400 
     96 CB         -2.7654  -17.9976  -49.3118 C.3       17 UNK        -0.1800 
     97 C          -1.3106  -17.2682  -51.2432 C.2       17 UNK         0.5000 
     98 O          -1.2605  -18.0620  -52.1858 O.2       17 UNK        -0.5000 
     99 N          -1.4009  -15.9392  -51.4039 N.am      18 UNK        -0.5000 
    100 CA        -1.2961  -15.2508  -52.6986 C.3       18 UNK         0.1400 
    101 CB        -1.2576  -13.7356  -52.4636 C.3       18 UNK        -0.1800 
    102 C         -2.3973  -15.6052  -53.7198 C.2       18 UNK         0.5000 
    103 O         -2.2046  -15.3798  -54.9152 O.2       18 UNK        -0.5000 
    104 N         -3.5162  -16.1682  -53.2429 N.am      19 UNK        -0.5000 
    105 CA        -4.5940  -16.7195  -54.0643 C.3       19 UNK         0.1400 
    106 CB        -5.8010  -17.0194  -53.1639 C.3       19 UNK        -0.1800 
    107 C         -4.1761  -17.9671  -54.8736 C.2       19 UNK         0.5000 
    108 O         -4.7667  -18.2142  -55.9252 O.2       19 UNK        -0.5000 
    109 N         -3.1656  -18.7088  -54.3885 N.am      20 UNK        -0.5000 
    110 CA        -2.4288  -19.8235  -55.0077 C.3       20 UNK         0.1400 
    111 CB        -1.6602  -19.3290  -56.2468 C.3       20 UNK        -0.1800 
    112 C         -3.2292  -21.1014  -55.3447 C.2       20 UNK         0.5000 
    113 O         -2.6750  -22.1963  -55.2556 O.2       20 UNK        -0.5000 
    114 N         -4.5035  -20.9623  -55.7220 N.am      21 UNK        -0.5000 
    115 CA        -5.4154  -22.0413  -56.1173 C.3       21 UNK         0.1400 
    116 CB        -6.4645  -21.4511  -57.0753 C.3       21 UNK        -0.1800 
    117 C         -6.0902  -22.7523  -54.9228 C.2       21 UNK         0.5000 
    118 O         -6.9966  -23.5604  -55.1314 O.2       21 UNK        -0.5000 
    119 N         -5.6680  -22.4079  -53.7021 N.am      22 UNK        -0.5000 
    120 CA        -6.1879  -22.8674  -52.4071 C.3       22 UNK         0.1400 
    121 C         -6.1943  -24.4124  -52.2315 C.2       22 UNK         0.5000 
    122 N         -7.2085  -24.9633  -51.5781 N.am      22 UNK        -0.7600 
    123 O         -5.2693  -25.1097  -52.6404 O.2       22 UNK        -0.5000 
    124 C124       -5.4188  -22.2006  -51.2370 C.3       23 UNK        -0.0398 
    125 S125       -5.2813  -20.3881  -51.4214 S.3       23 UNK        -0.2404 
    126 C126       -6.7349  -19.8131  -50.4905 C.3       23 UNK        -0.0205 
    127 H127       -1.4694  -12.4099  -43.5247 H         1 UNK         0.0600 
    128 H128        0.1561  -12.1697  -44.1728 H         1 UNK         0.0600 
    129 H129       -0.2876  -13.7169  -43.4572 H         1 UNK         0.0600 
    130 H130       -2.9163  -12.5320  -45.1926 H         1 UNK         0.3000 
    131 H131       -3.8429  -12.7094  -47.1452 H         1 UNK         0.0600 
    132 H132       -2.6536  -15.4807  -47.6111 H         1 UNK         0.0800 
    133 H133       -3.7413  -15.2044  -46.2851 H         1 UNK         0.0800 
    134 H134       -7.1148  -15.5108  -47.7166 H         1 UNK         0.0800 
    135 H135       -6.0294  -15.6074  -46.3583 H         1 UNK         0.0800 
    136 H136       -6.7229  -17.2061  -49.6875 H         1 UNK         0.1150 
    137 H137       -5.8690  -21.1669  -48.2902 H         1 UNK         0.1150 
    138 H138       -5.2961  -17.8088  -45.6895 H         1 UNK         0.1150 
    139 H139       -5.6117  -20.3028  -44.8590 H         1 UNK         0.0800 
    140 H140       -5.2878  -21.5642  -46.0209 H         1 UNK         0.0800 
    141 H141       -1.7387  -20.2393  -47.2575 H         1 UNK         0.0800 
    142 H142       -3.2280  -20.9296  -47.8076 H         1 UNK         0.0800 
    143 H143       -1.3250  -22.5471  -47.7687 H         1 UNK         0.0600 
    144 H144       -0.6509  -21.5251  -45.3490 H         1 UNK         0.3000 
    145 H145        1.0071  -24.2069  -43.7697 H         1 UNK         0.0600 
    146 H146        3.0767  -22.8695  -44.1979 H         1 UNK         0.0600 
    147 H147        2.6166  -23.8090  -45.6079 H         1 UNK         0.0600 
    148 H148        2.2896  -22.0811  -45.5635 H         1 UNK         0.0600 
    149 H149        1.2793  -21.4335  -43.3361 H         1 UNK         0.3000 
    150 H150       -1.4792  -21.0900  -41.0495 H         1 UNK         0.0600 
    151 H151        0.4280  -22.0374  -39.8205 H         1 UNK         0.0600 
    152 H152        0.4726  -20.2831  -39.7248 H         1 UNK         0.0600 
    153 H153        1.5740  -21.1365  -40.8012 H         1 UNK         0.0600 
    154 H154        0.5909  -19.5591  -42.5704 H         1 UNK         0.3000 
    155 H155       -1.7522  -18.0278  -44.5304 H         1 UNK         0.0600 
    156 H156       -2.3426  -16.4917  -42.6310 H         1 UNK         0.0600 
    157 H157       -1.2858  -15.7570  -43.8199 H         1 UNK         0.0600 
    158 H158       -0.6286  -16.2991  -42.2745 H         1 UNK         0.0600 
    159 H159        0.8876  -17.1267  -43.9882 H         1 UNK         0.3000 
    160 H160        2.6324  -19.7439  -45.6779 H         1 UNK         0.0600 
    161 H161        2.2944  -16.7767  -46.3237 H         1 UNK         0.0600 
    162 H162        1.9621  -18.0895  -47.4322 H         1 UNK         0.0600 
    163 H163        3.6040  -17.8230  -46.8666 H         1 UNK         0.0600 
    164 H164        3.4816  -17.4074  -44.2558 H         1 UNK         0.3000 
    165 H165        3.6980  -18.9034  -41.0237 H         1 UNK         0.0600 
    166 H166        6.0644  -18.2062  -41.2940 H         1 UNK         0.0600 
    167 H167        5.7514  -19.6641  -42.2221 H         1 UNK         0.0600 
    168 H168        5.8678  -18.1126  -43.0442 H         1 UNK         0.0600 
    169 H169        4.4090  -16.3336  -42.1515 H         1 UNK         0.3000 
    170 H170        1.2908  -14.7489  -41.5347 H         1 UNK         0.0600 
    171 H171        2.4198  -14.6679  -39.3067 H         1 UNK         0.0600 
    172 H172        3.9725  -14.4007  -40.0901 H         1 UNK         0.0600 
    173 H173        2.6941  -13.1916  -40.2171 H         1 UNK         0.0600 
    174 H174        3.7604  -13.7115  -42.4739 H         1 UNK         0.3000 
    175 H175        3.6979  -12.9595  -44.7539 H         1 UNK         0.0600 
    176 H176        4.6726  -15.7915  -45.5048 H         1 UNK         0.0600 
    177 H177        5.5099  -14.2855  -45.8616 H         1 UNK         0.0600 
    178 H178        5.3626  -14.8257  -44.2064 H         1 UNK         0.0600 
    179 H179        1.8434  -14.4914  -46.1987 H         1 UNK         0.3000 
    180 H180        2.7826  -13.4706  -49.5409 H         1 UNK         0.0600 
    181 H181        1.0610  -15.4683  -47.9797 H         1 UNK         0.0600 
    182 H182        2.5692  -15.8579  -48.8058 H         1 UNK         0.0600 
    183 H183        1.1806  -15.3057  -49.7244 H         1 UNK         0.0600 
    184 H184        0.4283  -13.0365  -47.7466 H         1 UNK         0.3000 
    185 H185       -0.2008  -10.1336  -48.5176 H         1 UNK         0.0600 
    186 H186       -1.6284  -11.3630  -50.9274 H         1 UNK         0.0600 
    187 H187       -2.1071   -9.8965  -50.0820 H         1 UNK         0.0600 
    188 H188       -0.5899   -9.9458  -50.9608 H         1 UNK         0.0600 
    189 H189       -1.6593  -11.2114  -47.2824 H         1 UNK         0.3000 
    190 H190       -2.7176  -23.6687  -44.8088 H         1 UNK         0.3000 
    191 H191       -5.1109  -24.8529  -45.8044 H         1 UNK         0.0600 
    192 H192       -4.6894  -24.4327  -43.3957 H         1 UNK         0.0600 
    193 H193       -4.9951  -26.1422  -43.6597 H         1 UNK         0.0600 
    194 H194       -3.3480  -25.5773  -43.4012 H         1 UNK         0.0600 
    195 H195       -1.7635  -25.8351  -46.1438 H         1 UNK         0.3000 
    196 H196       -2.6247  -28.4127  -47.4057 H         1 UNK         0.0600 
    197 H197       -0.5761  -29.4568  -46.4430 H         1 UNK         0.0600 
    198 H198       -1.6677  -28.9193  -45.1755 H         1 UNK         0.0600 
    199 H199       -0.2238  -27.9803  -45.5508 H         1 UNK         0.0600 
    200 H200       -0.1322  -25.8168  -47.2225 H         1 UNK         0.3000 
    201 H201        1.2665  -26.8564  -49.5685 H         1 UNK         0.0600 
    202 H202        2.4484  -25.9420  -47.5508 H         1 UNK         0.0600 
    203 H203        1.7476  -24.3547  -47.8660 H         1 UNK         0.0600 
    204 H204        2.8713  -25.0669  -49.0139 H         1 UNK         0.0600 
    205 H205       -1.3135  -24.6465  -49.0954 H         1 UNK         0.3000 
    206 H206       -2.3087  -23.0049  -50.2157 H         1 UNK         0.0600 
    207 H207       -2.5587  -24.8039  -51.9420 H         1 UNK         0.0600 
    208 H208       -2.5087  -23.2039  -52.6611 H         1 UNK         0.0600 
    209 H209       -1.0929  -24.2395  -52.7423 H         1 UNK         0.0600 
    210 H210        0.1511  -22.3444  -49.0619 H         1 UNK         0.3000 
    211 H211        1.8785  -20.8429  -50.7059 H         1 UNK         0.0600 
    212 H212        2.8774  -20.1911  -48.5037 H         1 UNK         0.0600 
    213 H213        2.5387  -21.9109  -48.5667 H         1 UNK         0.0600 
    214 H214        1.4673  -20.8362  -47.6690 H         1 UNK         0.0600 
    215 H215       -1.1908  -19.9005  -49.5676 H         1 UNK         0.3000 
    216 H216       -0.8266  -17.0719  -49.1546 H         1 UNK         0.0600 
    217 H217       -3.3677  -17.1100  -49.4996 H         1 UNK         0.0600 
    218 H218       -2.8027  -18.1905  -48.2397 H         1 UNK         0.0600 
    219 H219       -3.2542  -18.8285  -49.8205 H         1 UNK         0.0600 
    220 H220       -1.4973  -15.3366  -50.5933 H         1 UNK         0.3000 
    221 H221       -0.3439  -15.5460  -53.1440 H         1 UNK         0.0600 
    222 H222       -2.1951  -13.3796  -52.0356 H         1 UNK         0.0600 
    223 H223       -0.4483  -13.4605  -51.7869 H         1 UNK         0.0600 
    224 H224       -1.0973  -13.1958  -53.3977 H         1 UNK         0.0600 
    225 H225       -3.5893  -16.3016  -52.2454 H         1 UNK         0.3000 
    226 H226       -4.8927  -15.9561  -54.7856 H         1 UNK         0.0600 
    227 H227       -6.2168  -16.1018  -52.7476 H         1 UNK         0.0600 
    228 H228       -6.5983  -17.5154  -53.7192 H         1 UNK         0.0600 
    229 H229       -5.5255  -17.6638  -52.3308 H         1 UNK         0.0600 
    230 H230       -2.7566  -18.4047  -53.5100 H         1 UNK         0.3000 
    231 H231       -1.6880  -20.1206  -54.2633 H         1 UNK         0.0600 
    232 H232       -2.3352  -19.0049  -57.0395 H         1 UNK         0.0600 
    233 H233       -1.0296  -20.1189  -56.6568 H         1 UNK         0.0600 
    234 H234       -1.0096  -18.4907  -55.9965 H         1 UNK         0.0600 
    235 H235       -4.8563  -20.0110  -55.8029 H         1 UNK         0.3000 
    236 H236       -4.8485  -22.7992  -56.6616 H         1 UNK         0.0600 
    237 H237       -7.1320  -22.2243  -57.4576 H         1 UNK         0.0600 
    238 H238       -7.0798  -20.6989  -56.5800 H         1 UNK         0.0600 
    239 H239       -5.9904  -20.9809  -57.9372 H         1 UNK         0.0600 
    240 H240       -4.9266  -21.7262  -53.6483 H         1 UNK         0.3000 
    241 H241       -7.2238  -22.5263  -52.3632 H         1 UNK         0.0600 
    242 H242       -7.2164  -25.9627  -51.4453 H         1 UNK         0.3800 
    243 H243       -7.9785  -24.4141  -51.2285 H         1 UNK         0.3800 
    244 H244       -4.4068  -22.5991  -51.1788 H         1 UNK         0.0800 
    245 H245       -5.8876  -22.4399  -50.2815 H         1 UNK         0.0800 
    246 H246       -7.4556  -20.6209  -50.3582 H         1 UNK         0.0800 
    247 H247       -7.2450  -19.0522  -51.0830 H         1 UNK         0.0800 
@<TRIPOS>BOND
     1    1    2 1    
     2    1  127 1    
     3    1  128 1    
     4    1  129 1    
     5    2    3 2    
     6    2    4 am   BACKBONE|DICT|INTERRES
     7    4    5 1    
     8    4  130 1    
     9    5    6 1    
    10    5   65 1    
    11    5  131 1    
    12    6    7 1    
    13    6  132 1    
    14    6  133 1    
    15    7    8 1    
    16    8    9 1    
    17    8  134 1    
    18    8  135 1    
    19    9   10 ar   
    20    9   14 ar   
    21   10   11 ar   
    22   10  136 1    
    23   11   12 ar   
    24   11  126 1    
    25   12   13 ar   
    26   12  137 1    
    27   13   14 ar   
    28   13   15 1    
    29   14  138 1    
    30   15   16 1    
    31   15  139 1    
    32   15  140 1    
    33   16   17 1    
    34   17   18 1    
    35   17  141 1    
    36   17  142 1    
    37   18   19 1    
    38   18   67 1    
    39   18  143 1    
    40   19   20 am   BACKBONE|DICT|INTERRES
    41   19  144 1    
    42   20   21 2    
    43   20   22 1    
    44   22   23 1    
    45   22   24 1    
    46   22  145 1    
    47   23  146 1    
    48   23  147 1    
    49   23  148 1    
    50   24   25 am   BACKBONE|DICT|INTERRES
    51   24  149 1    
    52   25   26 2    
    53   25   27 1    
    54   27   28 1    
    55   27   29 1    
    56   27  150 1    
    57   28  151 1    
    58   28  152 1    
    59   28  153 1    
    60   29   30 am   BACKBONE|DICT|INTERRES
    61   29  154 1    
    62   30   31 2    
    63   30   32 1    
    64   32   33 1    
    65   32   34 1    
    66   32  155 1    
    67   33  156 1    
    68   33  157 1    
    69   33  158 1    
    70   34   35 am   BACKBONE|DICT|INTERRES
    71   34  159 1    
    72   35   36 2    
    73   35   37 1    
    74   37   38 1    
    75   37   39 1    
    76   37  160 1    
    77   38  161 1    
    78   38  162 1    
    79   38  163 1    
    80   39   40 am   BACKBONE|DICT|INTERRES
    81   39  164 1    
    82   40   41 2    
    83   40   42 1    
    84   42   43 1    
    85   42   44 1    
    86   42  165 1    
    87   43  166 1    
    88   43  167 1    
    89   43  168 1    
    90   44   45 am   BACKBONE|DICT|INTERRES
    91   44  169 1    
    92   45   46 2    
    93   45   47 1    
    94   47   48 1    
    95   47   49 1    
    96   47  170 1    
    97   48  171 1    
    98   48  172 1    
    99   48  173 1    
   100   49   50 am   BACKBONE|DICT|INTERRES
   101   49  174 1    
   102   50   51 2    
   103   50   52 1    
   104   52   53 1    
   105   52   54 1    
   106   52  175 1    
   107   53  176 1    
   108   53  177 1    
   109   53  178 1    
   110   54   55 am   BACKBONE|DICT|INTERRES
   111   54  179 1    
   112   55   56 2    
   113   55   57 1    
   114   57   58 1    
   115   57   59 1    
   116   57  180 1    
   117   58  181 1    
   118   58  182 1    
   119   58  183 1    
   120   59   60 am   BACKBONE|DICT|INTERRES
   121   59  184 1    
   122   60   61 2    
   123   60   62 1    
   124   62   63 1    
   125   62   64 1    
   126   62  185 1    
   127   63  186 1    
   128   63  187 1    
   129   63  188 1    
   130   64   65 am   BACKBONE|DICT|INTERRES
   131   64  189 1    
   132   65   66 2    
   133   67   68 2    
   134   67   69 am   BACKBONE|DICT|INTERRES
   135   69   70 1    
   136   69  190 1    
   137   70   71 1    
   138   70   72 1    
   139   70  191 1    
   140   71  192 1    
   141   71  193 1    
   142   71  194 1    
   143   72   73 2    
   144   72   74 am   BACKBONE|DICT|INTERRES
   145   74   75 1    
   146   74  195 1    
   147   75   76 1    
   148   75   77 1    
   149   75  196 1    
   150   76  197 1    
   151   76  198 1    
   152   76  199 1    
   153   77   78 2    
   154   77   79 am   BACKBONE|DICT|INTERRES
   155   79   80 1    
   156   79  200 1    
   157   80   81 1    
   158   80   82 1    
   159   80  201 1    
   160   81  202 1    
   161   81  203 1    
   162   81  204 1    
   163   82   83 2    
   164   82   84 am   BACKBONE|DICT|INTERRES
   165   84   85 1    
   166   84  205 1    
   167   85   86 1    
   168   85   87 1    
   169   85  206 1    
   170   86  207 1    
   171   86  208 1    
   172   86  209 1    
   173   87   88 2    
   174   87   89 am   BACKBONE|DICT|INTERRES
   175   89   90 1    
   176   89  210 1    
   177   90   91 1    
   178   90   92 1    
   179   90  211 1    
   180   91  212 1    
   181   91  213 1    
   182   91  214 1    
   183   92   93 2    
   184   92   94 am   BACKBONE|DICT|INTERRES
   185   94   95 1    
   186   94  215 1    
   187   95   96 1    
   188   95   97 1    
   189   95  216 1    
   190   96  217 1    
   191   96  218 1    
   192   96  219 1    
   193   97   98 2    
   194   97   99 am   BACKBONE|DICT|INTERRES
   195   99  100 1    
   196   99  220 1    
   197  100  101 1    
   198  100  102 1    
   199  100  221 1    
   200  101  222 1    
   201  101  223 1    
   202  101  224 1    
   203  102  103 2    
   204  102  104 am   BACKBONE|DICT|INTERRES
   205  104  105 1    
   206  104  225 1    
   207  105  106 1    
   208  105  107 1    
   209  105  226 1    
   210  106  227 1    
   211  106  228 1    
   212  106  229 1    
   213  107  108 2    
   214  107  109 am   BACKBONE|DICT|INTERRES
   215  109  110 1    
   216  109  230 1    
   217  110  111 1    
   218  110  112 1    
   219  110  231 1    
   220  111  232 1    
   221  111  233 1    
   222  111  234 1    
   223  112  113 2    
   224  112  114 am   BACKBONE|DICT|INTERRES
   225  114  115 1    
   226  114  235 1    
   227  115  116 1    
   228  115  117 1    
   229  115  236 1    
   230  116  237 1    
   231  116  238 1    
   232  116  239 1    
   233  117  118 2    
   234  117  119 am   BACKBONE|DICT|INTERRES
   235  119  120 1    
   236  119  240 1    
   237  120  121 1    
   238  120  124 1    
   239  120  241 1    
   240  121  122 am   BACKBONE|DICT|INTERRES
   241  121  123 2    
   242  122  242 1    
   243  122  243 1    
   244  124  125 1    
   245  124  244 1    
   246  124  245 1    
   247  125  126 1    
   248  126  246 1    
   249  126  247 1    
@<TRIPOS>SUBSTRUCTURE
     1 UNK         1 GROUP             0       ****    0 ROOT    
