@<TRIPOS>MOLECULE
3R540
247   249    1
SMALL
USER_CHARGES


@<TRIPOS>ATOM
      1 CA         -1.7993  -15.3653  -45.9517 C.3       0 UNK        -0.1800 
      2 C          -0.5394  -15.0907  -46.7626 C.2       0 UNK         0.5000 
      3 O           0.4541  -15.7916  -46.5923 O.2       0 UNK        -0.5000 
      4 N          -0.5902  -14.0936  -47.6576 N.am      1 UNK        -0.5000 
      5 CA          0.4826  -13.6958  -48.5828 C.3       1 UNK         0.1400 
      6 C6          0.8444  -14.7810  -49.6359 C.3       23 UNK        -0.0398 
      7 S7         -0.5505  -15.1211  -50.7667 S.3       23 UNK        -0.2404 
      8 C8         -1.1891  -16.6862  -50.0991 C.3       23 UNK        -0.0205 
      9 C9         -2.7032  -16.7548  -50.1996 C.ar      23 UNK        -0.0193 
     10 C10        -3.3176  -17.4701  -51.2311 C.ar      23 UNK        -0.1150 
     11 C11        -4.7120  -17.5589  -51.2979 C.ar      23 UNK        -0.0193 
     12 C12        -5.4876  -16.9269  -50.3209 C.ar      23 UNK        -0.1150 
     13 C13        -4.8851  -16.1957  -49.2933 C.ar      23 UNK        -0.0193 
     14 C14        -3.4926  -16.1119  -49.2420 C.ar      23 UNK        -0.1150 
     15 C15        -5.7422  -15.4935  -48.2463 C.3       23 UNK        -0.0205 
     16 S16        -5.5473  -16.1878  -46.5690 S.3       23 UNK        -0.2404 
     17 C17        -5.8698  -17.9615  -46.8453 C.3       23 UNK        -0.0398 
     18 CA         -4.6409  -18.8147  -46.4434 C.3       11 UNK         0.1400 
     19 N          -4.6233  -19.0889  -45.0006 N.am      11 UNK        -0.5000 
     20 C          -3.6196  -19.6704  -44.3325 C.2       10 UNK         0.5000 
     21 O          -2.5672  -20.0432  -44.8558 O.2       10 UNK        -0.5000 
     22 CA         -3.8613  -19.9356  -42.8414 C.3       10 UNK         0.1400 
     23 CB         -4.5503  -21.3009  -42.6524 C.3       10 UNK        -0.1800 
     24 N          -2.5867  -19.9063  -42.1297 N.am      10 UNK        -0.5000 
     25 C          -2.4364  -19.7973  -40.8026 C.2       9 UNK         0.5000 
     26 O          -3.3901  -19.7003  -40.0282 O.2       9 UNK        -0.5000 
     27 CA         -1.0011  -19.7507  -40.2262 C.3       9 UNK         0.1400 
     28 CB         -0.8330  -20.6767  -39.0036 C.3       9 UNK        -0.1800 
     29 N           0.0705  -19.9703  -41.2058 N.am      9 UNK        -0.5000 
     30 C           0.3479  -21.0942  -41.8823 C.2       8 UNK         0.5000 
     31 O          -0.2609  -22.1542  -41.7423 O.2       8 UNK        -0.5000 
     32 CA          1.4749  -21.0057  -42.9234 C.3       8 UNK         0.1400 
     33 CB          0.9493  -20.3590  -44.2097 C.3       8 UNK        -0.1800 
     34 N           2.6399  -20.2536  -42.4662 N.am      8 UNK        -0.5000 
     35 C           3.5300  -20.6980  -41.5697 C.2       7 UNK         0.5000 
     36 O           3.4290  -21.7705  -40.9731 O.2       7 UNK        -0.5000 
     37 CA          4.7481  -19.7964  -41.3122 C.3       7 UNK         0.1400 
     38 CB          5.7619  -19.9079  -42.4623 C.3       7 UNK        -0.1800 
     39 N           4.3514  -18.3998  -41.1549 N.am      7 UNK        -0.5000 
     40 C           3.9659  -17.8505  -39.9960 C.2       6 UNK         0.5000 
     41 O           3.9526  -18.4528  -38.9219 O.2       6 UNK        -0.5000 
     42 CA          3.5161  -16.3781  -40.0420 C.3       6 UNK         0.1400 
     43 CB          4.7022  -15.4427  -39.7625 C.3       6 UNK        -0.1800 
     44 N           2.9069  -16.0029  -41.3177 N.am      6 UNK        -0.5000 
     45 C           1.7262  -16.4555  -41.7614 C.2       5 UNK         0.5000 
     46 O           1.0143  -17.2434  -41.1409 O.2       5 UNK        -0.5000 
     47 CA          1.2809  -15.9687  -43.1492 C.3       5 UNK         0.1400 
     48 CB          0.5185  -14.6422  -43.0108 C.3       5 UNK        -0.1800 
     49 N           2.3946  -15.8015  -44.0850 N.am      5 UNK        -0.5000 
     50 C           3.2064  -16.7881  -44.4979 C.2       4 UNK         0.5000 
     51 O           3.1466  -17.9409  -44.0689 O.2       4 UNK        -0.5000 
     52 CA          4.2983  -16.4340  -45.5258 C.3       4 UNK         0.1400 
     53 CB          3.8568  -16.8270  -46.9431 C.3       4 UNK        -0.1800 
     54 N           4.6773  -15.0207  -45.5071 N.am      4 UNK        -0.5000 
     55 C           5.3112  -14.4230  -44.4876 C.2       3 UNK         0.5000 
     56 O           5.6867  -15.0195  -43.4773 O.2       3 UNK        -0.5000 
     57 CA          5.5379  -12.9015  -44.5899 C.3       3 UNK         0.1400 
     58 CB          6.9652  -12.6042  -45.0739 C.3       3 UNK        -0.1800 
     59 N           4.5866  -12.1975  -45.4556 N.am      3 UNK        -0.5000 
     60 C           3.2577  -12.1560  -45.2851 C.2       2 UNK         0.5000 
     61 O           2.6701  -12.7633  -44.3905 O.2       2 UNK        -0.5000 
     62 CA          2.4357  -11.3009  -46.2703 C.3       2 UNK         0.1400 
     63 CB          3.2892  -10.4528  -47.2415 C.3       2 UNK        -0.1800 
     64 N           1.4588  -12.1006  -47.0154 N.am      2 UNK        -0.5000 
     65 C           1.7108  -13.1372  -47.8294 C.2       1 UNK         0.5000 
     66 O           2.8323  -13.6195  -48.0036 O.2       1 UNK        -0.5000 
     67 C          -4.5702  -20.1028  -47.2849 C.2       11 UNK         0.5000 
     68 O          -3.8286  -20.1431  -48.2652 O.2       11 UNK        -0.5000 
     69 N          -5.3048  -21.1459  -46.8707 N.am      12 UNK        -0.5000 
     70 CA         -5.3065  -22.4520  -47.5344 C.3       12 UNK         0.1400 
     71 CB         -6.4147  -23.3336  -46.9420 C.3       12 UNK        -0.1800 
     72 C          -3.9440  -23.1615  -47.4484 C.2       12 UNK         0.5000 
     73 O          -3.5343  -23.8049  -48.4149 O.2       12 UNK        -0.5000 
     74 N          -3.2559  -22.9989  -46.3104 N.am      13 UNK        -0.5000 
     75 CA         -1.9025  -23.5004  -46.0861 C.3       13 UNK         0.1400 
     76 CB         -1.5834  -23.4736  -44.5846 C.3       13 UNK        -0.1800 
     77 C          -0.8590  -22.7118  -46.8948 C.2       13 UNK         0.5000 
     78 O           0.0209  -23.3245  -47.4980 O.2       13 UNK        -0.5000 
     79 N          -1.0013  -21.3787  -46.9389 N.am      14 UNK        -0.5000 
     80 CA         -0.1377  -20.4725  -47.7024 C.3       14 UNK         0.1400 
     81 CB         -0.4640  -19.0199  -47.3301 C.3       14 UNK        -0.1800 
     82 C          -0.2471  -20.6855  -49.2242 C.2       14 UNK         0.5000 
     83 O           0.7534  -20.5729  -49.9320 O.2       14 UNK        -0.5000 
     84 N          -1.4518  -21.0412  -49.6865 N.am      15 UNK        -0.5000 
     85 CA         -1.7513  -21.4581  -51.0554 C.3       15 UNK         0.1400 
     86 CB         -3.2664  -21.3419  -51.2691 C.3       15 UNK        -0.1800 
     87 C          -1.2671  -22.8857  -51.3951 C.2       15 UNK         0.5000 
     88 O          -1.3516  -23.2732  -52.5582 O.2       15 UNK        -0.5000 
     89 N          -0.7729  -23.6361  -50.3975 N.am      16 UNK        -0.5000 
     90 CA         -0.3078  -25.0243  -50.4702 C.3       16 UNK         0.1400 
     91 CB          0.9005  -25.1676  -51.4206 C.3       16 UNK        -0.1800 
     92 C          -1.4603  -25.9993  -50.7822 C.2       16 UNK         0.5000 
     93 O          -1.4390  -26.6870  -51.8043 O.2       16 UNK        -0.5000 
     94 N          -2.4373  -26.0294  -49.8651 N.am      17 UNK        -0.5000 
     95 CA         -3.6796  -26.8077  -49.8872 C.3       17 UNK         0.1400 
     96 CB         -3.4211  -28.3221  -50.0451 C.3       17 UNK        -0.1800 
     97 C          -4.6956  -26.2346  -50.8931 C.2       17 UNK         0.5000 
     98 O          -5.2683  -26.9784  -51.6923 O.2       17 UNK        -0.5000 
     99 N          -4.9084  -24.9134  -50.7930 N.am      18 UNK        -0.5000 
    100 CA        -5.8198  -24.0796  -51.5875 C.3       18 UNK         0.1400 
    101 CB        -7.2801  -24.5527  -51.4176 C.3       18 UNK        -0.1800 
    102 C         -5.4124  -23.9456  -53.0728 C.2       18 UNK         0.5000 
    103 O         -4.4066  -24.5117  -53.5040 O.2       18 UNK        -0.5000 
    104 N         -6.2029  -23.1621  -53.8224 N.am      19 UNK        -0.5000 
    105 CA        -5.9998  -22.7902  -55.2268 C.3       19 UNK         0.1400 
    106 CB        -6.1414  -24.0179  -56.1553 C.3       19 UNK        -0.1800 
    107 C         -4.6970  -21.9839  -55.4151 C.2       19 UNK         0.5000 
    108 O         -4.5342  -20.9659  -54.7386 O.2       19 UNK        -0.5000 
    109 N         -3.8195  -22.4185  -56.3333 N.am      20 UNK        -0.5000 
    110 CA        -2.5471  -21.7926  -56.7111 C.3       20 UNK         0.1400 
    111 CB        -1.5150  -21.9283  -55.5705 C.3       20 UNK        -0.1800 
    112 C         -2.7645  -20.3442  -57.1904 C.2       20 UNK         0.5000 
    113 O         -3.3496  -20.1496  -58.2575 O.2       20 UNK        -0.5000 
    114 N         -2.3601  -19.3603  -56.3750 N.am      21 UNK        -0.5000 
    115 CA        -2.5991  -17.9282  -56.5788 C.3       21 UNK         0.1400 
    116 CB        -1.9172  -17.1472  -55.4443 C.3       21 UNK        -0.1800 
    117 C         -4.0936  -17.5514  -56.6627 C.2       21 UNK         0.5000 
    118 O         -4.4314  -16.5637  -57.3164 O.2       21 UNK        -0.5000 
    119 N         -4.9518  -18.3553  -56.0240 N.am      22 UNK        -0.5000 
    120 CA        -6.4168  -18.2505  -56.0720 C.3       22 UNK         0.1400 
    121 C         -7.0639  -19.1589  -57.1603 C.2       22 UNK         0.5000 
    122 N         -6.3069  -19.8621  -57.9960 N.am      22 UNK        -0.7600 
    123 O         -8.2859  -19.2217  -57.2608 O.2       22 UNK        -0.5000 
    124 C124       -7.0455  -18.4996  -54.6768 C.3       23 UNK        -0.0398 
    125 S125       -6.4626  -17.3000  -53.4311 S.3       23 UNK        -0.2404 
    126 C126       -5.3832  -18.3521  -52.4100 C.3       23 UNK        -0.0205 
    127 H127       -2.2051  -16.3411  -46.2182 H         1 UNK         0.0600 
    128 H128       -2.5701  -14.6151  -46.1292 H         1 UNK         0.0600 
    129 H129       -1.5770  -15.3773  -44.8861 H         1 UNK         0.0600 
    130 H130       -1.4419  -13.5572  -47.7405 H         1 UNK         0.3000 
    131 H131        0.0873  -12.8436  -49.1382 H         1 UNK         0.0600 
    132 H132        1.1883  -15.7004  -49.1600 H         1 UNK         0.0800 
    133 H133        1.6742  -14.4409  -50.2576 H         1 UNK         0.0800 
    134 H134       -0.7242  -17.5240  -50.6212 H         1 UNK         0.0800 
    135 H135       -0.9080  -16.7829  -49.0529 H         1 UNK         0.0800 
    136 H136       -2.7093  -17.9660  -51.9741 H         1 UNK         0.1150 
    137 H137       -6.5650  -16.9998  -50.3699 H         1 UNK         0.1150 
    138 H138       -3.0238  -15.5475  -48.4514 H         1 UNK         0.1150 
    139 H139       -5.4775  -14.4357  -48.2219 H         1 UNK         0.0800 
    140 H140       -6.7971  -15.5360  -48.5220 H         1 UNK         0.0800 
    141 H141       -6.1445  -18.1154  -47.8893 H         1 UNK         0.0800 
    142 H142       -6.7530  -18.2531  -46.2750 H         1 UNK         0.0800 
    143 H143       -3.7326  -18.2567  -46.6814 H         1 UNK         0.0600 
    144 H144       -5.4477  -18.8086  -44.4894 H         1 UNK         0.3000 
    145 H145       -4.5025  -19.1440  -42.4482 H         1 UNK         0.0600 
    146 H146       -4.8015  -21.4796  -41.6070 H         1 UNK         0.0600 
    147 H147       -5.4811  -21.3558  -43.2182 H         1 UNK         0.0600 
    148 H148       -3.9132  -22.1211  -42.9848 H         1 UNK         0.0600 
    149 H149       -1.7703  -19.9623  -42.7237 H         1 UNK         0.3000 
    150 H150       -0.8654  -18.7281  -39.8725 H         1 UNK         0.0600 
    151 H151        0.1788  -20.6192  -38.6021 H         1 UNK         0.0600 
    152 H152       -1.5151  -20.3932  -38.2014 H         1 UNK         0.0600 
    153 H153       -1.0389  -21.7184  -39.2500 H         1 UNK         0.0600 
    154 H154        0.6299  -19.1429  -41.3920 H         1 UNK         0.3000 
    155 H155        1.7918  -22.0238  -43.1598 H         1 UNK         0.0600 
    156 H156        0.6776  -19.3139  -44.0565 H         1 UNK         0.0600 
    157 H157        0.0606  -20.8769  -44.5623 H         1 UNK         0.0600 
    158 H158        1.6924  -20.3987  -45.0061 H         1 UNK         0.0600 
    159 H159        2.8205  -19.3732  -42.9434 H         1 UNK         0.3000 
    160 H160        5.2387  -20.1422  -40.3996 H         1 UNK         0.0600 
    161 H161        5.3422  -19.5670  -43.4096 H         1 UNK         0.0600 
    162 H162        6.0841  -20.9409  -42.5989 H         1 UNK         0.0600 
    163 H163        6.6530  -19.3137  -42.2592 H         1 UNK         0.0600 
    164 H164        4.2916  -17.8451  -41.9975 H         1 UNK         0.3000 
    165 H165        2.7726  -16.2344  -39.2552 H         1 UNK         0.0600 
    166 H166        4.3816  -14.4018  -39.7160 H         1 UNK         0.0600 
    167 H167        5.1715  -15.6808  -38.8070 H         1 UNK         0.0600 
    168 H168        5.4686  -15.5236  -40.5348 H         1 UNK         0.0600 
    169 H169        3.4359  -15.3791  -41.9110 H         1 UNK         0.3000 
    170 H170        0.6057  -16.7145  -43.5739 H         1 UNK         0.0600 
    171 H171       -0.4116  -14.7838  -42.4593 H         1 UNK         0.0600 
    172 H172        1.1056  -13.8948  -42.4757 H         1 UNK         0.0600 
    173 H173        0.2649  -14.2215  -43.9829 H         1 UNK         0.0600 
    174 H174        2.5269  -14.8694  -44.4605 H         1 UNK         0.3000 
    175 H175        5.1824  -17.0231  -45.2732 H         1 UNK         0.0600 
    176 H176        2.9893  -16.2524  -47.2671 H         1 UNK         0.0600 
    177 H177        4.6558  -16.6632  -47.6661 H         1 UNK         0.0600 
    178 H178        3.5849  -17.8824  -46.9898 H         1 UNK         0.0600 
    179 H179        4.3693  -14.4564  -46.2888 H         1 UNK         0.3000 
    180 H180        5.4271  -12.4931  -43.5834 H         1 UNK         0.0600 
    181 H181        7.1264  -12.9611  -46.0919 H         1 UNK         0.0600 
    182 H182        7.7044  -13.0895  -44.4350 H         1 UNK         0.0600 
    183 H183        7.1747  -11.5345  -45.0546 H         1 UNK         0.0600 
    184 H184        4.9813  -11.6891  -46.2333 H         1 UNK         0.3000 
    185 H185        1.8596  -10.6090  -45.6543 H         1 UNK         0.0600 
    186 H186        3.9625   -9.7882  -46.6987 H         1 UNK         0.0600 
    187 H187        3.8920  -11.0684  -47.9100 H         1 UNK         0.0600 
    188 H188        2.6546   -9.8210  -47.8630 H         1 UNK         0.0600 
    189 H189        0.4954  -11.8210  -46.8972 H         1 UNK         0.3000 
    190 H190       -5.8890  -21.0436  -46.0541 H         1 UNK         0.3000 
    191 H191       -5.5286  -22.2926  -48.5917 H         1 UNK         0.0600 
    192 H192       -7.3946  -22.8735  -47.0695 H         1 UNK         0.0600 
    193 H193       -6.4467  -24.3049  -47.4380 H         1 UNK         0.0600 
    194 H194       -6.2629  -23.5127  -45.8768 H         1 UNK         0.0600 
    195 H195       -3.6536  -22.4237  -45.5841 H         1 UNK         0.3000 
    196 H196       -1.8620  -24.5400  -46.4184 H         1 UNK         0.0600 
    197 H197       -0.5640  -23.8109  -44.3929 H         1 UNK         0.0600 
    198 H198       -2.2523  -24.1307  -44.0289 H         1 UNK         0.0600 
    199 H199       -1.6805  -22.4727  -44.1658 H         1 UNK         0.0600 
    200 H200       -1.7263  -20.9434  -46.3764 H         1 UNK         0.3000 
    201 H201        0.8950  -20.6746  -47.4117 H         1 UNK         0.0600 
    202 H202       -0.4087  -18.8558  -46.2547 H         1 UNK         0.0600 
    203 H203       -1.4638  -18.7341  -47.6577 H         1 UNK         0.0600 
    204 H204        0.2502  -18.3385  -47.7926 H         1 UNK         0.0600 
    205 H205       -2.2390  -21.0126  -49.0450 H         1 UNK         0.3000 
    206 H206       -1.2549  -20.7714  -51.7440 H         1 UNK         0.0600 
    207 H207       -3.6118  -20.3241  -51.0975 H         1 UNK         0.0600 
    208 H208       -3.5453  -21.6151  -52.2870 H         1 UNK         0.0600 
    209 H209       -3.8080  -21.9927  -50.5845 H         1 UNK         0.0600 
    210 H210       -0.7288  -23.2228  -49.4740 H         1 UNK         0.3000 
    211 H211        0.0456  -25.2778  -49.4697 H         1 UNK         0.0600 
    212 H212        0.6333  -24.9782  -52.4603 H         1 UNK         0.0600 
    213 H213        1.3122  -26.1762  -51.3715 H         1 UNK         0.0600 
    214 H214        1.6987  -24.4771  -51.1482 H         1 UNK         0.0600 
    215 H215       -2.3975  -25.3419  -49.1205 H         1 UNK         0.3000 
    216 H216       -4.1286  -26.6682  -48.9026 H         1 UNK         0.0600 
    217 H217       -4.3397  -28.8881  -49.8868 H         1 UNK         0.0600 
    218 H218       -2.6921  -28.6767  -49.3166 H         1 UNK         0.0600 
    219 H219       -3.0551  -28.5760  -51.0399 H         1 UNK         0.0600 
    220 H220       -4.3550  -24.4182  -50.1011 H         1 UNK         0.3000 
    221 H221       -5.7549  -23.0795  -51.1595 H         1 UNK         0.0600 
    222 H222       -7.4646  -25.4963  -51.9318 H         1 UNK         0.0600 
    223 H223       -7.5292  -24.6906  -50.3652 H         1 UNK         0.0600 
    224 H224       -7.9845  -23.8231  -51.8175 H         1 UNK         0.0600 
    225 H225       -6.9883  -22.7135  -53.3737 H         1 UNK         0.3000 
    226 H226       -6.8089  -22.1027  -55.4778 H         1 UNK         0.0600 
    227 H227       -7.0941  -24.5209  -55.9893 H         1 UNK         0.0600 
    228 H228       -6.1177  -23.7225  -57.2050 H         1 UNK         0.0600 
    229 H229       -5.3512  -24.7523  -55.9965 H         1 UNK         0.0600 
    230 H230       -4.0594  -23.2527  -56.8494 H         1 UNK         0.3000 
    231 H231       -2.1654  -22.3467  -57.5698 H         1 UNK         0.0600 
    232 H232       -1.8474  -21.4510  -54.6481 H         1 UNK         0.0600 
    233 H233       -0.5566  -21.4887  -55.8493 H         1 UNK         0.0600 
    234 H234       -1.3305  -22.9782  -55.3426 H         1 UNK         0.0600 
    235 H235       -1.9229  -19.6212  -55.5035 H         1 UNK         0.3000 
    236 H236       -2.1337  -17.6445  -57.5248 H         1 UNK         0.0600 
    237 H237       -0.8457  -17.3455  -55.4144 H         1 UNK         0.0600 
    238 H238       -2.0439  -16.0721  -55.5789 H         1 UNK         0.0600 
    239 H239       -2.3356  -17.4061  -54.4707 H         1 UNK         0.0600 
    240 H240       -4.5910  -19.1647  -55.5283 H         1 UNK         0.3000 
    241 H241       -6.6844  -17.2328  -56.3615 H         1 UNK         0.0600 
    242 H242       -5.2947  -19.8038  -57.9760 H         1 UNK         0.3800 
    243 H243       -6.7541  -20.4265  -58.7008 H         1 UNK         0.3800 
    244 H244       -6.8440  -19.5171  -54.3387 H         1 UNK         0.0800 
    245 H245       -8.1318  -18.4073  -54.7249 H         1 UNK         0.0800 
    246 H246       -4.6353  -18.8220  -53.0502 H         1 UNK         0.0800 
    247 H247       -5.9693  -19.1597  -51.9693 H         1 UNK         0.0800 
@<TRIPOS>BOND
     1    1    2 1    
     2    1  127 1    
     3    1  128 1    
     4    1  129 1    
     5    2    3 2    
     6    2    4 am   BACKBONE|DICT|INTERRES
     7    4    5 1    
     8    4  130 1    
     9    5    6 1    
    10    5   65 1    
    11    5  131 1    
    12    6    7 1    
    13    6  132 1    
    14    6  133 1    
    15    7    8 1    
    16    8    9 1    
    17    8  134 1    
    18    8  135 1    
    19    9   10 ar   
    20    9   14 ar   
    21   10   11 ar   
    22   10  136 1    
    23   11   12 ar   
    24   11  126 1    
    25   12   13 ar   
    26   12  137 1    
    27   13   14 ar   
    28   13   15 1    
    29   14  138 1    
    30   15   16 1    
    31   15  139 1    
    32   15  140 1    
    33   16   17 1    
    34   17   18 1    
    35   17  141 1    
    36   17  142 1    
    37   18   19 1    
    38   18   67 1    
    39   18  143 1    
    40   19   20 am   BACKBONE|DICT|INTERRES
    41   19  144 1    
    42   20   21 2    
    43   20   22 1    
    44   22   23 1    
    45   22   24 1    
    46   22  145 1    
    47   23  146 1    
    48   23  147 1    
    49   23  148 1    
    50   24   25 am   BACKBONE|DICT|INTERRES
    51   24  149 1    
    52   25   26 2    
    53   25   27 1    
    54   27   28 1    
    55   27   29 1    
    56   27  150 1    
    57   28  151 1    
    58   28  152 1    
    59   28  153 1    
    60   29   30 am   BACKBONE|DICT|INTERRES
    61   29  154 1    
    62   30   31 2    
    63   30   32 1    
    64   32   33 1    
    65   32   34 1    
    66   32  155 1    
    67   33  156 1    
    68   33  157 1    
    69   33  158 1    
    70   34   35 am   BACKBONE|DICT|INTERRES
    71   34  159 1    
    72   35   36 2    
    73   35   37 1    
    74   37   38 1    
    75   37   39 1    
    76   37  160 1    
    77   38  161 1    
    78   38  162 1    
    79   38  163 1    
    80   39   40 am   BACKBONE|DICT|INTERRES
    81   39  164 1    
    82   40   41 2    
    83   40   42 1    
    84   42   43 1    
    85   42   44 1    
    86   42  165 1    
    87   43  166 1    
    88   43  167 1    
    89   43  168 1    
    90   44   45 am   BACKBONE|DICT|INTERRES
    91   44  169 1    
    92   45   46 2    
    93   45   47 1    
    94   47   48 1    
    95   47   49 1    
    96   47  170 1    
    97   48  171 1    
    98   48  172 1    
    99   48  173 1    
   100   49   50 am   BACKBONE|DICT|INTERRES
   101   49  174 1    
   102   50   51 2    
   103   50   52 1    
   104   52   53 1    
   105   52   54 1    
   106   52  175 1    
   107   53  176 1    
   108   53  177 1    
   109   53  178 1    
   110   54   55 am   BACKBONE|DICT|INTERRES
   111   54  179 1    
   112   55   56 2    
   113   55   57 1    
   114   57   58 1    
   115   57   59 1    
   116   57  180 1    
   117   58  181 1    
   118   58  182 1    
   119   58  183 1    
   120   59   60 am   BACKBONE|DICT|INTERRES
   121   59  184 1    
   122   60   61 2    
   123   60   62 1    
   124   62   63 1    
   125   62   64 1    
   126   62  185 1    
   127   63  186 1    
   128   63  187 1    
   129   63  188 1    
   130   64   65 am   BACKBONE|DICT|INTERRES
   131   64  189 1    
   132   65   66 2    
   133   67   68 2    
   134   67   69 am   BACKBONE|DICT|INTERRES
   135   69   70 1    
   136   69  190 1    
   137   70   71 1    
   138   70   72 1    
   139   70  191 1    
   140   71  192 1    
   141   71  193 1    
   142   71  194 1    
   143   72   73 2    
   144   72   74 am   BACKBONE|DICT|INTERRES
   145   74   75 1    
   146   74  195 1    
   147   75   76 1    
   148   75   77 1    
   149   75  196 1    
   150   76  197 1    
   151   76  198 1    
   152   76  199 1    
   153   77   78 2    
   154   77   79 am   BACKBONE|DICT|INTERRES
   155   79   80 1    
   156   79  200 1    
   157   80   81 1    
   158   80   82 1    
   159   80  201 1    
   160   81  202 1    
   161   81  203 1    
   162   81  204 1    
   163   82   83 2    
   164   82   84 am   BACKBONE|DICT|INTERRES
   165   84   85 1    
   166   84  205 1    
   167   85   86 1    
   168   85   87 1    
   169   85  206 1    
   170   86  207 1    
   171   86  208 1    
   172   86  209 1    
   173   87   88 2    
   174   87   89 am   BACKBONE|DICT|INTERRES
   175   89   90 1    
   176   89  210 1    
   177   90   91 1    
   178   90   92 1    
   179   90  211 1    
   180   91  212 1    
   181   91  213 1    
   182   91  214 1    
   183   92   93 2    
   184   92   94 am   BACKBONE|DICT|INTERRES
   185   94   95 1    
   186   94  215 1    
   187   95   96 1    
   188   95   97 1    
   189   95  216 1    
   190   96  217 1    
   191   96  218 1    
   192   96  219 1    
   193   97   98 2    
   194   97   99 am   BACKBONE|DICT|INTERRES
   195   99  100 1    
   196   99  220 1    
   197  100  101 1    
   198  100  102 1    
   199  100  221 1    
   200  101  222 1    
   201  101  223 1    
   202  101  224 1    
   203  102  103 2    
   204  102  104 am   BACKBONE|DICT|INTERRES
   205  104  105 1    
   206  104  225 1    
   207  105  106 1    
   208  105  107 1    
   209  105  226 1    
   210  106  227 1    
   211  106  228 1    
   212  106  229 1    
   213  107  108 2    
   214  107  109 am   BACKBONE|DICT|INTERRES
   215  109  110 1    
   216  109  230 1    
   217  110  111 1    
   218  110  112 1    
   219  110  231 1    
   220  111  232 1    
   221  111  233 1    
   222  111  234 1    
   223  112  113 2    
   224  112  114 am   BACKBONE|DICT|INTERRES
   225  114  115 1    
   226  114  235 1    
   227  115  116 1    
   228  115  117 1    
   229  115  236 1    
   230  116  237 1    
   231  116  238 1    
   232  116  239 1    
   233  117  118 2    
   234  117  119 am   BACKBONE|DICT|INTERRES
   235  119  120 1    
   236  119  240 1    
   237  120  121 1    
   238  120  124 1    
   239  120  241 1    
   240  121  122 am   BACKBONE|DICT|INTERRES
   241  121  123 2    
   242  122  242 1    
   243  122  243 1    
   244  124  125 1    
   245  124  244 1    
   246  124  245 1    
   247  125  126 1    
   248  126  246 1    
   249  126  247 1    
@<TRIPOS>SUBSTRUCTURE
     1 UNK         1 GROUP             0       ****    0 ROOT    
