@<TRIPOS>MOLECULE
3R540
247   249    1
SMALL
USER_CHARGES


@<TRIPOS>ATOM
      1 CA          0.0564  -13.9126  -46.1889 C.3       0 UNK        -0.1800 
      2 C          -0.1298  -15.3428  -45.7050 C.2       0 UNK         0.5000 
      3 O           0.7513  -15.8875  -45.0445 O.2       0 UNK        -0.5000 
      4 N          -1.2772  -15.9461  -46.0250 N.am      1 UNK        -0.5000 
      5 CA         -1.6364  -17.3335  -45.7298 C.3       1 UNK         0.1400 
      6 C6         -1.8306  -18.1792  -47.0230 C.3       23 UNK        -0.0398 
      7 S7         -2.7406  -17.3790  -48.3996 S.3       23 UNK        -0.2404 
      8 C8         -1.4077  -16.5899  -49.3667 C.3       23 UNK        -0.0205 
      9 C9         -0.6137  -17.5908  -50.1915 C.ar      23 UNK        -0.0193 
     10 C10        -1.0369  -17.9386  -51.4765 C.ar      23 UNK        -0.1150 
     11 C11        -0.3118  -18.8588  -52.2398 C.ar      23 UNK        -0.0193 
     12 C12         0.8319  -19.4546  -51.6983 C.ar      23 UNK        -0.1150 
     13 C13         1.2557  -19.1229  -50.4074 C.ar      23 UNK        -0.0193 
     14 C14         0.5486  -18.1666  -49.6745 C.ar      23 UNK        -0.1150 
     15 C15         2.4483  -19.8246  -49.7743 C.3       23 UNK        -0.0205 
     16 S16         2.0282  -21.4900  -49.1503 S.3       23 UNK        -0.2404 
     17 C17         0.4842  -21.2008  -48.2183 C.3       23 UNK        -0.0398 
     18 CA         -0.0643  -22.4950  -47.5789 C.3       11 UNK         0.1400 
     19 N           0.7678  -22.9577  -46.4668 N.am      11 UNK        -0.5000 
     20 C           0.7030  -24.1822  -45.9282 C.2       10 UNK         0.5000 
     21 O          -0.0435  -25.0709  -46.3371 O.2       10 UNK        -0.5000 
     22 CA          1.5867  -24.4328  -44.6924 C.3       10 UNK         0.1400 
     23 CB          3.0308  -24.7461  -45.1115 C.3       10 UNK        -0.1800 
     24 N           1.5828  -23.2984  -43.7653 N.am      10 UNK        -0.5000 
     25 C           0.5054  -22.8895  -43.0803 C.2       9 UNK         0.5000 
     26 O          -0.5855  -23.4559  -43.1276 O.2       9 UNK        -0.5000 
     27 CA          0.6526  -21.6074  -42.2400 C.3       9 UNK         0.1400 
     28 CB          1.1415  -21.9401  -40.8235 C.3       9 UNK        -0.1800 
     29 N           1.5410  -20.6059  -42.8347 N.am      9 UNK        -0.5000 
     30 C           1.3776  -20.0275  -44.0306 C.2       8 UNK         0.5000 
     31 O           0.4297  -20.2678  -44.7821 O.2       8 UNK        -0.5000 
     32 CA          2.4599  -19.0103  -44.4361 C.3       8 UNK         0.1400 
     33 CB          2.4374  -18.6873  -45.9393 C.3       8 UNK        -0.1800 
     34 N           2.3264  -17.7649  -43.6874 N.am      8 UNK        -0.5000 
     35 C           2.7334  -17.5602  -42.4281 C.2       7 UNK         0.5000 
     36 O           3.2219  -18.4454  -41.7219 O.2       7 UNK        -0.5000 
     37 CA          2.5801  -16.1205  -41.8897 C.3       7 UNK         0.1400 
     38 CB          3.3624  -15.8688  -40.5849 C.3       7 UNK        -0.1800 
     39 N           2.8981  -15.0973  -42.8934 N.am      7 UNK        -0.5000 
     40 C           4.0605  -14.9378  -43.5463 C.2       6 UNK         0.5000 
     41 O           5.0618  -15.6234  -43.3353 O.2       6 UNK        -0.5000 
     42 CA          4.1408  -13.8357  -44.6158 C.3       6 UNK         0.1400 
     43 CB          3.8985  -14.4144  -46.0216 C.3       6 UNK        -0.1800 
     44 N           3.2399  -12.7074  -44.3595 N.am      6 UNK        -0.5000 
     45 C           3.4872  -11.4519  -44.7641 C.2       5 UNK         0.5000 
     46 O           4.4638  -11.1377  -45.4464 O.2       5 UNK        -0.5000 
     47 CA          2.4991  -10.3449  -44.3362 C.3       5 UNK         0.1400 
     48 CB          1.5146  -10.0333  -45.4742 C.3       5 UNK        -0.1800 
     49 N           1.7380  -10.6615  -43.1284 N.am      5 UNK        -0.5000 
     50 C           2.2539  -10.8444  -41.9057 C.2       4 UNK         0.5000 
     51 O           3.4403  -10.6550  -41.6346 O.2       4 UNK        -0.5000 
     52 CA          1.2982  -11.3433  -40.7993 C.3       4 UNK         0.1400 
     53 CB          1.0664  -10.2407  -39.7539 C.3       4 UNK        -0.1800 
     54 N          -0.0096  -11.8401  -41.2513 N.am      4 UNK        -0.5000 
     55 C          -0.2243  -12.8513  -42.1027 C.2       3 UNK         0.5000 
     56 O           0.6714  -13.4151  -42.7368 O.2       3 UNK        -0.5000 
     57 CA         -1.6942  -13.2612  -42.3169 C.3       3 UNK         0.1400 
     58 CB         -2.3416  -12.3778  -43.3942 C.3       3 UNK        -0.1800 
     59 N          -1.8228  -14.6620  -42.7187 N.am      3 UNK        -0.5000 
     60 C          -1.4563  -15.7130  -41.9737 C.2       2 UNK         0.5000 
     61 O          -1.0790  -15.6199  -40.8045 O.2       2 UNK        -0.5000 
     62 CA         -1.5287  -17.0907  -42.6569 C.3       2 UNK         0.1400 
     63 CB         -1.5087  -18.2461  -41.6407 C.3       2 UNK        -0.1800 
     64 N          -2.7417  -17.1941  -43.4777 N.am      2 UNK        -0.5000 
     65 C          -2.8766  -17.3101  -44.8088 C.2       1 UNK         0.5000 
     66 O          -3.9960  -17.3517  -45.3146 O.2       1 UNK        -0.5000 
     67 C          -1.5339  -22.3229  -47.1446 C.2       11 UNK         0.5000 
     68 O          -2.4345  -22.6551  -47.9151 O.2       11 UNK        -0.5000 
     69 N          -1.7590  -21.8502  -45.9105 N.am      12 UNK        -0.5000 
     70 CA         -3.0860  -21.7459  -45.3015 C.3       12 UNK         0.1400 
     71 CB         -2.9864  -20.9866  -43.9732 C.3       12 UNK        -0.1800 
     72 C          -3.7485  -23.1218  -45.1051 C.2       12 UNK         0.5000 
     73 O          -4.9160  -23.2850  -45.4580 O.2       12 UNK        -0.5000 
     74 N          -2.9777  -24.0994  -44.6060 N.am      13 UNK        -0.5000 
     75 CA         -3.3926  -25.4959  -44.4443 C.3       13 UNK         0.1400 
     76 CB         -2.3134  -26.2621  -43.6648 C.3       13 UNK        -0.1800 
     77 C          -3.6974  -26.1964  -45.7830 C.2       13 UNK         0.5000 
     78 O          -4.6170  -27.0126  -45.8465 O.2       13 UNK        -0.5000 
     79 N          -2.9492  -25.8360  -46.8345 N.am      14 UNK        -0.5000 
     80 CA         -3.1660  -26.2783  -48.2141 C.3       14 UNK         0.1400 
     81 CB         -1.8704  -26.0593  -49.0121 C.3       14 UNK        -0.1800 
     82 C          -4.3533  -25.5783  -48.9116 C.2       14 UNK         0.5000 
     83 O          -4.7110  -25.9805  -50.0193 O.2       14 UNK        -0.5000 
     84 N          -4.9281  -24.5478  -48.2708 N.am      15 UNK        -0.5000 
     85 CA         -6.0071  -23.6805  -48.7531 C.3       15 UNK         0.1400 
     86 CB         -7.3193  -24.4707  -48.9369 C.3       15 UNK        -0.1800 
     87 C          -5.6066  -22.8762  -50.0058 C.2       15 UNK         0.5000 
     88 O          -6.4303  -22.6648  -50.8991 O.2       15 UNK        -0.5000 
     89 N          -4.3474  -22.4166  -50.0454 N.am      16 UNK        -0.5000 
     90 CA         -3.7409  -21.7113  -51.1787 C.3       16 UNK         0.1400 
     91 CB         -2.2378  -21.5569  -50.9302 C.3       16 UNK        -0.1800 
     92 C          -4.3790  -20.3443  -51.4976 C.2       16 UNK         0.5000 
     93 O          -4.1998  -19.8362  -52.6026 O.2       16 UNK        -0.5000 
     94 N          -5.1453  -19.7884  -50.5490 N.am      17 UNK        -0.5000 
     95 CA         -5.9928  -18.6124  -50.7490 C.3       17 UNK         0.1400 
     96 CB         -6.5789  -18.1832  -49.3954 C.3       17 UNK        -0.1800 
     97 C          -7.1209  -18.8538  -51.7760 C.2       17 UNK         0.5000 
     98 O          -7.5298  -17.9102  -52.4537 O.2       17 UNK        -0.5000 
     99 N          -7.5871  -20.1067  -51.8813 N.am      18 UNK        -0.5000 
    100 CA        -8.5369  -20.5648  -52.8924 C.3       18 UNK         0.1400 
    101 CB        -9.5650  -21.5024  -52.2387 C.3       18 UNK        -0.1800 
    102 C         -7.7924  -21.2766  -54.0335 C.2       18 UNK         0.5000 
    103 O         -8.0072  -20.9507  -55.2021 O.2       18 UNK        -0.5000 
    104 N         -6.9079  -22.2187  -53.6791 N.am      19 UNK        -0.5000 
    105 CA        -6.0665  -22.9843  -54.5980 C.3       19 UNK         0.1400 
    106 CB        -5.7107  -24.3276  -53.9352 C.3       19 UNK        -0.1800 
    107 C         -4.8205  -22.1719  -55.0014 C.2       19 UNK         0.5000 
    108 O         -3.7013  -22.5185  -54.6180 O.2       19 UNK        -0.5000 
    109 N         -5.0439  -21.0804  -55.7439 N.am      20 UNK        -0.5000 
    110 CA        -4.0638  -20.0587  -56.1256 C.3       20 UNK         0.1400 
    111 CB        -4.8237  -18.7969  -56.5705 C.3       20 UNK        -0.1800 
    112 C         -3.0183  -20.5238  -57.1667 C.2       20 UNK         0.5000 
    113 O         -2.7926  -19.8468  -58.1723 O.2       20 UNK        -0.5000 
    114 N         -2.3630  -21.6584  -56.8924 N.am      21 UNK        -0.5000 
    115 CA        -1.2973  -22.2674  -57.6961 C.3       21 UNK         0.1400 
    116 CB        -0.9709  -23.6497  -57.1108 C.3       21 UNK        -0.1800 
    117 C         -0.0208  -21.4058  -57.7973 C.2       21 UNK         0.5000 
    118 O          0.7794  -21.6067  -58.7117 O.2       21 UNK        -0.5000 
    119 N          0.1301  -20.4519  -56.8713 N.am      22 UNK        -0.5000 
    120 CA         1.1343  -19.3797  -56.8903 C.3       22 UNK         0.1400 
    121 C          0.9402  -18.3230  -58.0223 C.2       22 UNK         0.5000 
    122 N         -0.2022  -18.2630  -58.6997 N.am      22 UNK        -0.7600 
    123 O          1.8529  -17.5492  -58.2985 O.2       22 UNK        -0.5000 
    124 C124        1.2615  -18.7098  -55.4950 C.3       23 UNK        -0.0398 
    125 S125       -0.3170  -18.0157  -54.8809 S.3       23 UNK        -0.2404 
    126 C126       -0.8053  -19.2388  -53.6264 C.3       23 UNK        -0.0205 
    127 H127       -0.8780  -13.4817  -46.5483 H         1 UNK         0.0600 
    128 H128        0.4300  -13.2874  -45.3798 H         1 UNK         0.0600 
    129 H129        0.7805  -13.8839  -47.0026 H         1 UNK         0.0600 
    130 H130       -1.9751  -15.4412  -46.5541 H         1 UNK         0.3000 
    131 H131       -0.8308  -17.8387  -45.2001 H         1 UNK         0.0600 
    132 H132       -0.8541  -18.4865  -47.3864 H         1 UNK         0.0800 
    133 H133       -2.3392  -19.1149  -46.7878 H         1 UNK         0.0800 
    134 H134       -0.7406  -16.0343  -48.7077 H         1 UNK         0.0800 
    135 H135       -1.8556  -15.8492  -50.0307 H         1 UNK         0.0800 
    136 H136       -1.9359  -17.4967  -51.8835 H         1 UNK         0.1150 
    137 H137        1.3775  -20.1940  -52.2674 H         1 UNK         0.1150 
    138 H138        0.8878  -17.8951  -48.6852 H         1 UNK         0.1150 
    139 H139        2.8515  -19.2267  -48.9561 H         1 UNK         0.0800 
    140 H140        3.2511  -19.9132  -50.5075 H         1 UNK         0.0800 
    141 H141       -0.2449  -20.7904  -48.9136 H         1 UNK         0.0800 
    142 H142        0.6497  -20.4330  -47.4640 H         1 UNK         0.0800 
    143 H143       -0.0579  -23.2728  -48.3455 H         1 UNK         0.0600 
    144 H144        1.3799  -22.2739  -46.0484 H         1 UNK         0.3000 
    145 H145        1.1862  -25.3027  -44.1674 H         1 UNK         0.0600 
    146 H146        3.0626  -25.5985  -45.7916 H         1 UNK         0.0600 
    147 H147        3.6458  -24.9983  -44.2475 H         1 UNK         0.0600 
    148 H148        3.4970  -23.9020  -45.6212 H         1 UNK         0.0600 
    149 H149        2.4437  -22.7813  -43.6656 H         1 UNK         0.3000 
    150 H150       -0.3385  -21.1616  -42.1576 H         1 UNK         0.0600 
    151 H151        2.1481  -22.3601  -40.8331 H         1 UNK         0.0600 
    152 H152        0.4854  -22.6680  -40.3441 H         1 UNK         0.0600 
    153 H153        1.1546  -21.0509  -40.1928 H         1 UNK         0.0600 
    154 H154        2.3117  -20.2817  -42.2610 H         1 UNK         0.3000 
    155 H155        3.4332  -19.4512  -44.2110 H         1 UNK         0.0600 
    156 H156        1.4773  -18.2788  -46.2548 H         1 UNK         0.0600 
    157 H157        2.6316  -19.5840  -46.5271 H         1 UNK         0.0600 
    158 H158        3.2073  -17.9598  -46.1973 H         1 UNK         0.0600 
    159 H159        1.8842  -16.9930  -44.1854 H         1 UNK         0.3000 
    160 H160        1.5220  -15.9979  -41.6611 H         1 UNK         0.0600 
    161 H161        4.4339  -16.0198  -40.7181 H         1 UNK         0.0600 
    162 H162        3.0321  -16.5448  -39.7954 H         1 UNK         0.0600 
    163 H163        3.2081  -14.8514  -40.2253 H         1 UNK         0.0600 
    164 H164        2.1051  -14.5098  -43.1356 H         1 UNK         0.3000 
    165 H165        5.1684  -13.4670  -44.5788 H         1 UNK         0.0600 
    166 H166        4.5821  -15.2389  -46.2271 H         1 UNK         0.0600 
    167 H167        2.8862  -14.7988  -46.1289 H         1 UNK         0.0600 
    168 H168        4.0558  -13.6630  -46.7952 H         1 UNK         0.0600 
    169 H169        2.4258  -12.8815  -43.7822 H         1 UNK         0.3000 
    170 H170        3.0849   -9.4458  -44.1347 H         1 UNK         0.0600 
    171 H171        0.8698   -9.1922  -45.2190 H         1 UNK         0.0600 
    172 H172        0.8773  -10.8882  -45.7020 H         1 UNK         0.0600 
    173 H173        2.0457   -9.7675  -46.3891 H         1 UNK         0.0600 
    174 H174        0.7545  -10.8485  -43.2520 H         1 UNK         0.3000 
    175 H175        1.8036  -12.1767  -40.3072 H         1 UNK         0.0600 
    176 H176        2.0119   -9.8688  -39.3567 H         1 UNK         0.0600 
    177 H177        0.5326   -9.3904  -40.1802 H         1 UNK         0.0600 
    178 H178        0.4875  -10.6125  -38.9082 H         1 UNK         0.0600 
    179 H179       -0.8103  -11.4130  -40.8081 H         1 UNK         0.3000 
    180 H180       -2.2344  -13.1283  -41.3773 H         1 UNK         0.0600 
    181 H181       -1.8365  -12.4764  -44.3554 H         1 UNK         0.0600 
    182 H182       -2.3063  -11.3246  -43.1128 H         1 UNK         0.0600 
    183 H183       -3.3906  -12.6370  -43.5390 H         1 UNK         0.0600 
    184 H184       -2.1276  -14.8313  -43.6645 H         1 UNK         0.3000 
    185 H185       -0.6184  -17.1715  -43.2438 H         1 UNK         0.0600 
    186 H186       -0.5907  -18.2375  -41.0513 H         1 UNK         0.0600 
    187 H187       -2.3489  -18.1889  -40.9478 H         1 UNK         0.0600 
    188 H188       -1.5556  -19.2101  -42.1410 H         1 UNK         0.0600 
    189 H189       -3.5970  -17.1338  -42.9438 H         1 UNK         0.3000 
    190 H190       -0.9682  -21.5444  -45.3524 H         1 UNK         0.3000 
    191 H191       -3.7144  -21.1625  -45.9780 H         1 UNK         0.0600 
    192 H192       -2.4313  -20.0599  -44.0996 H         1 UNK         0.0600 
    193 H193       -3.9769  -20.7298  -43.5962 H         1 UNK         0.0600 
    194 H194       -2.4857  -21.5728  -43.2036 H         1 UNK         0.0600 
    195 H195       -2.0408  -23.8677  -44.2858 H         1 UNK         0.3000 
    196 H196       -4.3099  -25.5034  -43.8521 H         1 UNK         0.0600 
    197 H197       -2.6044  -27.3020  -43.5121 H         1 UNK         0.0600 
    198 H198       -2.1513  -25.8217  -42.6808 H         1 UNK         0.0600 
    199 H199       -1.3591  -26.2611  -44.1922 H         1 UNK         0.0600 
    200 H200       -2.1685  -25.2087  -46.6798 H         1 UNK         0.3000 
    201 H201       -3.3806  -27.3488  -48.2038 H         1 UNK         0.0600 
    202 H202       -1.9658  -26.4436  -50.0283 H         1 UNK         0.0600 
    203 H203       -1.0283  -26.5739  -48.5491 H         1 UNK         0.0600 
    204 H204       -1.6187  -25.0016  -49.0859 H         1 UNK         0.0600 
    205 H205       -4.5515  -24.2924  -47.3664 H         1 UNK         0.3000 
    206 H206       -6.1769  -22.9447  -47.9661 H         1 UNK         0.0600 
    207 H207       -7.5747  -25.0253  -48.0340 H         1 UNK         0.0600 
    208 H208       -8.1517  -23.7994  -49.1515 H         1 UNK         0.0600 
    209 H209       -7.2547  -25.1811  -49.7615 H         1 UNK         0.0600 
    210 H210       -3.7303  -22.6104  -49.2590 H         1 UNK         0.3000 
    211 H211       -3.8730  -22.3486  -52.0521 H         1 UNK         0.0600 
    212 H212       -1.7285  -21.2605  -51.8455 H         1 UNK         0.0600 
    213 H213       -1.7824  -22.4902  -50.5991 H         1 UNK         0.0600 
    214 H214       -2.0464  -20.7909  -50.1797 H         1 UNK         0.0600 
    215 H215       -5.2183  -20.2592  -49.6601 H         1 UNK         0.3000 
    216 H216       -5.3635  -17.8033  -51.1256 H         1 UNK         0.0600 
    217 H217       -5.7913  -17.9509  -48.6784 H         1 UNK         0.0600 
    218 H218       -7.2075  -18.9628  -48.9632 H         1 UNK         0.0600 
    219 H219       -7.1927  -17.2880  -49.5029 H         1 UNK         0.0600 
    220 H220       -7.1633  -20.8309  -51.3121 H         1 UNK         0.3000 
    221 H221       -9.0785  -19.7179  -53.3190 H         1 UNK         0.0600 
    222 H222       -9.0917  -22.3711  -51.7790 H         1 UNK         0.0600 
    223 H223      -10.1308  -20.9837  -51.4647 H         1 UNK         0.0600 
    224 H224      -10.2815  -21.8692  -52.9747 H         1 UNK         0.0600 
    225 H225       -6.7728  -22.4128  -52.6896 H         1 UNK         0.3000 
    226 H226       -6.6295  -23.2021  -55.5080 H         1 UNK         0.0600 
    227 H227       -6.6080  -24.9043  -53.7104 H         1 UNK         0.0600 
    228 H228       -5.0897  -24.9363  -54.5934 H         1 UNK         0.0600 
    229 H229       -5.1639  -24.1897  -53.0018 H         1 UNK         0.0600 
    230 H230       -6.0081  -20.8784  -55.9811 H         1 UNK         0.3000 
    231 H231       -3.5020  -19.7946  -55.2294 H         1 UNK         0.0600 
    232 H232       -5.4191  -18.9814  -57.4654 H         1 UNK         0.0600 
    233 H233       -4.1351  -17.9805  -56.7927 H         1 UNK         0.0600 
    234 H234       -5.4948  -18.4458  -55.7860 H         1 UNK         0.0600 
    235 H235       -2.6306  -22.1465  -56.0396 H         1 UNK         0.3000 
    236 H236       -1.6796  -22.4026  -58.7097 H         1 UNK         0.0600 
    237 H237       -0.6067  -23.5749  -56.0854 H         1 UNK         0.0600 
    238 H238       -1.8501  -24.2943  -57.1078 H         1 UNK         0.0600 
    239 H239       -0.2016  -24.1530  -57.6980 H         1 UNK         0.0600 
    240 H240       -0.5920  -20.3582  -56.1743 H         1 UNK         0.3000 
    241 H241        2.0940  -19.8547  -57.1023 H         1 UNK         0.0600 
    242 H242       -0.9777  -18.8779  -58.4818 H         1 UNK         0.3800 
    243 H243       -0.3052  -17.5769  -59.4303 H         1 UNK         0.3800 
    244 H244        1.6443  -19.4334  -54.7745 H         1 UNK         0.0800 
    245 H245        2.0036  -17.9100  -55.5188 H         1 UNK         0.0800 
    246 H246       -1.8925  -19.2930  -53.6093 H         1 UNK         0.0800 
    247 H247       -0.4604  -20.2361  -53.9027 H         1 UNK         0.0800 
@<TRIPOS>BOND
     1    1    2 1    
     2    1  127 1    
     3    1  128 1    
     4    1  129 1    
     5    2    3 2    
     6    2    4 am   BACKBONE|DICT|INTERRES
     7    4    5 1    
     8    4  130 1    
     9    5    6 1    
    10    5   65 1    
    11    5  131 1    
    12    6    7 1    
    13    6  132 1    
    14    6  133 1    
    15    7    8 1    
    16    8    9 1    
    17    8  134 1    
    18    8  135 1    
    19    9   10 ar   
    20    9   14 ar   
    21   10   11 ar   
    22   10  136 1    
    23   11   12 ar   
    24   11  126 1    
    25   12   13 ar   
    26   12  137 1    
    27   13   14 ar   
    28   13   15 1    
    29   14  138 1    
    30   15   16 1    
    31   15  139 1    
    32   15  140 1    
    33   16   17 1    
    34   17   18 1    
    35   17  141 1    
    36   17  142 1    
    37   18   19 1    
    38   18   67 1    
    39   18  143 1    
    40   19   20 am   BACKBONE|DICT|INTERRES
    41   19  144 1    
    42   20   21 2    
    43   20   22 1    
    44   22   23 1    
    45   22   24 1    
    46   22  145 1    
    47   23  146 1    
    48   23  147 1    
    49   23  148 1    
    50   24   25 am   BACKBONE|DICT|INTERRES
    51   24  149 1    
    52   25   26 2    
    53   25   27 1    
    54   27   28 1    
    55   27   29 1    
    56   27  150 1    
    57   28  151 1    
    58   28  152 1    
    59   28  153 1    
    60   29   30 am   BACKBONE|DICT|INTERRES
    61   29  154 1    
    62   30   31 2    
    63   30   32 1    
    64   32   33 1    
    65   32   34 1    
    66   32  155 1    
    67   33  156 1    
    68   33  157 1    
    69   33  158 1    
    70   34   35 am   BACKBONE|DICT|INTERRES
    71   34  159 1    
    72   35   36 2    
    73   35   37 1    
    74   37   38 1    
    75   37   39 1    
    76   37  160 1    
    77   38  161 1    
    78   38  162 1    
    79   38  163 1    
    80   39   40 am   BACKBONE|DICT|INTERRES
    81   39  164 1    
    82   40   41 2    
    83   40   42 1    
    84   42   43 1    
    85   42   44 1    
    86   42  165 1    
    87   43  166 1    
    88   43  167 1    
    89   43  168 1    
    90   44   45 am   BACKBONE|DICT|INTERRES
    91   44  169 1    
    92   45   46 2    
    93   45   47 1    
    94   47   48 1    
    95   47   49 1    
    96   47  170 1    
    97   48  171 1    
    98   48  172 1    
    99   48  173 1    
   100   49   50 am   BACKBONE|DICT|INTERRES
   101   49  174 1    
   102   50   51 2    
   103   50   52 1    
   104   52   53 1    
   105   52   54 1    
   106   52  175 1    
   107   53  176 1    
   108   53  177 1    
   109   53  178 1    
   110   54   55 am   BACKBONE|DICT|INTERRES
   111   54  179 1    
   112   55   56 2    
   113   55   57 1    
   114   57   58 1    
   115   57   59 1    
   116   57  180 1    
   117   58  181 1    
   118   58  182 1    
   119   58  183 1    
   120   59   60 am   BACKBONE|DICT|INTERRES
   121   59  184 1    
   122   60   61 2    
   123   60   62 1    
   124   62   63 1    
   125   62   64 1    
   126   62  185 1    
   127   63  186 1    
   128   63  187 1    
   129   63  188 1    
   130   64   65 am   BACKBONE|DICT|INTERRES
   131   64  189 1    
   132   65   66 2    
   133   67   68 2    
   134   67   69 am   BACKBONE|DICT|INTERRES
   135   69   70 1    
   136   69  190 1    
   137   70   71 1    
   138   70   72 1    
   139   70  191 1    
   140   71  192 1    
   141   71  193 1    
   142   71  194 1    
   143   72   73 2    
   144   72   74 am   BACKBONE|DICT|INTERRES
   145   74   75 1    
   146   74  195 1    
   147   75   76 1    
   148   75   77 1    
   149   75  196 1    
   150   76  197 1    
   151   76  198 1    
   152   76  199 1    
   153   77   78 2    
   154   77   79 am   BACKBONE|DICT|INTERRES
   155   79   80 1    
   156   79  200 1    
   157   80   81 1    
   158   80   82 1    
   159   80  201 1    
   160   81  202 1    
   161   81  203 1    
   162   81  204 1    
   163   82   83 2    
   164   82   84 am   BACKBONE|DICT|INTERRES
   165   84   85 1    
   166   84  205 1    
   167   85   86 1    
   168   85   87 1    
   169   85  206 1    
   170   86  207 1    
   171   86  208 1    
   172   86  209 1    
   173   87   88 2    
   174   87   89 am   BACKBONE|DICT|INTERRES
   175   89   90 1    
   176   89  210 1    
   177   90   91 1    
   178   90   92 1    
   179   90  211 1    
   180   91  212 1    
   181   91  213 1    
   182   91  214 1    
   183   92   93 2    
   184   92   94 am   BACKBONE|DICT|INTERRES
   185   94   95 1    
   186   94  215 1    
   187   95   96 1    
   188   95   97 1    
   189   95  216 1    
   190   96  217 1    
   191   96  218 1    
   192   96  219 1    
   193   97   98 2    
   194   97   99 am   BACKBONE|DICT|INTERRES
   195   99  100 1    
   196   99  220 1    
   197  100  101 1    
   198  100  102 1    
   199  100  221 1    
   200  101  222 1    
   201  101  223 1    
   202  101  224 1    
   203  102  103 2    
   204  102  104 am   BACKBONE|DICT|INTERRES
   205  104  105 1    
   206  104  225 1    
   207  105  106 1    
   208  105  107 1    
   209  105  226 1    
   210  106  227 1    
   211  106  228 1    
   212  106  229 1    
   213  107  108 2    
   214  107  109 am   BACKBONE|DICT|INTERRES
   215  109  110 1    
   216  109  230 1    
   217  110  111 1    
   218  110  112 1    
   219  110  231 1    
   220  111  232 1    
   221  111  233 1    
   222  111  234 1    
   223  112  113 2    
   224  112  114 am   BACKBONE|DICT|INTERRES
   225  114  115 1    
   226  114  235 1    
   227  115  116 1    
   228  115  117 1    
   229  115  236 1    
   230  116  237 1    
   231  116  238 1    
   232  116  239 1    
   233  117  118 2    
   234  117  119 am   BACKBONE|DICT|INTERRES
   235  119  120 1    
   236  119  240 1    
   237  120  121 1    
   238  120  124 1    
   239  120  241 1    
   240  121  122 am   BACKBONE|DICT|INTERRES
   241  121  123 2    
   242  122  242 1    
   243  122  243 1    
   244  124  125 1    
   245  124  244 1    
   246  124  245 1    
   247  125  126 1    
   248  126  246 1    
   249  126  247 1    
@<TRIPOS>SUBSTRUCTURE
     1 UNK         1 GROUP             0       ****    0 ROOT    
