@<TRIPOS>MOLECULE
3R540
247   249    1
SMALL
USER_CHARGES


@<TRIPOS>ATOM
      1 CA          1.3608  -12.5161  -48.3399 C.3       0 UNK        -0.1800 
      2 C           1.2693  -13.7716  -47.4778 C.2       0 UNK         0.5000 
      3 O           0.2703  -13.9555  -46.7885 O.2       0 UNK        -0.5000 
      4 N           2.2714  -14.6598  -47.4724 N.am      1 UNK        -0.5000 
      5 CA          3.5375  -14.5944  -48.2190 C.3       1 UNK         0.1400 
      6 C6          3.6081  -15.6439  -49.3619 C.3       23 UNK        -0.0398 
      7 S7          2.2823  -15.4330  -50.5976 S.3       23 UNK        -0.2404 
      8 C8          1.1364  -16.7584  -50.1099 C.3       23 UNK        -0.0205 
      9 C9         -0.2895  -16.4240  -50.5117 C.ar      23 UNK        -0.0193 
     10 C10        -0.7345  -16.6594  -51.8154 C.ar      23 UNK        -0.1150 
     11 C11        -2.0538  -16.3696  -52.1785 C.ar      23 UNK        -0.0193 
     12 C12        -2.9321  -15.8547  -51.2189 C.ar      23 UNK        -0.1150 
     13 C13        -2.4994  -15.6241  -49.9093 C.ar      23 UNK        -0.0193 
     14 C14        -1.1711  -15.8896  -49.5695 C.ar      23 UNK        -0.1150 
     15 C15        -3.4658  -15.0945  -48.8603 C.3       23 UNK        -0.0205 
     16 S16        -4.3435  -16.4444  -48.0040 S.3       23 UNK        -0.2404 
     17 C17        -3.0724  -17.0672  -46.8472 C.3       23 UNK        -0.0398 
     18 CA         -2.3056  -18.3000  -47.3826 C.3       11 UNK         0.1400 
     19 N          -1.0470  -18.5148  -46.6707 N.am      11 UNK        -0.5000 
     20 C          -0.0504  -19.2987  -47.1042 C.2       10 UNK         0.5000 
     21 O          -0.0585  -19.8831  -48.1859 O.2       10 UNK        -0.5000 
     22 CA          1.1383  -19.4988  -46.1463 C.3       10 UNK         0.1400 
     23 CB          2.1109  -18.3111  -46.2226 C.3       10 UNK        -0.1800 
     24 N           0.7112  -19.7006  -44.7607 N.am      10 UNK        -0.5000 
     25 C          -0.0456  -20.7232  -44.3371 C.2       9 UNK         0.5000 
     26 O          -0.4298  -21.6378  -45.0647 O.2       9 UNK        -0.5000 
     27 CA         -0.4904  -20.6938  -42.8652 C.3       9 UNK         0.1400 
     28 CB          0.6079  -21.2460  -41.9440 C.3       9 UNK        -0.1800 
     29 N          -0.8696  -19.3487  -42.4338 N.am      9 UNK        -0.5000 
     30 C          -1.9671  -18.7018  -42.8504 C.2       8 UNK         0.5000 
     31 O          -2.7912  -19.1812  -43.6291 O.2       8 UNK        -0.5000 
     32 CA         -2.1453  -17.2564  -42.3497 C.3       8 UNK         0.1400 
     33 CB         -2.6912  -17.2384  -40.9143 C.3       8 UNK        -0.1800 
     34 N          -0.9040  -16.4836  -42.4070 N.am      8 UNK        -0.5000 
     35 C          -0.2434  -16.1981  -43.5376 C.2       7 UNK         0.5000 
     36 O          -0.6267  -16.5370  -44.6557 O.2       7 UNK        -0.5000 
     37 CA          1.0970  -15.4588  -43.3869 C.3       7 UNK         0.1400 
     38 CB          0.8570  -13.9479  -43.2589 C.3       7 UNK        -0.1800 
     39 N           1.8988  -15.9145  -42.2491 N.am      7 UNK        -0.5000 
     40 C           2.2857  -17.1735  -41.9996 C.2       6 UNK         0.5000 
     41 O           1.9783  -18.1307  -42.7086 O.2       6 UNK        -0.5000 
     42 CA          3.1476  -17.4148  -40.7483 C.3       6 UNK         0.1400 
     43 CB          4.6334  -17.4894  -41.1295 C.3       6 UNK        -0.1800 
     44 N           2.9754  -16.3618  -39.7468 N.am      6 UNK        -0.5000 
     45 C           2.2433  -16.4657  -38.6310 C.2       5 UNK         0.5000 
     46 O           1.6173  -17.4784  -38.3162 O.2       5 UNK        -0.5000 
     47 CA          2.2073  -15.2364  -37.6985 C.3       5 UNK         0.1400 
     48 CB          3.2866  -15.3598  -36.6121 C.3       5 UNK        -0.1800 
     49 N           2.3831  -13.9607  -38.3972 N.am      5 UNK        -0.5000 
     50 C           1.4674  -13.4046  -39.2012 C.2       4 UNK         0.5000 
     51 O           0.3609  -13.8997  -39.4185 O.2       4 UNK        -0.5000 
     52 CA          1.8558  -12.0863  -39.9051 C.3       4 UNK         0.1400 
     53 CB          1.4628  -10.8850  -39.0317 C.3       4 UNK        -0.1800 
     54 N           3.2634  -11.9415  -40.3092 N.am      4 UNK        -0.5000 
     55 C           3.9910  -12.8391  -40.9872 C.2       3 UNK         0.5000 
     56 O           3.6375  -14.0035  -41.1739 O.2       3 UNK        -0.5000 
     57 CA          5.3511  -12.3715  -41.5411 C.3       3 UNK         0.1400 
     58 CB          6.4404  -12.5146  -40.4675 C.3       3 UNK        -0.1800 
     59 N           5.7413  -13.1545  -42.7186 N.am      3 UNK        -0.5000 
     60 C           5.0681  -13.1736  -43.8775 C.2       2 UNK         0.5000 
     61 O           4.1490  -12.3934  -44.1460 O.2       2 UNK        -0.5000 
     62 CA          5.4704  -14.2574  -44.8937 C.3       2 UNK         0.1400 
     63 CB          5.4620  -15.6676  -44.2676 C.3       2 UNK        -0.1800 
     64 N           4.5309  -14.2151  -46.0090 N.am      2 UNK        -0.5000 
     65 C           4.7171  -14.7276  -47.2305 C.2       1 UNK         0.5000 
     66 O           5.7548  -15.2961  -47.5736 O.2       1 UNK        -0.5000 
     67 C          -3.1677  -19.5758  -47.4178 C.2       11 UNK         0.5000 
     68 O          -3.6754  -19.9183  -48.4833 O.2       11 UNK        -0.5000 
     69 N          -3.2734  -20.3032  -46.2958 N.am      12 UNK        -0.5000 
     70 CA         -3.9814  -21.5868  -46.2218 C.3       12 UNK         0.1400 
     71 CB         -4.0268  -22.0743  -44.7667 C.3       12 UNK        -0.1800 
     72 C          -3.3787  -22.6673  -47.1431 C.2       12 UNK         0.5000 
     73 O          -4.1223  -23.4303  -47.7568 O.2       12 UNK        -0.5000 
     74 N          -2.0463  -22.6820  -47.2623 N.am      13 UNK        -0.5000 
     75 CA         -1.3005  -23.5657  -48.1574 C.3       13 UNK         0.1400 
     76 CB          0.1688  -23.5914  -47.7064 C.3       13 UNK        -0.1800 
     77 C          -1.3994  -23.1844  -49.6502 C.2       13 UNK         0.5000 
     78 O          -1.0068  -23.9954  -50.4897 O.2       13 UNK        -0.5000 
     79 N          -1.8815  -21.9737  -49.9619 N.am      14 UNK        -0.5000 
     80 CA         -1.9412  -21.4322  -51.3175 C.3       14 UNK         0.1400 
     81 CB         -1.2289  -20.0705  -51.3506 C.3       14 UNK        -0.1800 
     82 C          -3.3828  -21.2925  -51.8238 C.2       14 UNK         0.5000 
     83 O          -3.6827  -21.7782  -52.9122 O.2       14 UNK        -0.5000 
     84 N          -4.2327  -20.5960  -51.0613 N.am      15 UNK        -0.5000 
     85 CA         -5.5494  -20.1376  -51.4964 C.3       15 UNK         0.1400 
     86 CB         -5.8545  -18.7886  -50.8240 C.3       15 UNK        -0.1800 
     87 C          -6.6642  -21.1398  -51.1801 C.2       15 UNK         0.5000 
     88 O          -7.5688  -21.3133  -51.9989 O.2       15 UNK        -0.5000 
     89 N          -6.5991  -21.7776  -50.0036 N.am      16 UNK        -0.5000 
     90 CA         -7.6210  -22.6977  -49.4980 C.3       16 UNK         0.1400 
     91 CB         -7.5840  -22.7077  -47.9594 C.3       16 UNK        -0.1800 
     92 C          -7.4700  -24.0994  -50.1207 C.2       16 UNK         0.5000 
     93 O          -7.1983  -25.0710  -49.4134 O.2       16 UNK        -0.5000 
     94 N          -7.6377  -24.1571  -51.4490 N.am      17 UNK        -0.5000 
     95 CA         -7.4316  -25.3025  -52.3336 C.3       17 UNK         0.1400 
     96 CB         -8.4417  -26.4343  -52.0404 C.3       17 UNK        -0.1800 
     97 C          -5.9577  -25.7462  -52.3134 C.2       17 UNK         0.5000 
     98 O          -5.1358  -25.1037  -52.9691 O.2       17 UNK        -0.5000 
     99 N          -5.6520  -26.8346  -51.5907 N.am      18 UNK        -0.5000 
    100 CA        -4.3159  -27.4127  -51.3787 C.3       18 UNK         0.1400 
    101 CB        -3.4523  -26.4490  -50.5380 C.3       18 UNK        -0.1800 
    102 C         -3.6093  -27.8502  -52.6829 C.2       18 UNK         0.5000 
    103 O         -2.3799  -27.9125  -52.7259 O.2       18 UNK        -0.5000 
    104 N         -4.4089  -28.1205  -53.7275 N.am      19 UNK        -0.5000 
    105 CA        -4.0156  -28.3916  -55.1155 C.3       19 UNK         0.1400 
    106 CB        -3.2366  -29.7199  -55.2182 C.3       19 UNK        -0.1800 
    107 C         -3.2811  -27.2118  -55.7964 C.2       19 UNK         0.5000 
    108 O         -2.5624  -27.4298  -56.7737 O.2       19 UNK        -0.5000 
    109 N         -3.4768  -25.9894  -55.2823 N.am      20 UNK        -0.5000 
    110 CA        -2.8502  -24.7628  -55.7660 C.3       20 UNK         0.1400 
    111 CB        -1.9257  -24.1987  -54.6727 C.3       20 UNK        -0.1800 
    112 C         -3.9179  -23.7409  -56.1780 C.2       20 UNK         0.5000 
    113 O         -3.9197  -23.3015  -57.3289 O.2       20 UNK        -0.5000 
    114 N         -4.7936  -23.3709  -55.2307 N.am      21 UNK        -0.5000 
    115 CA        -5.8616  -22.3654  -55.3372 C.3       21 UNK         0.1400 
    116 CB        -7.0396  -22.9399  -56.1488 C.3       21 UNK        -0.1800 
    117 C         -5.3794  -20.9923  -55.8680 C.2       21 UNK         0.5000 
    118 O         -6.1056  -20.3240  -56.6062 O.2       21 UNK        -0.5000 
    119 N         -4.1413  -20.6243  -55.5107 N.am      22 UNK        -0.5000 
    120 CA        -3.3714  -19.4737  -56.0199 C.3       22 UNK         0.1400 
    121 C         -3.0863  -19.4976  -57.5566 C.2       22 UNK         0.5000 
    122 N         -3.2095  -20.6261  -58.2457 N.am      22 UNK        -0.7600 
    123 O         -2.7067  -18.4841  -58.1376 O.2       22 UNK        -0.5000 
    124 C124       -3.9298  -18.1086  -55.5274 C.3       23 UNK        -0.0398 
    125 S125       -3.7581  -17.9246  -53.7207 S.3       23 UNK        -0.2404 
    126 C126       -2.5225  -16.5942  -53.6094 C.3       23 UNK        -0.0205 
    127 H127        2.1695  -11.8713  -47.9961 H         1 UNK         0.0600 
    128 H128        0.4326  -11.9470  -48.2848 H         1 UNK         0.0600 
    129 H129        1.5301  -12.7711  -49.3856 H         1 UNK         0.0600 
    130 H130        2.1819  -15.4674  -46.8751 H         1 UNK         0.3000 
    131 H131        3.6665  -13.6110  -48.6714 H         1 UNK         0.0600 
    132 H132        4.5551  -15.5560  -49.8972 H         1 UNK         0.0800 
    133 H133        3.5839  -16.6586  -48.9617 H         1 UNK         0.0800 
    134 H134        1.1825  -16.9140  -49.0312 H         1 UNK         0.0800 
    135 H135        1.4459  -17.6986  -50.5688 H         1 UNK         0.0800 
    136 H136       -0.0494  -17.0655  -52.5461 H         1 UNK         0.1150 
    137 H137       -3.9567  -15.6438  -51.4915 H         1 UNK         0.1150 
    138 H138       -0.8318  -15.7098  -48.5592 H         1 UNK         0.1150 
    139 H139       -2.9408  -14.4692  -48.1361 H         1 UNK         0.0800 
    140 H140       -4.2030  -14.4476  -49.3380 H         1 UNK         0.0800 
    141 H141       -3.5435  -17.2914  -45.8885 H         1 UNK         0.0800 
    142 H142       -2.3740  -16.2541  -46.6456 H         1 UNK         0.0800 
    143 H143       -2.0371  -18.0995  -48.4197 H         1 UNK         0.0600 
    144 H144       -0.9308  -18.0126  -45.7940 H         1 UNK         0.3000 
    145 H145        1.6726  -20.3977  -46.4606 H         1 UNK         0.0600 
    146 H146        2.9588  -18.4491  -45.5513 H         1 UNK         0.0600 
    147 H147        2.5086  -18.2003  -47.2317 H         1 UNK         0.0600 
    148 H148        1.6222  -17.3750  -45.9563 H         1 UNK         0.0600 
    149 H149        1.0264  -19.0174  -44.0766 H         1 UNK         0.3000 
    150 H150       -1.3653  -21.3396  -42.7680 H         1 UNK         0.0600 
    151 H151        0.8726  -22.2661  -42.2251 H         1 UNK         0.0600 
    152 H152        0.2760  -21.2711  -40.9060 H         1 UNK         0.0600 
    153 H153        1.5185  -20.6485  -41.9905 H         1 UNK         0.0600 
    154 H154       -0.2058  -18.8555  -41.8548 H         1 UNK         0.3000 
    155 H155       -2.8748  -16.7681  -42.9994 H         1 UNK         0.0600 
    156 H156       -1.9876  -17.6815  -40.2082 H         1 UNK         0.0600 
    157 H157       -3.6244  -17.7989  -40.8447 H         1 UNK         0.0600 
    158 H158       -2.8993  -16.2201  -40.5850 H         1 UNK         0.0600 
    159 H159       -0.5136  -16.1701  -41.5299 H         1 UNK         0.3000 
    160 H160        1.6813  -15.6364  -44.2910 H         1 UNK         0.0600 
    161 H161        0.3072  -13.7060  -42.3491 H         1 UNK         0.0600 
    162 H162        0.2770  -13.5699  -44.1013 H         1 UNK         0.0600 
    163 H163        1.7967  -13.3973  -43.2409 H         1 UNK         0.0600 
    164 H164        2.2917  -15.1832  -41.6644 H         1 UNK         0.3000 
    165 H165        2.8560  -18.3834  -40.3371 H         1 UNK         0.0600 
    166 H166        5.2396  -17.7990  -40.2782 H         1 UNK         0.0600 
    167 H167        4.8018  -18.2120  -41.9293 H         1 UNK         0.0600 
    168 H168        5.0080  -16.5238  -41.4689 H         1 UNK         0.0600 
    169 H169        3.4011  -15.4670  -39.9691 H         1 UNK         0.3000 
    170 H170        1.2316  -15.2252  -37.2079 H         1 UNK         0.0600 
    171 H171        3.1714  -16.2877  -36.0502 H         1 UNK         0.0600 
    172 H172        4.2900  -15.3573  -37.0397 H         1 UNK         0.0600 
    173 H173        3.2231  -14.5390  -35.8974 H         1 UNK         0.0600 
    174 H174        3.2712  -13.4943  -38.2847 H         1 UNK         0.3000 
    175 H175        1.2657  -12.0358  -40.8216 H         1 UNK         0.0600 
    176 H176        2.0625  -10.8376  -38.1219 H         1 UNK         0.0600 
    177 H177        1.5920   -9.9454  -39.5693 H         1 UNK         0.0600 
    178 H178        0.4153  -10.9429  -38.7321 H         1 UNK         0.0600 
    179 H179        3.6582  -11.0222  -40.1722 H         1 UNK         0.3000 
    180 H180        5.2710  -11.3228  -41.8341 H         1 UNK         0.0600 
    181 H181        6.5540  -13.5507  -40.1452 H         1 UNK         0.0600 
    182 H182        6.2020  -11.9206  -39.5843 H         1 UNK         0.0600 
    183 H183        7.4064  -12.1700  -40.8372 H         1 UNK         0.0600 
    184 H184        6.4684  -13.8383  -42.5720 H         1 UNK         0.3000 
    185 H185        6.4720  -14.0208  -45.2579 H         1 UNK         0.0600 
    186 H186        6.1985  -15.7548  -43.4689 H         1 UNK         0.0600 
    187 H187        4.4847  -15.9092  -43.8488 H         1 UNK         0.0600 
    188 H188        5.7050  -16.4343  -45.0031 H         1 UNK         0.0600 
    189 H189        3.6858  -13.6936  -45.8100 H         1 UNK         0.3000 
    190 H190       -2.8658  -19.9562  -45.4325 H         1 UNK         0.3000 
    191 H191       -5.0081  -21.4123  -46.5497 H         1 UNK         0.0600 
    192 H192       -3.0272  -22.2489  -44.3694 H         1 UNK         0.0600 
    193 H193       -4.5802  -23.0107  -44.6865 H         1 UNK         0.0600 
    194 H194       -4.5222  -21.3479  -44.1223 H         1 UNK         0.0600 
    195 H195       -1.4963  -22.0630  -46.6737 H         1 UNK         0.3000 
    196 H196       -1.7035  -24.5756  -48.0556 H         1 UNK         0.0600 
    197 H197        0.7593  -24.2681  -48.3253 H         1 UNK         0.0600 
    198 H198        0.2590  -23.9332  -46.6751 H         1 UNK         0.0600 
    199 H199        0.6243  -22.6027  -47.7722 H         1 UNK         0.0600 
    200 H200       -2.1958  -21.3669  -49.2158 H         1 UNK         0.3000 
    201 H201       -1.4180  -22.0876  -52.0169 H         1 UNK         0.0600 
    202 H202       -0.1775  -20.1692  -51.0805 H         1 UNK         0.0600 
    203 H203       -1.6817  -19.3575  -50.6602 H         1 UNK         0.0600 
    204 H204       -1.2701  -19.6316  -52.3483 H         1 UNK         0.0600 
    205 H205       -3.9279  -20.2658  -50.1462 H         1 UNK         0.3000 
    206 H206       -5.5396  -19.9833  -52.5772 H         1 UNK         0.0600 
    207 H207       -6.7930  -18.3723  -51.1916 H         1 UNK         0.0600 
    208 H208       -5.9388  -18.8850  -49.7408 H         1 UNK         0.0600 
    209 H209       -5.0724  -18.0574  -51.0268 H         1 UNK         0.0600 
    210 H210       -5.7910  -21.6269  -49.4165 H         1 UNK         0.3000 
    211 H211       -8.6046  -22.3224  -49.7890 H         1 UNK         0.0600 
    212 H212       -6.6523  -23.1197  -47.5763 H         1 UNK         0.0600 
    213 H213       -8.3956  -23.3152  -47.5573 H         1 UNK         0.0600 
    214 H214       -7.6995  -21.7025  -47.5538 H         1 UNK         0.0600 
    215 H215       -7.8002  -23.2697  -51.9159 H         1 UNK         0.3000 
    216 H216       -7.6286  -24.9464  -53.3459 H         1 UNK         0.0600 
    217 H217       -8.3010  -27.2703  -52.7267 H         1 UNK         0.0600 
    218 H218       -9.4647  -26.0817  -52.1719 H         1 UNK         0.0600 
    219 H219       -8.3590  -26.8229  -51.0254 H         1 UNK         0.0600 
    220 H220       -6.4023  -27.2761  -51.0773 H         1 UNK         0.3000 
    221 H221       -4.4631  -28.3219  -50.7946 H         1 UNK         0.0600 
    222 H222       -3.2091  -25.5420  -51.0925 H         1 UNK         0.0600 
    223 H223       -3.9660  -26.1509  -49.6236 H         1 UNK         0.0600 
    224 H224       -2.5105  -26.9136  -50.2441 H         1 UNK         0.0600 
    225 H225       -5.4036  -28.0472  -53.5686 H         1 UNK         0.3000 
    226 H226       -4.9464  -28.5176  -55.6700 H         1 UNK         0.0600 
    227 H227       -3.7759  -30.5323  -54.7313 H         1 UNK         0.0600 
    228 H228       -3.0906  -30.0091  -56.2596 H         1 UNK         0.0600 
    229 H229       -2.2501  -29.6489  -54.7594 H         1 UNK         0.0600 
    230 H230       -4.0945  -25.8849  -54.4839 H         1 UNK         0.3000 
    231 H231       -2.2392  -24.9602  -56.6492 H         1 UNK         0.0600 
    232 H232       -1.0845  -24.8677  -54.4915 H         1 UNK         0.0600 
    233 H233       -2.4491  -24.0678  -53.7247 H         1 UNK         0.0600 
    234 H234       -1.5167  -23.2297  -54.9617 H         1 UNK         0.0600 
    235 H235       -4.6967  -23.7853  -54.3073 H         1 UNK         0.3000 
    236 H236       -6.2135  -22.1892  -54.3200 H         1 UNK         0.0600 
    237 H237       -6.7662  -23.1027  -57.1919 H         1 UNK         0.0600 
    238 H238       -7.3739  -23.8921  -55.7374 H         1 UNK         0.0600 
    239 H239       -7.8947  -22.2632  -56.1334 H         1 UNK         0.0600 
    240 H240       -3.6753  -21.2014  -54.8180 H         1 UNK         0.3000 
    241 H241       -2.3797  -19.5859  -55.5805 H         1 UNK         0.0600 
    242 H242       -3.0085  -20.6219  -59.2328 H         1 UNK         0.3800 
    243 H243       -3.5139  -21.4895  -57.8045 H         1 UNK         0.3800 
    244 H244       -4.9812  -18.0010  -55.7955 H         1 UNK         0.0800 
    245 H245       -3.4153  -17.2742  -56.0058 H         1 UNK         0.0800 
    246 H246       -2.9517  -15.6693  -53.9970 H         1 UNK         0.0800 
    247 H247       -1.6756  -16.8385  -54.2528 H         1 UNK         0.0800 
@<TRIPOS>BOND
     1    1    2 1    
     2    1  127 1    
     3    1  128 1    
     4    1  129 1    
     5    2    3 2    
     6    2    4 am   BACKBONE|DICT|INTERRES
     7    4    5 1    
     8    4  130 1    
     9    5    6 1    
    10    5   65 1    
    11    5  131 1    
    12    6    7 1    
    13    6  132 1    
    14    6  133 1    
    15    7    8 1    
    16    8    9 1    
    17    8  134 1    
    18    8  135 1    
    19    9   10 ar   
    20    9   14 ar   
    21   10   11 ar   
    22   10  136 1    
    23   11   12 ar   
    24   11  126 1    
    25   12   13 ar   
    26   12  137 1    
    27   13   14 ar   
    28   13   15 1    
    29   14  138 1    
    30   15   16 1    
    31   15  139 1    
    32   15  140 1    
    33   16   17 1    
    34   17   18 1    
    35   17  141 1    
    36   17  142 1    
    37   18   19 1    
    38   18   67 1    
    39   18  143 1    
    40   19   20 am   BACKBONE|DICT|INTERRES
    41   19  144 1    
    42   20   21 2    
    43   20   22 1    
    44   22   23 1    
    45   22   24 1    
    46   22  145 1    
    47   23  146 1    
    48   23  147 1    
    49   23  148 1    
    50   24   25 am   BACKBONE|DICT|INTERRES
    51   24  149 1    
    52   25   26 2    
    53   25   27 1    
    54   27   28 1    
    55   27   29 1    
    56   27  150 1    
    57   28  151 1    
    58   28  152 1    
    59   28  153 1    
    60   29   30 am   BACKBONE|DICT|INTERRES
    61   29  154 1    
    62   30   31 2    
    63   30   32 1    
    64   32   33 1    
    65   32   34 1    
    66   32  155 1    
    67   33  156 1    
    68   33  157 1    
    69   33  158 1    
    70   34   35 am   BACKBONE|DICT|INTERRES
    71   34  159 1    
    72   35   36 2    
    73   35   37 1    
    74   37   38 1    
    75   37   39 1    
    76   37  160 1    
    77   38  161 1    
    78   38  162 1    
    79   38  163 1    
    80   39   40 am   BACKBONE|DICT|INTERRES
    81   39  164 1    
    82   40   41 2    
    83   40   42 1    
    84   42   43 1    
    85   42   44 1    
    86   42  165 1    
    87   43  166 1    
    88   43  167 1    
    89   43  168 1    
    90   44   45 am   BACKBONE|DICT|INTERRES
    91   44  169 1    
    92   45   46 2    
    93   45   47 1    
    94   47   48 1    
    95   47   49 1    
    96   47  170 1    
    97   48  171 1    
    98   48  172 1    
    99   48  173 1    
   100   49   50 am   BACKBONE|DICT|INTERRES
   101   49  174 1    
   102   50   51 2    
   103   50   52 1    
   104   52   53 1    
   105   52   54 1    
   106   52  175 1    
   107   53  176 1    
   108   53  177 1    
   109   53  178 1    
   110   54   55 am   BACKBONE|DICT|INTERRES
   111   54  179 1    
   112   55   56 2    
   113   55   57 1    
   114   57   58 1    
   115   57   59 1    
   116   57  180 1    
   117   58  181 1    
   118   58  182 1    
   119   58  183 1    
   120   59   60 am   BACKBONE|DICT|INTERRES
   121   59  184 1    
   122   60   61 2    
   123   60   62 1    
   124   62   63 1    
   125   62   64 1    
   126   62  185 1    
   127   63  186 1    
   128   63  187 1    
   129   63  188 1    
   130   64   65 am   BACKBONE|DICT|INTERRES
   131   64  189 1    
   132   65   66 2    
   133   67   68 2    
   134   67   69 am   BACKBONE|DICT|INTERRES
   135   69   70 1    
   136   69  190 1    
   137   70   71 1    
   138   70   72 1    
   139   70  191 1    
   140   71  192 1    
   141   71  193 1    
   142   71  194 1    
   143   72   73 2    
   144   72   74 am   BACKBONE|DICT|INTERRES
   145   74   75 1    
   146   74  195 1    
   147   75   76 1    
   148   75   77 1    
   149   75  196 1    
   150   76  197 1    
   151   76  198 1    
   152   76  199 1    
   153   77   78 2    
   154   77   79 am   BACKBONE|DICT|INTERRES
   155   79   80 1    
   156   79  200 1    
   157   80   81 1    
   158   80   82 1    
   159   80  201 1    
   160   81  202 1    
   161   81  203 1    
   162   81  204 1    
   163   82   83 2    
   164   82   84 am   BACKBONE|DICT|INTERRES
   165   84   85 1    
   166   84  205 1    
   167   85   86 1    
   168   85   87 1    
   169   85  206 1    
   170   86  207 1    
   171   86  208 1    
   172   86  209 1    
   173   87   88 2    
   174   87   89 am   BACKBONE|DICT|INTERRES
   175   89   90 1    
   176   89  210 1    
   177   90   91 1    
   178   90   92 1    
   179   90  211 1    
   180   91  212 1    
   181   91  213 1    
   182   91  214 1    
   183   92   93 2    
   184   92   94 am   BACKBONE|DICT|INTERRES
   185   94   95 1    
   186   94  215 1    
   187   95   96 1    
   188   95   97 1    
   189   95  216 1    
   190   96  217 1    
   191   96  218 1    
   192   96  219 1    
   193   97   98 2    
   194   97   99 am   BACKBONE|DICT|INTERRES
   195   99  100 1    
   196   99  220 1    
   197  100  101 1    
   198  100  102 1    
   199  100  221 1    
   200  101  222 1    
   201  101  223 1    
   202  101  224 1    
   203  102  103 2    
   204  102  104 am   BACKBONE|DICT|INTERRES
   205  104  105 1    
   206  104  225 1    
   207  105  106 1    
   208  105  107 1    
   209  105  226 1    
   210  106  227 1    
   211  106  228 1    
   212  106  229 1    
   213  107  108 2    
   214  107  109 am   BACKBONE|DICT|INTERRES
   215  109  110 1    
   216  109  230 1    
   217  110  111 1    
   218  110  112 1    
   219  110  231 1    
   220  111  232 1    
   221  111  233 1    
   222  111  234 1    
   223  112  113 2    
   224  112  114 am   BACKBONE|DICT|INTERRES
   225  114  115 1    
   226  114  235 1    
   227  115  116 1    
   228  115  117 1    
   229  115  236 1    
   230  116  237 1    
   231  116  238 1    
   232  116  239 1    
   233  117  118 2    
   234  117  119 am   BACKBONE|DICT|INTERRES
   235  119  120 1    
   236  119  240 1    
   237  120  121 1    
   238  120  124 1    
   239  120  241 1    
   240  121  122 am   BACKBONE|DICT|INTERRES
   241  121  123 2    
   242  122  242 1    
   243  122  243 1    
   244  124  125 1    
   245  124  244 1    
   246  124  245 1    
   247  125  126 1    
   248  126  246 1    
   249  126  247 1    
@<TRIPOS>SUBSTRUCTURE
     1 UNK         1 GROUP             0       ****    0 ROOT    
