@<TRIPOS>MOLECULE
3R540
247   249    1
SMALL
USER_CHARGES


@<TRIPOS>ATOM
      1 CA          6.1403  -16.7724  -47.0235 C.3       0 UNK        -0.1800 
      2 C           4.8832  -15.9727  -47.3277 C.2       0 UNK         0.5000 
      3 O           3.8809  -16.1193  -46.6298 O.2       0 UNK        -0.5000 
      4 N           4.9308  -15.1124  -48.3541 N.am      1 UNK        -0.5000 
      5 CA          3.7903  -14.3201  -48.8385 C.3       1 UNK         0.1400 
      6 C6          4.1174  -13.5894  -50.1682 C.3       23 UNK        -0.0398 
      7 S7          2.7257  -13.6340  -51.3521 S.3       23 UNK        -0.2404 
      8 C8          3.4535  -14.5102  -52.7803 C.3       23 UNK        -0.0205 
      9 C9          3.2641  -16.0239  -52.7312 C.ar      23 UNK        -0.0193 
     10 C10         2.6230  -16.6805  -53.7875 C.ar      23 UNK        -0.1150 
     11 C11         2.4784  -18.0714  -53.7824 C.ar      23 UNK        -0.0193 
     12 C12         2.9694  -18.8090  -52.7014 C.ar      23 UNK        -0.1150 
     13 C13         3.6139  -18.1683  -51.6399 C.ar      23 UNK        -0.0193 
     14 C14         3.7668  -16.7796  -51.6670 C.ar      23 UNK        -0.1150 
     15 C15         4.1725  -18.9708  -50.4741 C.3       23 UNK        -0.0205 
     16 S16         3.1123  -18.8476  -49.0013 S.3       23 UNK        -0.2404 
     17 C17         1.7344  -19.9685  -49.4177 C.3       23 UNK        -0.0398 
     18 CA          1.7090  -21.1918  -48.4704 C.3       11 UNK         0.1400 
     19 N           1.2596  -20.8400  -47.1172 N.am      11 UNK        -0.5000 
     20 C           1.9799  -21.0399  -46.0039 C.2       10 UNK         0.5000 
     21 O           3.1106  -21.5283  -45.9949 O.2       10 UNK        -0.5000 
     22 CA          1.3325  -20.6427  -44.6603 C.3       10 UNK         0.1400 
     23 CB          1.6855  -19.1883  -44.3154 C.3       10 UNK        -0.1800 
     24 N          -0.1227  -20.8001  -44.6209 N.am      10 UNK        -0.5000 
     25 C          -0.7847  -21.9514  -44.8157 C.2       9 UNK         0.5000 
     26 O          -0.2344  -23.0319  -45.0247 O.2       9 UNK        -0.5000 
     27 CA         -2.3256  -21.8853  -44.8422 C.3       9 UNK         0.1400 
     28 CB         -2.9003  -22.2266  -43.4602 C.3       9 UNK        -0.1800 
     29 N          -2.8696  -20.5964  -45.2770 N.am      9 UNK        -0.5000 
     30 C          -2.5444  -19.9218  -46.3895 C.2       8 UNK         0.5000 
     31 O          -1.7882  -20.3577  -47.2598 O.2       8 UNK        -0.5000 
     32 CA         -3.1115  -18.4973  -46.5284 C.3       8 UNK         0.1400 
     33 CB         -4.3016  -18.4862  -47.4985 C.3       8 UNK        -0.1800 
     34 N          -3.5059  -17.8504  -45.2678 N.am      8 UNK        -0.5000 
     35 C          -2.7172  -17.6462  -44.2015 C.2       7 UNK         0.5000 
     36 O          -1.5681  -18.0813  -44.1032 O.2       7 UNK        -0.5000 
     37 CA         -3.3177  -16.8316  -43.0499 C.3       7 UNK         0.1400 
     38 CB         -3.1667  -17.5608  -41.7027 C.3       7 UNK        -0.1800 
     39 N          -2.6520  -15.5349  -42.9954 N.am      7 UNK        -0.5000 
     40 C          -3.2058  -14.4061  -42.5348 C.2       6 UNK         0.5000 
     41 O          -4.3513  -14.3411  -42.0865 O.2       6 UNK        -0.5000 
     42 CA         -2.3495  -13.1292  -42.5988 C.3       6 UNK         0.1400 
     43 CB         -1.2985  -13.1085  -41.4770 C.3       6 UNK        -0.1800 
     44 N          -1.6899  -12.9991  -43.8972 N.am      6 UNK        -0.5000 
     45 C          -2.2335  -12.3963  -44.9649 C.2       5 UNK         0.5000 
     46 O          -3.3185  -11.8139  -44.9389 O.2       5 UNK        -0.5000 
     47 CA         -1.4463  -12.4513  -46.2919 C.3       5 UNK         0.1400 
     48 CB         -0.6002  -11.1818  -46.4710 C.3       5 UNK        -0.1800 
     49 N          -0.5784  -13.6223  -46.4098 N.am      5 UNK        -0.5000 
     50 C          -1.0090  -14.8893  -46.4612 C.2       4 UNK         0.5000 
     51 O          -2.1973  -15.2020  -46.5008 O.2       4 UNK        -0.5000 
     52 CA          0.0658  -15.9908  -46.4051 C.3       4 UNK         0.1400 
     53 CB          0.5226  -16.3821  -47.8134 C.3       4 UNK        -0.1800 
     54 N           1.2278  -15.6290  -45.5896 N.am      4 UNK        -0.5000 
     55 C           1.1851  -15.3439  -44.2797 C.2       3 UNK         0.5000 
     56 O           0.1521  -15.3572  -43.6125 O.2       3 UNK        -0.5000 
     57 CA          2.5012  -14.9040  -43.6199 C.3       3 UNK         0.1400 
     58 CB          3.3605  -16.1144  -43.2258 C.3       3 UNK        -0.1800 
     59 N           3.2571  -14.0198  -44.5055 N.am      3 UNK        -0.5000 
     60 C           2.9798  -12.7194  -44.6785 C.2       2 UNK         0.5000 
     61 O           2.1247  -12.1131  -44.0332 O.2       2 UNK        -0.5000 
     62 CA          3.7696  -11.9745  -45.7724 C.3       2 UNK         0.1400 
     63 CB          5.0516  -11.3616  -45.1894 C.3       2 UNK        -0.1800 
     64 N           4.1190  -12.8284  -46.9095 N.am      2 UNK        -0.5000 
     65 C           3.2339  -13.3448  -47.7749 C.2       1 UNK         0.5000 
     66 O           2.0259  -13.1154  -47.7250 O.2       1 UNK        -0.5000 
     67 C           0.8556  -22.3287  -49.0611 C.2       11 UNK         0.5000 
     68 O           1.3820  -23.1138  -49.8507 O.2       11 UNK        -0.5000 
     69 N          -0.4279  -22.4204  -48.6798 N.am      12 UNK        -0.5000 
     70 CA         -1.3411  -23.4708  -49.1350 C.3       12 UNK         0.1400 
     71 CB         -2.7762  -23.0875  -48.7497 C.3       12 UNK        -0.1800 
     72 C          -0.9917  -24.8597  -48.5671 C.2       12 UNK         0.5000 
     73 O          -1.2015  -25.8596  -49.2548 O.2       12 UNK        -0.5000 
     74 N          -0.4728  -24.8946  -47.3287 N.am      13 UNK        -0.5000 
     75 CA         -0.0454  -26.0798  -46.5817 C.3       13 UNK         0.1400 
     76 CB          1.2922  -26.6034  -47.1509 C.3       13 UNK        -0.1800 
     77 C          -1.1621  -27.1425  -46.5029 C.2       13 UNK         0.5000 
     78 O          -2.2078  -26.8757  -45.9068 O.2       13 UNK        -0.5000 
     79 N          -0.9457  -28.3004  -47.1415 N.am      14 UNK        -0.5000 
     80 CA         -1.8724  -29.4318  -47.2214 C.3       14 UNK         0.1400 
     81 CB         -1.1686  -30.5954  -47.9367 C.3       14 UNK        -0.1800 
     82 C          -3.2212  -29.1183  -47.9021 C.2       14 UNK         0.5000 
     83 O          -4.1854  -29.8498  -47.6736 O.2       14 UNK        -0.5000 
     84 N          -3.2868  -28.0401  -48.6992 N.am      15 UNK        -0.5000 
     85 CA         -4.5258  -27.5436  -49.3039 C.3       15 UNK         0.1400 
     86 CB         -4.1911  -26.6535  -50.5112 C.3       15 UNK        -0.1800 
     87 C          -5.4465  -26.8103  -48.3042 C.2       15 UNK         0.5000 
     88 O          -6.5912  -26.5311  -48.6564 O.2       15 UNK        -0.5000 
     89 N          -4.9551  -26.5209  -47.0866 N.am      16 UNK        -0.5000 
     90 CA         -5.6969  -25.9712  -45.9450 C.3       16 UNK         0.1400 
     91 CB         -6.7038  -27.0103  -45.4094 C.3       16 UNK        -0.1800 
     92 C          -6.3440  -24.6051  -46.2514 C.2       16 UNK         0.5000 
     93 O          -7.5580  -24.4421  -46.1238 O.2       16 UNK        -0.5000 
     94 N          -5.4968  -23.6604  -46.6827 N.am      17 UNK        -0.5000 
     95 CA         -5.7909  -22.2614  -47.0307 C.3       17 UNK         0.1400 
     96 CB         -6.4879  -21.5204  -45.8704 C.3       17 UNK        -0.1800 
     97 C          -6.5285  -22.0568  -48.3707 C.2       17 UNK         0.5000 
     98 O          -6.6756  -20.9091  -48.7935 O.2       17 UNK        -0.5000 
     99 N          -6.9284  -23.1416  -49.0525 N.am      18 UNK        -0.5000 
    100 CA        -7.6979  -23.1152  -50.3041 C.3       18 UNK         0.1400 
    101 CB        -8.1484  -24.5402  -50.6550 C.3       18 UNK        -0.1800 
    102 C         -6.9698  -22.4752  -51.5042 C.2       18 UNK         0.5000 
    103 O         -7.6313  -22.0783  -52.4640 O.2       18 UNK        -0.5000 
    104 N         -5.6350  -22.3628  -51.4290 N.am      19 UNK        -0.5000 
    105 CA        -4.8043  -21.6645  -52.4141 C.3       19 UNK         0.1400 
    106 CB        -3.3293  -22.0385  -52.1976 C.3       19 UNK        -0.1800 
    107 C         -4.9760  -20.1310  -52.3842 C.2       19 UNK         0.5000 
    108 O         -4.5680  -19.4723  -53.3410 O.2       19 UNK        -0.5000 
    109 N         -5.5493  -19.5889  -51.2944 N.am      20 UNK        -0.5000 
    110 CA        -5.9086  -18.1788  -51.0890 C.3       20 UNK         0.1400 
    111 CB        -7.1177  -17.8104  -51.9727 C.3       20 UNK        -0.1800 
    112 C         -4.7224  -17.2063  -51.2663 C.2       20 UNK         0.5000 
    113 O         -4.8785  -16.1336  -51.8541 O.2       20 UNK        -0.5000 
    114 N         -3.5394  -17.6354  -50.7974 N.am      21 UNK        -0.5000 
    115 CA        -2.2444  -16.9474  -50.8966 C.3       21 UNK         0.1400 
    116 CB        -2.2584  -15.6576  -50.0506 C.3       21 UNK        -0.1800 
    117 C         -1.7914  -16.6901  -52.3517 C.2       21 UNK         0.5000 
    118 O         -1.0127  -15.7676  -52.5946 O.2       21 UNK        -0.5000 
    119 N         -2.3077  -17.4970  -53.2901 N.am      22 UNK        -0.5000 
    120 CA        -2.1412  -17.3647  -54.7455 C.3       22 UNK         0.1400 
    121 C         -2.8473  -16.1132  -55.3549 C.2       22 UNK         0.5000 
    122 N         -3.7809  -15.4704  -54.6604 N.am      22 UNK        -0.7600 
    123 O         -2.5723  -15.7322  -56.4898 O.2       22 UNK        -0.5000 
    124 C124       -0.6672  -17.5218  -55.2142 C.3       23 UNK        -0.0398 
    125 S125        0.0665  -19.1113  -54.6943 S.3       23 UNK        -0.2404 
    126 C126        1.8362  -18.7881  -54.9618 C.3       23 UNK        -0.0205 
    127 H127        6.9561  -16.5203  -47.7011 H         1 UNK         0.0600 
    128 H128        5.9333  -17.8383  -47.1203 H         1 UNK         0.0600 
    129 H129        6.4700  -16.5789  -46.0028 H         1 UNK         0.0600 
    130 H130        5.7918  -15.0168  -48.8732 H         1 UNK         0.3000 
    131 H131        3.0025  -15.0501  -49.0334 H         1 UNK         0.0600 
    132 H132        4.4013  -12.5483  -50.0018 H         1 UNK         0.0800 
    133 H133        4.9884  -14.0394  -50.6448 H         1 UNK         0.0800 
    134 H134        2.9857  -14.1077  -53.6800 H         1 UNK         0.0800 
    135 H135        4.5150  -14.2782  -52.8730 H         1 UNK         0.0800 
    136 H136        2.2518  -16.1098  -54.6268 H         1 UNK         0.1150 
    137 H137        2.8616  -19.8845  -52.6962 H         1 UNK         0.1150 
    138 H138        4.2808  -16.2935  -50.8531 H         1 UNK         0.1150 
    139 H139        4.3076  -20.0186  -50.7466 H         1 UNK         0.0800 
    140 H140        5.1641  -18.5926  -50.2213 H         1 UNK         0.0800 
    141 H141        0.7972  -19.4125  -49.3607 H         1 UNK         0.0800 
    142 H142        1.8373  -20.2815  -50.4578 H         1 UNK         0.0800 
    143 H143        2.7246  -21.5920  -48.4327 H         1 UNK         0.0600 
    144 H144        0.3288  -20.4515  -47.0314 H         1 UNK         0.3000 
    145 H145        1.7524  -21.2902  -43.8880 H         1 UNK         0.0600 
    146 H146        1.2863  -18.9005  -43.3426 H         1 UNK         0.0600 
    147 H147        2.7663  -19.0469  -44.2810 H         1 UNK         0.0600 
    148 H148        1.2884  -18.4957  -45.0575 H         1 UNK         0.0600 
    149 H149       -0.6591  -19.9545  -44.4560 H         1 UNK         0.3000 
    150 H150       -2.6711  -22.6454  -45.5408 H         1 UNK         0.0600 
    151 H151       -2.5277  -23.1897  -43.1082 H         1 UNK         0.0600 
    152 H152       -3.9878  -22.2933  -43.4888 H         1 UNK         0.0600 
    153 H153       -2.6280  -21.4767  -42.7161 H         1 UNK         0.0600 
    154 H154       -3.4783  -20.1307  -44.6208 H         1 UNK         0.3000 
    155 H155       -2.3170  -17.8962  -46.9719 H         1 UNK         0.0600 
    156 H156       -4.5398  -17.4694  -47.8119 H         1 UNK         0.0600 
    157 H157       -5.1956  -18.9135  -47.0474 H         1 UNK         0.0600 
    158 H158       -4.0867  -19.0630  -48.3983 H         1 UNK         0.0600 
    159 H159       -4.4295  -17.4427  -45.2595 H         1 UNK         0.3000 
    160 H160       -4.3819  -16.6869  -43.2478 H         1 UNK         0.0600 
    161 H161       -2.1181  -17.6883  -41.4304 H         1 UNK         0.0600 
    162 H162       -3.6202  -18.5519  -41.7414 H         1 UNK         0.0600 
    163 H163       -3.6554  -17.0104  -40.8986 H         1 UNK         0.0600 
    164 H164       -1.6901  -15.5207  -43.3312 H         1 UNK         0.3000 
    165 H165       -3.0106  -12.2743  -42.4411 H         1 UNK         0.0600 
    166 H166       -0.6130  -13.9534  -41.5396 H         1 UNK         0.0600 
    167 H167       -0.7052  -12.1946  -41.5111 H         1 UNK         0.0600 
    168 H168       -1.7769  -13.1499  -40.4978 H         1 UNK         0.0600 
    169 H169       -0.8185  -13.5016  -44.0100 H         1 UNK         0.3000 
    170 H170       -2.1745  -12.4939  -47.1044 H         1 UNK         0.0600 
    171 H171       -1.2220  -10.2870  -46.4237 H         1 UNK         0.0600 
    172 H172        0.1614  -11.0944  -45.6957 H         1 UNK         0.0600 
    173 H173       -0.0960  -11.1767  -47.4376 H         1 UNK         0.0600 
    174 H174        0.4185  -13.4488  -46.4789 H         1 UNK         0.3000 
    175 H175       -0.3774  -16.8733  -45.9492 H         1 UNK         0.0600 
    176 H176       -0.2720  -16.9011  -48.3481 H         1 UNK         0.0600 
    177 H177        0.8087  -15.5132  -48.4053 H         1 UNK         0.0600 
    178 H178        1.3746  -17.0556  -47.7673 H         1 UNK         0.0600 
    179 H179        2.1338  -15.6463  -46.0505 H         1 UNK         0.3000 
    180 H180        2.2517  -14.3618  -42.7050 H         1 UNK         0.0600 
    181 H181        3.6495  -16.7102  -44.0911 H         1 UNK         0.0600 
    182 H182        2.8168  -16.7700  -42.5445 H         1 UNK         0.0600 
    183 H183        4.2718  -15.8005  -42.7168 H         1 UNK         0.0600 
    184 H184        3.9258  -14.4642  -45.1200 H         1 UNK         0.3000 
    185 H185        3.1385  -11.1623  -46.1398 H         1 UNK         0.0600 
    186 H186        5.5800  -10.7680  -45.9356 H         1 UNK         0.0600 
    187 H187        4.8222  -10.7003  -44.3528 H         1 UNK         0.0600 
    188 H188        5.7352  -12.1288  -44.8235 H         1 UNK         0.0600 
    189 H189        5.0921  -13.0775  -47.0109 H         1 UNK         0.3000 
    190 H190       -0.8265  -21.7078  -48.0751 H         1 UNK         0.3000 
    191 H191       -1.2807  -23.5255  -50.2240 H         1 UNK         0.0600 
    192 H192       -3.5043  -23.7477  -49.2178 H         1 UNK         0.0600 
    193 H193       -3.0171  -22.0685  -49.0499 H         1 UNK         0.0600 
    194 H194       -2.9167  -23.1550  -47.6747 H         1 UNK         0.0600 
    195 H195       -0.3679  -24.0230  -46.8218 H         1 UNK         0.3000 
    196 H196        0.1362  -25.7546  -45.5564 H         1 UNK         0.0600 
    197 H197        1.6593  -27.4568  -46.5793 H         1 UNK         0.0600 
    198 H198        2.0604  -25.8316  -47.0987 H         1 UNK         0.0600 
    199 H199        1.2073  -26.9072  -48.1949 H         1 UNK         0.0600 
    200 H200       -0.0727  -28.4069  -47.6375 H         1 UNK         0.3000 
    201 H201       -2.0953  -29.7438  -46.1991 H         1 UNK         0.0600 
    202 H202       -0.2614  -30.8926  -47.4104 H         1 UNK         0.0600 
    203 H203       -0.8943  -30.3308  -48.9587 H         1 UNK         0.0600 
    204 H204       -1.8145  -31.4731  -47.9870 H         1 UNK         0.0600 
    205 H205       -2.4536  -27.4786  -48.8438 H         1 UNK         0.3000 
    206 H206       -5.0892  -28.4006  -49.6788 H         1 UNK         0.0600 
    207 H207       -3.5830  -27.1907  -51.2391 H         1 UNK         0.0600 
    208 H208       -5.0974  -26.3300  -51.0239 H         1 UNK         0.0600 
    209 H209       -3.6458  -25.7596  -50.2186 H         1 UNK         0.0600 
    210 H210       -3.9916  -26.7714  -46.8882 H         1 UNK         0.3000 
    211 H211       -4.9626  -25.7946  -45.1574 H         1 UNK         0.0600 
    212 H212       -7.4869  -27.2305  -46.1357 H         1 UNK         0.0600 
    213 H213       -7.1908  -26.6505  -44.5023 H         1 UNK         0.0600 
    214 H214       -6.2058  -27.9475  -45.1606 H         1 UNK         0.0600 
    215 H215       -4.5318  -23.9366  -46.7836 H         1 UNK         0.3000 
    216 H216       -4.8221  -21.7821  -47.1653 H         1 UNK         0.0600 
    217 H217       -5.9190  -21.6112  -44.9456 H         1 UNK         0.0600 
    218 H218       -6.5892  -20.4569  -46.0839 H         1 UNK         0.0600 
    219 H219       -7.4929  -21.8989  -45.6858 H         1 UNK         0.0600 
    220 H220       -6.7838  -24.0523  -48.6368 H         1 UNK         0.3000 
    221 H221       -8.5923  -22.5165  -50.1198 H         1 UNK         0.0600 
    222 H222       -7.2989  -25.1837  -50.8842 H         1 UNK         0.0600 
    223 H223       -8.7040  -24.9943  -49.8341 H         1 UNK         0.0600 
    224 H224       -8.8025  -24.5404  -51.5278 H         1 UNK         0.0600 
    225 H225       -5.1719  -22.7277  -50.6118 H         1 UNK         0.3000 
    226 H226       -5.0983  -22.0084  -53.4080 H         1 UNK         0.0600 
    227 H227       -3.1918  -23.1191  -52.1522 H         1 UNK         0.0600 
    228 H228       -2.7140  -21.6685  -53.0190 H         1 UNK         0.0600 
    229 H229       -2.9316  -21.6039  -51.2816 H         1 UNK         0.0600 
    230 H230       -5.8487  -20.2133  -50.5525 H         1 UNK         0.3000 
    231 H231       -6.2216  -18.0904  -50.0476 H         1 UNK         0.0600 
    232 H232       -7.4793  -16.8067  -51.7461 H         1 UNK         0.0600 
    233 H233       -7.9477  -18.4979  -51.8092 H         1 UNK         0.0600 
    234 H234       -6.8648  -17.8371  -53.0332 H         1 UNK         0.0600 
    235 H235       -3.5140  -18.5531  -50.3784 H         1 UNK         0.3000 
    236 H236       -1.5042  -17.6220  -50.4643 H         1 UNK         0.0600 
    237 H237       -2.9125  -14.8981  -50.4793 H         1 UNK         0.0600 
    238 H238       -2.6028  -15.8594  -49.0374 H         1 UNK         0.0600 
    239 H239       -1.2614  -15.2218  -49.9777 H         1 UNK         0.0600 
    240 H240       -2.9797  -18.2022  -53.0101 H         1 UNK         0.3000 
    241 H241       -2.6939  -18.2056  -55.1656 H         1 UNK         0.0600 
    242 H242       -4.0382  -15.7682  -53.7259 H         1 UNK         0.3800 
    243 H243       -4.2371  -14.6708  -55.0698 H         1 UNK         0.3800 
    244 H244       -0.6052  -17.4769  -56.3026 H         1 UNK         0.0800 
    245 H245       -0.0602  -16.6974  -54.8418 H         1 UNK         0.0800 
    246 H246        1.9741  -18.2166  -55.8810 H         1 UNK         0.0800 
    247 H247        2.3419  -19.7412  -55.1238 H         1 UNK         0.0800 
@<TRIPOS>BOND
     1    1    2 1    
     2    1  127 1    
     3    1  128 1    
     4    1  129 1    
     5    2    3 2    
     6    2    4 am   BACKBONE|DICT|INTERRES
     7    4    5 1    
     8    4  130 1    
     9    5    6 1    
    10    5   65 1    
    11    5  131 1    
    12    6    7 1    
    13    6  132 1    
    14    6  133 1    
    15    7    8 1    
    16    8    9 1    
    17    8  134 1    
    18    8  135 1    
    19    9   10 ar   
    20    9   14 ar   
    21   10   11 ar   
    22   10  136 1    
    23   11   12 ar   
    24   11  126 1    
    25   12   13 ar   
    26   12  137 1    
    27   13   14 ar   
    28   13   15 1    
    29   14  138 1    
    30   15   16 1    
    31   15  139 1    
    32   15  140 1    
    33   16   17 1    
    34   17   18 1    
    35   17  141 1    
    36   17  142 1    
    37   18   19 1    
    38   18   67 1    
    39   18  143 1    
    40   19   20 am   BACKBONE|DICT|INTERRES
    41   19  144 1    
    42   20   21 2    
    43   20   22 1    
    44   22   23 1    
    45   22   24 1    
    46   22  145 1    
    47   23  146 1    
    48   23  147 1    
    49   23  148 1    
    50   24   25 am   BACKBONE|DICT|INTERRES
    51   24  149 1    
    52   25   26 2    
    53   25   27 1    
    54   27   28 1    
    55   27   29 1    
    56   27  150 1    
    57   28  151 1    
    58   28  152 1    
    59   28  153 1    
    60   29   30 am   BACKBONE|DICT|INTERRES
    61   29  154 1    
    62   30   31 2    
    63   30   32 1    
    64   32   33 1    
    65   32   34 1    
    66   32  155 1    
    67   33  156 1    
    68   33  157 1    
    69   33  158 1    
    70   34   35 am   BACKBONE|DICT|INTERRES
    71   34  159 1    
    72   35   36 2    
    73   35   37 1    
    74   37   38 1    
    75   37   39 1    
    76   37  160 1    
    77   38  161 1    
    78   38  162 1    
    79   38  163 1    
    80   39   40 am   BACKBONE|DICT|INTERRES
    81   39  164 1    
    82   40   41 2    
    83   40   42 1    
    84   42   43 1    
    85   42   44 1    
    86   42  165 1    
    87   43  166 1    
    88   43  167 1    
    89   43  168 1    
    90   44   45 am   BACKBONE|DICT|INTERRES
    91   44  169 1    
    92   45   46 2    
    93   45   47 1    
    94   47   48 1    
    95   47   49 1    
    96   47  170 1    
    97   48  171 1    
    98   48  172 1    
    99   48  173 1    
   100   49   50 am   BACKBONE|DICT|INTERRES
   101   49  174 1    
   102   50   51 2    
   103   50   52 1    
   104   52   53 1    
   105   52   54 1    
   106   52  175 1    
   107   53  176 1    
   108   53  177 1    
   109   53  178 1    
   110   54   55 am   BACKBONE|DICT|INTERRES
   111   54  179 1    
   112   55   56 2    
   113   55   57 1    
   114   57   58 1    
   115   57   59 1    
   116   57  180 1    
   117   58  181 1    
   118   58  182 1    
   119   58  183 1    
   120   59   60 am   BACKBONE|DICT|INTERRES
   121   59  184 1    
   122   60   61 2    
   123   60   62 1    
   124   62   63 1    
   125   62   64 1    
   126   62  185 1    
   127   63  186 1    
   128   63  187 1    
   129   63  188 1    
   130   64   65 am   BACKBONE|DICT|INTERRES
   131   64  189 1    
   132   65   66 2    
   133   67   68 2    
   134   67   69 am   BACKBONE|DICT|INTERRES
   135   69   70 1    
   136   69  190 1    
   137   70   71 1    
   138   70   72 1    
   139   70  191 1    
   140   71  192 1    
   141   71  193 1    
   142   71  194 1    
   143   72   73 2    
   144   72   74 am   BACKBONE|DICT|INTERRES
   145   74   75 1    
   146   74  195 1    
   147   75   76 1    
   148   75   77 1    
   149   75  196 1    
   150   76  197 1    
   151   76  198 1    
   152   76  199 1    
   153   77   78 2    
   154   77   79 am   BACKBONE|DICT|INTERRES
   155   79   80 1    
   156   79  200 1    
   157   80   81 1    
   158   80   82 1    
   159   80  201 1    
   160   81  202 1    
   161   81  203 1    
   162   81  204 1    
   163   82   83 2    
   164   82   84 am   BACKBONE|DICT|INTERRES
   165   84   85 1    
   166   84  205 1    
   167   85   86 1    
   168   85   87 1    
   169   85  206 1    
   170   86  207 1    
   171   86  208 1    
   172   86  209 1    
   173   87   88 2    
   174   87   89 am   BACKBONE|DICT|INTERRES
   175   89   90 1    
   176   89  210 1    
   177   90   91 1    
   178   90   92 1    
   179   90  211 1    
   180   91  212 1    
   181   91  213 1    
   182   91  214 1    
   183   92   93 2    
   184   92   94 am   BACKBONE|DICT|INTERRES
   185   94   95 1    
   186   94  215 1    
   187   95   96 1    
   188   95   97 1    
   189   95  216 1    
   190   96  217 1    
   191   96  218 1    
   192   96  219 1    
   193   97   98 2    
   194   97   99 am   BACKBONE|DICT|INTERRES
   195   99  100 1    
   196   99  220 1    
   197  100  101 1    
   198  100  102 1    
   199  100  221 1    
   200  101  222 1    
   201  101  223 1    
   202  101  224 1    
   203  102  103 2    
   204  102  104 am   BACKBONE|DICT|INTERRES
   205  104  105 1    
   206  104  225 1    
   207  105  106 1    
   208  105  107 1    
   209  105  226 1    
   210  106  227 1    
   211  106  228 1    
   212  106  229 1    
   213  107  108 2    
   214  107  109 am   BACKBONE|DICT|INTERRES
   215  109  110 1    
   216  109  230 1    
   217  110  111 1    
   218  110  112 1    
   219  110  231 1    
   220  111  232 1    
   221  111  233 1    
   222  111  234 1    
   223  112  113 2    
   224  112  114 am   BACKBONE|DICT|INTERRES
   225  114  115 1    
   226  114  235 1    
   227  115  116 1    
   228  115  117 1    
   229  115  236 1    
   230  116  237 1    
   231  116  238 1    
   232  116  239 1    
   233  117  118 2    
   234  117  119 am   BACKBONE|DICT|INTERRES
   235  119  120 1    
   236  119  240 1    
   237  120  121 1    
   238  120  124 1    
   239  120  241 1    
   240  121  122 am   BACKBONE|DICT|INTERRES
   241  121  123 2    
   242  122  242 1    
   243  122  243 1    
   244  124  125 1    
   245  124  244 1    
   246  124  245 1    
   247  125  126 1    
   248  126  246 1    
   249  126  247 1    
@<TRIPOS>SUBSTRUCTURE
     1 UNK         1 GROUP             0       ****    0 ROOT    
