@<TRIPOS>MOLECULE
3R540
247   249    1
SMALL
USER_CHARGES


@<TRIPOS>ATOM
      1 CA          4.5044  -15.9621  -46.9424 C.3       0 UNK        -0.1800 
      2 C           3.6457  -14.7321  -47.1977 C.2       0 UNK         0.5000 
      3 O           4.0695  -13.8264  -47.9134 O.2       0 UNK        -0.5000 
      4 N           2.4444  -14.6981  -46.6058 N.am      1 UNK        -0.5000 
      5 CA          1.3886  -13.6799  -46.7566 C.3       1 UNK         0.1400 
      6 C6          0.8700  -13.5290  -48.2126 C.3       23 UNK        -0.0398 
      7 S7          0.3158  -15.1075  -48.9481 S.3       23 UNK        -0.2404 
      8 C8          1.5666  -15.3237  -50.2504 C.3       23 UNK        -0.0205 
      9 C9          1.3224  -16.5858  -51.0597 C.ar      23 UNK        -0.0193 
     10 C10         0.4983  -16.5419  -52.1881 C.ar      23 UNK        -0.1150 
     11 C11         0.2816  -17.6897  -52.9607 C.ar      23 UNK        -0.0193 
     12 C12         0.9242  -18.8771  -52.5965 C.ar      23 UNK        -0.1150 
     13 C13         1.7633  -18.9324  -51.4804 C.ar      23 UNK        -0.0193 
     14 C14         1.9481  -17.7848  -50.7052 C.ar      23 UNK        -0.1150 
     15 C15         2.5064  -20.2210  -51.1566 C.3       23 UNK        -0.0205 
     16 S16         1.4074  -21.4902  -50.4575 S.3       23 UNK        -0.2404 
     17 C17         1.3394  -21.0150  -48.6948 C.3       23 UNK        -0.0398 
     18 CA          1.8923  -22.1127  -47.7494 C.3       11 UNK         0.1400 
     19 N           2.2684  -21.5339  -46.4610 N.am      11 UNK        -0.5000 
     20 C           3.2019  -22.0190  -45.6319 C.2       10 UNK         0.5000 
     21 O           3.9673  -22.9370  -45.9298 O.2       10 UNK        -0.5000 
     22 CA          3.2977  -21.3783  -44.2306 C.3       10 UNK         0.1400 
     23 CB          4.4415  -20.3536  -44.1885 C.3       10 UNK        -0.1800 
     24 N           2.0493  -20.7287  -43.8208 N.am      10 UNK        -0.5000 
     25 C           0.9457  -21.3926  -43.4392 C.2       9 UNK         0.5000 
     26 O           0.9284  -22.6075  -43.2388 O.2       9 UNK        -0.5000 
     27 CA         -0.3627  -20.5896  -43.2528 C.3       9 UNK         0.1400 
     28 CB         -0.6956  -20.4477  -41.7592 C.3       9 UNK        -0.1800 
     29 N          -0.3595  -19.2561  -43.8587 N.am      9 UNK        -0.5000 
     30 C          -0.1925  -18.9805  -45.1600 C.2       8 UNK         0.5000 
     31 O          -0.1002  -19.8423  -46.0312 O.2       8 UNK        -0.5000 
     32 CA         -0.0186  -17.4981  -45.5448 C.3       8 UNK         0.1400 
     33 CB         -1.3486  -16.9145  -46.0379 C.3       8 UNK        -0.1800 
     34 N           0.5145  -16.6695  -44.4552 N.am      8 UNK        -0.5000 
     35 C           1.7081  -16.8525  -43.8684 C.2       7 UNK         0.5000 
     36 O           2.5023  -17.7236  -44.2172 O.2       7 UNK        -0.5000 
     37 CA          2.0723  -15.9303  -42.6963 C.3       7 UNK         0.1400 
     38 CB          2.6835  -14.6216  -43.2085 C.3       7 UNK        -0.1800 
     39 N           0.9041  -15.6318  -41.8703 N.am      7 UNK        -0.5000 
     40 C           0.5669  -16.3206  -40.7717 C.2       6 UNK         0.5000 
     41 O           1.2377  -17.2429  -40.3077 O.2       6 UNK        -0.5000 
     42 CA         -0.7503  -15.9260  -40.0775 C.3       6 UNK         0.1400 
     43 CB         -0.4886  -14.8849  -38.9789 C.3       6 UNK        -0.1800 
     44 N          -1.7609  -15.4089  -41.0018 N.am      6 UNK        -0.5000 
     45 C          -2.3681  -16.1400  -41.9477 C.2       5 UNK         0.5000 
     46 O          -2.1305  -17.3307  -42.1493 O.2       5 UNK        -0.5000 
     47 CA         -3.3840  -15.4107  -42.8477 C.3       5 UNK         0.1400 
     48 CB         -4.7871  -15.4739  -42.2264 C.3       5 UNK        -0.1800 
     49 N          -3.0508  -14.0128  -43.1350 N.am      5 UNK        -0.5000 
     50 C          -1.9030  -13.5652  -43.6623 C.2       4 UNK         0.5000 
     51 O          -0.9425  -14.2929  -43.9293 O.2       4 UNK        -0.5000 
     52 CA         -1.7807  -12.0484  -43.9139 C.3       4 UNK         0.1400 
     53 CB         -2.9747  -11.2112  -43.4015 C.3       4 UNK        -0.1800 
     54 N          -0.5182  -11.5322  -43.3825 N.am      4 UNK        -0.5000 
     55 C          -0.0974  -11.5821  -42.1086 C.2       3 UNK         0.5000 
     56 O          -0.7792  -12.0268  -41.1835 O.2       3 UNK        -0.5000 
     57 CA          1.3371  -11.0881  -41.8349 C.3       3 UNK         0.1400 
     58 CB          1.9644  -11.7850  -40.6131 C.3       3 UNK        -0.1800 
     59 N           2.1887  -11.3143  -43.0049 N.am      3 UNK        -0.5000 
     60 C           2.6933  -10.3654  -43.8018 C.2       2 UNK         0.5000 
     61 O           2.5611   -9.1573  -43.6046 O.2       2 UNK        -0.5000 
     62 CA          3.4521  -10.8544  -45.0514 C.3       2 UNK         0.1400 
     63 CB          4.9462  -11.0239  -44.7373 C.3       2 UNK        -0.1800 
     64 N           2.9418  -12.1101  -45.6147 N.am      2 UNK        -0.5000 
     65 C           1.7210  -12.2976  -46.1381 C.2       1 UNK         0.5000 
     66 O           0.8475  -11.4298  -46.1153 O.2       1 UNK        -0.5000 
     67 C           0.8637  -23.2455  -47.5228 C.2       11 UNK         0.5000 
     68 O           0.2900  -23.3644  -46.4365 O.2       11 UNK        -0.5000 
     69 N           0.6062  -24.0429  -48.5662 N.am      12 UNK        -0.5000 
     70 CA         -0.3685  -25.1379  -48.5969 C.3       12 UNK         0.1400 
     71 CB         -0.0061  -26.0783  -49.7601 C.3       12 UNK        -0.1800 
     72 C          -1.8340  -24.6447  -48.6642 C.2       12 UNK         0.5000 
     73 O          -2.6104  -25.1145  -49.4953 O.2       12 UNK        -0.5000 
     74 N          -2.1950  -23.7144  -47.7717 N.am      13 UNK        -0.5000 
     75 CA         -3.5048  -23.0640  -47.6754 C.3       13 UNK         0.1400 
     76 CB         -3.4010  -21.9123  -46.6623 C.3       13 UNK        -0.1800 
     77 C          -4.6545  -24.0173  -47.2920 C.2       13 UNK         0.5000 
     78 O          -5.8146  -23.7101  -47.5656 O.2       13 UNK        -0.5000 
     79 N          -4.3150  -25.1528  -46.6664 N.am      14 UNK        -0.5000 
     80 CA         -5.2433  -26.2315  -46.3246 C.3       14 UNK         0.1400 
     81 CB         -4.6024  -27.1042  -45.2340 C.3       14 UNK        -0.1800 
     82 C          -5.6443  -27.0950  -47.5390 C.2       14 UNK         0.5000 
     83 O          -6.6556  -27.7951  -47.4688 O.2       14 UNK        -0.5000 
     84 N          -4.8517  -27.0425  -48.6169 N.am      15 UNK        -0.5000 
     85 CA         -5.1116  -27.7071  -49.8908 C.3       15 UNK         0.1400 
     86 CB         -3.7863  -28.3008  -50.4032 C.3       15 UNK        -0.1800 
     87 C          -5.6902  -26.6992  -50.9004 C.2       15 UNK         0.5000 
     88 O          -5.8179  -25.5130  -50.5954 O.2       15 UNK        -0.5000 
     89 N          -6.0107  -27.1851  -52.1058 N.am      16 UNK        -0.5000 
     90 CA         -6.4346  -26.3589  -53.2418 C.3       16 UNK         0.1400 
     91 CB         -7.2427  -27.2339  -54.2127 C.3       16 UNK        -0.1800 
     92 C          -5.2530  -25.6888  -53.9766 C.2       16 UNK         0.5000 
     93 O          -5.4843  -24.8209  -54.8205 O.2       16 UNK        -0.5000 
     94 N          -4.0198  -26.1082  -53.6570 N.am      17 UNK        -0.5000 
     95 CA         -2.7546  -25.6743  -54.2513 C.3       17 UNK         0.1400 
     96 CB         -1.6027  -26.3402  -53.4845 C.3       17 UNK        -0.1800 
     97 C          -2.5701  -24.1455  -54.2685 C.2       17 UNK         0.5000 
     98 O          -2.8013  -23.4892  -53.2510 O.2       17 UNK        -0.5000 
     99 N          -2.1632  -23.6176  -55.4322 N.am      18 UNK        -0.5000 
    100 CA        -1.9423  -22.1956  -55.7242 C.3       18 UNK         0.1400 
    101 CB        -0.6990  -21.6792  -54.9689 C.3       18 UNK        -0.1800 
    102 C         -3.1973  -21.3312  -55.4750 C.2       18 UNK         0.5000 
    103 O         -3.0904  -20.2444  -54.9082 O.2       18 UNK        -0.5000 
    104 N         -4.3705  -21.8546  -55.8655 N.am      19 UNK        -0.5000 
    105 CA        -5.7057  -21.2937  -55.6164 C.3       19 UNK         0.1400 
    106 CB        -5.9053  -19.9740  -56.3920 C.3       19 UNK        -0.1800 
    107 C         -5.9941  -21.1587  -54.1063 C.2       19 UNK         0.5000 
    108 O         -6.4255  -20.1016  -53.6429 O.2       19 UNK        -0.5000 
    109 N         -5.6945  -22.2375  -53.3699 N.am      20 UNK        -0.5000 
    110 CA        -5.7248  -22.3625  -51.9097 C.3       20 UNK         0.1400 
    111 CB        -7.1791  -22.3983  -51.3991 C.3       20 UNK        -0.1800 
    112 C         -4.8543  -21.2988  -51.2112 C.2       20 UNK         0.5000 
    113 O         -5.3227  -20.6104  -50.3031 O.2       20 UNK        -0.5000 
    114 N         -3.6062  -21.1793  -51.6866 N.am      21 UNK        -0.5000 
    115 CA        -2.6051  -20.1774  -51.3143 C.3       21 UNK         0.1400 
    116 CB        -2.1104  -20.4099  -49.8750 C.3       21 UNK        -0.1800 
    117 C         -3.0985  -18.7346  -51.5488 C.2       21 UNK         0.5000 
    118 O         -3.1132  -17.9252  -50.6189 O.2       21 UNK        -0.5000 
    119 N         -3.4879  -18.4453  -52.7980 N.am      22 UNK        -0.5000 
    120 CA        -3.9289  -17.1264  -53.2789 C.3       22 UNK         0.1400 
    121 C         -5.2590  -16.6479  -52.6165 C.2       22 UNK         0.5000 
    122 N         -6.2394  -17.5238  -52.4367 N.am      22 UNK        -0.7600 
    123 O         -5.4254  -15.4791  -52.2764 O.2       22 UNK        -0.5000 
    124 C124       -2.7817  -16.0697  -53.2302 C.3       23 UNK        -0.0398 
    125 S125       -1.5708  -16.2101  -54.5942 S.3       23 UNK        -0.2404 
    126 C126       -0.5936  -17.7101  -54.2153 C.3       23 UNK        -0.0205 
    127 H127        4.7774  -16.4301  -47.8881 H         1 UNK         0.0600 
    128 H128        3.9835  -16.7041  -46.3368 H         1 UNK         0.0600 
    129 H129        5.4199  -15.6801  -46.4226 H         1 UNK         0.0600 
    130 H130        2.1727  -15.4929  -46.0468 H         1 UNK         0.3000 
    131 H131        0.5542  -14.0551  -46.1633 H         1 UNK         0.0600 
    132 H132        0.0159  -12.8500  -48.2406 H         1 UNK         0.0800 
    133 H133        1.6323  -13.0718  -48.8452 H         1 UNK         0.0800 
    134 H134        1.5556  -14.4546  -50.9101 H         1 UNK         0.0800 
    135 H135        2.5610  -15.3568  -49.8058 H         1 UNK         0.0800 
    136 H136        0.0389  -15.6030  -52.4582 H         1 UNK         0.1150 
    137 H137        0.7859  -19.7659  -53.1958 H         1 UNK         0.1150 
    138 H138        2.5976  -17.8158  -49.8416 H         1 UNK         0.1150 
    139 H139        2.9457  -20.6130  -52.0750 H         1 UNK         0.0800 
    140 H140        3.3427  -20.0356  -50.4807 H         1 UNK         0.0800 
    141 H141        0.3134  -20.7602  -48.4327 H         1 UNK         0.0800 
    142 H142        1.9066  -20.0926  -48.5639 H         1 UNK         0.0800 
    143 H143        2.7843  -22.5492  -48.2038 H         1 UNK         0.0600 
    144 H144        1.6158  -20.8457  -46.1008 H         1 UNK         0.3000 
    145 H145        3.5271  -22.1715  -43.5160 H         1 UNK         0.0600 
    146 H146        4.5168  -19.8828  -43.2081 H         1 UNK         0.0600 
    147 H147        4.3039  -19.5660  -44.9301 H         1 UNK         0.0600 
    148 H148        5.3997  -20.8319  -44.3952 H         1 UNK         0.0600 
    149 H149        2.0081  -19.7221  -43.9386 H         1 UNK         0.3000 
    150 H150       -1.1591  -21.1641  -43.7302 H         1 UNK         0.0600 
    151 H151       -0.7146  -21.4198  -41.2649 H         1 UNK         0.0600 
    152 H152       -1.6765  -19.9947  -41.6153 H         1 UNK         0.0600 
    153 H153        0.0390  -19.8289  -41.2422 H         1 UNK         0.0600 
    154 H154       -0.4899  -18.4790  -43.2234 H         1 UNK         0.3000 
    155 H155        0.6956  -17.4554  -46.3699 H         1 UNK         0.0600 
    156 H156       -1.6893  -17.4333  -46.9351 H         1 UNK         0.0600 
    157 H157       -1.2548  -15.8584  -46.2902 H         1 UNK         0.0600 
    158 H158       -2.1294  -17.0165  -45.2865 H         1 UNK         0.0600 
    159 H159       -0.0775  -15.9026  -44.1444 H         1 UNK         0.3000 
    160 H160        2.8342  -16.4402  -42.1027 H         1 UNK         0.0600 
    161 H161        1.9383  -14.0202  -43.7265 H         1 UNK         0.0600 
    162 H162        3.5059  -14.8137  -43.8987 H         1 UNK         0.0600 
    163 H163        3.0917  -14.0361  -42.3859 H         1 UNK         0.0600 
    164 H164        0.2628  -14.9285  -42.2147 H         1 UNK         0.3000 
    165 H165       -1.1550  -16.8241  -39.6061 H         1 UNK         0.0600 
    166 H166       -1.4035  -14.6424  -38.4380 H         1 UNK         0.0600 
    167 H167        0.2303  -15.2596  -38.2492 H         1 UNK         0.0600 
    168 H168       -0.0856  -13.9585  -39.3891 H         1 UNK         0.0600 
    169 H169       -1.9842  -14.4256  -40.9296 H         1 UNK         0.3000 
    170 H170       -3.4185  -15.9379  -43.8008 H         1 UNK         0.0600 
    171 H171       -4.8355  -14.9250  -41.2850 H         1 UNK         0.0600 
    172 H172       -5.5365  -15.0557  -42.8987 H         1 UNK         0.0600 
    173 H173       -5.0777  -16.5051  -42.0207 H         1 UNK         0.0600 
    174 H174       -3.7687  -13.3347  -42.9257 H         1 UNK         0.3000 
    175 H175       -1.7313  -11.9266  -44.9966 H         1 UNK         0.0600 
    176 H176       -3.1207  -11.3131  -42.3255 H         1 UNK         0.0600 
    177 H177       -2.8228  -10.1525  -43.6121 H         1 UNK         0.0600 
    178 H178       -3.9029  -11.5012  -43.8951 H         1 UNK         0.0600 
    179 H179        0.1270  -11.1912  -44.0849 H         1 UNK         0.3000 
    180 H180        1.2664  -10.0213  -41.6143 H         1 UNK         0.0600 
    181 H181        3.0002  -11.4769  -40.4706 H         1 UNK         0.0600 
    182 H182        1.9456  -12.8706  -40.7101 H         1 UNK         0.0600 
    183 H183        1.4241  -11.5318  -39.7002 H         1 UNK         0.0600 
    184 H184        2.3426  -12.2770  -43.2649 H         1 UNK         0.3000 
    185 H185        3.3494  -10.0836  -45.8180 H         1 UNK         0.0600 
    186 H186        5.5112  -11.2794  -45.6341 H         1 UNK         0.0600 
    187 H187        5.3700  -10.1007  -44.3399 H         1 UNK         0.0600 
    188 H188        5.1156  -11.8082  -43.9983 H         1 UNK         0.0600 
    189 H189        3.6092  -12.8609  -45.7140 H         1 UNK         0.3000 
    190 H190        1.0666  -23.8402  -49.4430 H         1 UNK         0.3000 
    191 H191       -0.2731  -25.7088  -47.6711 H         1 UNK         0.0600 
    192 H192        1.0013  -26.4780  -49.6437 H         1 UNK         0.0600 
    193 H193       -0.0517  -25.5612  -50.7188 H         1 UNK         0.0600 
    194 H194       -0.6857  -26.9300  -49.8087 H         1 UNK         0.0600 
    195 H195       -1.4836  -23.4097  -47.1123 H         1 UNK         0.3000 
    196 H196       -3.7422  -22.6470  -48.6557 H         1 UNK         0.0600 
    197 H197       -2.6046  -21.2168  -46.9285 H         1 UNK         0.0600 
    198 H198       -3.1953  -22.2802  -45.6563 H         1 UNK         0.0600 
    199 H199       -4.3304  -21.3428  -46.6225 H         1 UNK         0.0600 
    200 H200       -3.3391  -25.3108  -46.4639 H         1 UNK         0.3000 
    201 H201       -6.1560  -25.7913  -45.9174 H         1 UNK         0.0600 
    202 H202       -4.3696  -26.5176  -44.3450 H         1 UNK         0.0600 
    203 H203       -3.6794  -27.5699  -45.5817 H         1 UNK         0.0600 
    204 H204       -5.2776  -27.9037  -44.9261 H         1 UNK         0.0600 
    205 H205       -4.1048  -26.3579  -48.6379 H         1 UNK         0.3000 
    206 H206       -5.8328  -28.5166  -49.7616 H         1 UNK         0.0600 
    207 H207       -3.0603  -27.5231  -50.6426 H         1 UNK         0.0600 
    208 H208       -3.3360  -28.9567  -49.6579 H         1 UNK         0.0600 
    209 H209       -3.9377  -28.8975  -51.3031 H         1 UNK         0.0600 
    210 H210       -5.9052  -28.1738  -52.2842 H         1 UNK         0.3000 
    211 H211       -7.0879  -25.5614  -52.8811 H         1 UNK         0.0600 
    212 H212       -6.6412  -28.0493  -54.6167 H         1 UNK         0.0600 
    213 H213       -7.6092  -26.6474  -55.0563 H         1 UNK         0.0600 
    214 H214       -8.1126  -27.6692  -53.7205 H         1 UNK         0.0600 
    215 H215       -3.9451  -26.7986  -52.9268 H         1 UNK         0.3000 
    216 H216       -2.7411  -26.0405  -55.2796 H         1 UNK         0.0600 
    217 H217       -0.6344  -26.0392  -53.8866 H         1 UNK         0.0600 
    218 H218       -1.6581  -27.4270  -53.5493 H         1 UNK         0.0600 
    219 H219       -1.6213  -26.0660  -52.4292 H         1 UNK         0.0600 
    220 H220       -2.0081  -24.2436  -56.2104 H         1 UNK         0.3000 
    221 H221       -1.7323  -22.1254  -56.7923 H         1 UNK         0.0600 
    222 H222       -0.8559  -21.6635  -53.8901 H         1 UNK         0.0600 
    223 H223        0.1717  -22.3032  -55.1698 H         1 UNK         0.0600 
    224 H224       -0.4468  -20.6654  -55.2804 H         1 UNK         0.0600 
    225 H225       -4.3591  -22.7762  -56.2806 H         1 UNK         0.3000 
    226 H226       -6.4243  -22.0175  -56.0036 H         1 UNK         0.0600 
    227 H227       -5.7005  -20.1064  -57.4542 H         1 UNK         0.0600 
    228 H228       -6.9335  -19.6221  -56.3010 H         1 UNK         0.0600 
    229 H229       -5.2568  -19.1794  -56.0219 H         1 UNK         0.0600 
    230 H230       -5.3379  -23.0481  -53.8650 H         1 UNK         0.3000 
    231 H231       -5.2602  -23.3203  -51.6814 H         1 UNK         0.0600 
    232 H232       -7.2069  -22.5965  -50.3267 H         1 UNK         0.0600 
    233 H233       -7.7477  -23.1890  -51.8879 H         1 UNK         0.0600 
    234 H234       -7.6942  -21.4533  -51.5743 H         1 UNK         0.0600 
    235 H235       -3.3200  -21.8390  -52.4063 H         1 UNK         0.3000 
    236 H236       -1.7547  -20.3267  -51.9808 H         1 UNK         0.0600 
    237 H237       -2.9058  -20.2644  -49.1447 H         1 UNK         0.0600 
    238 H238       -1.7133  -21.4172  -49.7509 H         1 UNK         0.0600 
    239 H239       -1.3147  -19.7058  -49.6305 H         1 UNK         0.0600 
    240 H240       -3.4435  -19.1741  -53.5086 H         1 UNK         0.3000 
    241 H241       -4.1929  -17.2668  -54.3275 H         1 UNK         0.0600 
    242 H242       -6.1573  -18.4841  -52.7658 H         1 UNK         0.3800 
    243 H243       -7.0993  -17.2206  -52.0098 H         1 UNK         0.3800 
    244 H244       -2.2709  -16.0783  -52.2682 H         1 UNK         0.0800 
    245 H245       -3.1863  -15.0615  -53.3265 H         1 UNK         0.0800 
    246 H246        0.0607  -17.8910  -55.0689 H         1 UNK         0.0800 
    247 H247       -1.2607  -18.5677  -54.1739 H         1 UNK         0.0800 
@<TRIPOS>BOND
     1    1    2 1    
     2    1  127 1    
     3    1  128 1    
     4    1  129 1    
     5    2    3 2    
     6    2    4 am   BACKBONE|DICT|INTERRES
     7    4    5 1    
     8    4  130 1    
     9    5    6 1    
    10    5   65 1    
    11    5  131 1    
    12    6    7 1    
    13    6  132 1    
    14    6  133 1    
    15    7    8 1    
    16    8    9 1    
    17    8  134 1    
    18    8  135 1    
    19    9   10 ar   
    20    9   14 ar   
    21   10   11 ar   
    22   10  136 1    
    23   11   12 ar   
    24   11  126 1    
    25   12   13 ar   
    26   12  137 1    
    27   13   14 ar   
    28   13   15 1    
    29   14  138 1    
    30   15   16 1    
    31   15  139 1    
    32   15  140 1    
    33   16   17 1    
    34   17   18 1    
    35   17  141 1    
    36   17  142 1    
    37   18   19 1    
    38   18   67 1    
    39   18  143 1    
    40   19   20 am   BACKBONE|DICT|INTERRES
    41   19  144 1    
    42   20   21 2    
    43   20   22 1    
    44   22   23 1    
    45   22   24 1    
    46   22  145 1    
    47   23  146 1    
    48   23  147 1    
    49   23  148 1    
    50   24   25 am   BACKBONE|DICT|INTERRES
    51   24  149 1    
    52   25   26 2    
    53   25   27 1    
    54   27   28 1    
    55   27   29 1    
    56   27  150 1    
    57   28  151 1    
    58   28  152 1    
    59   28  153 1    
    60   29   30 am   BACKBONE|DICT|INTERRES
    61   29  154 1    
    62   30   31 2    
    63   30   32 1    
    64   32   33 1    
    65   32   34 1    
    66   32  155 1    
    67   33  156 1    
    68   33  157 1    
    69   33  158 1    
    70   34   35 am   BACKBONE|DICT|INTERRES
    71   34  159 1    
    72   35   36 2    
    73   35   37 1    
    74   37   38 1    
    75   37   39 1    
    76   37  160 1    
    77   38  161 1    
    78   38  162 1    
    79   38  163 1    
    80   39   40 am   BACKBONE|DICT|INTERRES
    81   39  164 1    
    82   40   41 2    
    83   40   42 1    
    84   42   43 1    
    85   42   44 1    
    86   42  165 1    
    87   43  166 1    
    88   43  167 1    
    89   43  168 1    
    90   44   45 am   BACKBONE|DICT|INTERRES
    91   44  169 1    
    92   45   46 2    
    93   45   47 1    
    94   47   48 1    
    95   47   49 1    
    96   47  170 1    
    97   48  171 1    
    98   48  172 1    
    99   48  173 1    
   100   49   50 am   BACKBONE|DICT|INTERRES
   101   49  174 1    
   102   50   51 2    
   103   50   52 1    
   104   52   53 1    
   105   52   54 1    
   106   52  175 1    
   107   53  176 1    
   108   53  177 1    
   109   53  178 1    
   110   54   55 am   BACKBONE|DICT|INTERRES
   111   54  179 1    
   112   55   56 2    
   113   55   57 1    
   114   57   58 1    
   115   57   59 1    
   116   57  180 1    
   117   58  181 1    
   118   58  182 1    
   119   58  183 1    
   120   59   60 am   BACKBONE|DICT|INTERRES
   121   59  184 1    
   122   60   61 2    
   123   60   62 1    
   124   62   63 1    
   125   62   64 1    
   126   62  185 1    
   127   63  186 1    
   128   63  187 1    
   129   63  188 1    
   130   64   65 am   BACKBONE|DICT|INTERRES
   131   64  189 1    
   132   65   66 2    
   133   67   68 2    
   134   67   69 am   BACKBONE|DICT|INTERRES
   135   69   70 1    
   136   69  190 1    
   137   70   71 1    
   138   70   72 1    
   139   70  191 1    
   140   71  192 1    
   141   71  193 1    
   142   71  194 1    
   143   72   73 2    
   144   72   74 am   BACKBONE|DICT|INTERRES
   145   74   75 1    
   146   74  195 1    
   147   75   76 1    
   148   75   77 1    
   149   75  196 1    
   150   76  197 1    
   151   76  198 1    
   152   76  199 1    
   153   77   78 2    
   154   77   79 am   BACKBONE|DICT|INTERRES
   155   79   80 1    
   156   79  200 1    
   157   80   81 1    
   158   80   82 1    
   159   80  201 1    
   160   81  202 1    
   161   81  203 1    
   162   81  204 1    
   163   82   83 2    
   164   82   84 am   BACKBONE|DICT|INTERRES
   165   84   85 1    
   166   84  205 1    
   167   85   86 1    
   168   85   87 1    
   169   85  206 1    
   170   86  207 1    
   171   86  208 1    
   172   86  209 1    
   173   87   88 2    
   174   87   89 am   BACKBONE|DICT|INTERRES
   175   89   90 1    
   176   89  210 1    
   177   90   91 1    
   178   90   92 1    
   179   90  211 1    
   180   91  212 1    
   181   91  213 1    
   182   91  214 1    
   183   92   93 2    
   184   92   94 am   BACKBONE|DICT|INTERRES
   185   94   95 1    
   186   94  215 1    
   187   95   96 1    
   188   95   97 1    
   189   95  216 1    
   190   96  217 1    
   191   96  218 1    
   192   96  219 1    
   193   97   98 2    
   194   97   99 am   BACKBONE|DICT|INTERRES
   195   99  100 1    
   196   99  220 1    
   197  100  101 1    
   198  100  102 1    
   199  100  221 1    
   200  101  222 1    
   201  101  223 1    
   202  101  224 1    
   203  102  103 2    
   204  102  104 am   BACKBONE|DICT|INTERRES
   205  104  105 1    
   206  104  225 1    
   207  105  106 1    
   208  105  107 1    
   209  105  226 1    
   210  106  227 1    
   211  106  228 1    
   212  106  229 1    
   213  107  108 2    
   214  107  109 am   BACKBONE|DICT|INTERRES
   215  109  110 1    
   216  109  230 1    
   217  110  111 1    
   218  110  112 1    
   219  110  231 1    
   220  111  232 1    
   221  111  233 1    
   222  111  234 1    
   223  112  113 2    
   224  112  114 am   BACKBONE|DICT|INTERRES
   225  114  115 1    
   226  114  235 1    
   227  115  116 1    
   228  115  117 1    
   229  115  236 1    
   230  116  237 1    
   231  116  238 1    
   232  116  239 1    
   233  117  118 2    
   234  117  119 am   BACKBONE|DICT|INTERRES
   235  119  120 1    
   236  119  240 1    
   237  120  121 1    
   238  120  124 1    
   239  120  241 1    
   240  121  122 am   BACKBONE|DICT|INTERRES
   241  121  123 2    
   242  122  242 1    
   243  122  243 1    
   244  124  125 1    
   245  124  244 1    
   246  124  245 1    
   247  125  126 1    
   248  126  246 1    
   249  126  247 1    
@<TRIPOS>SUBSTRUCTURE
     1 UNK         1 GROUP             0       ****    0 ROOT    
