@<TRIPOS>MOLECULE
3R540
247   249    1
SMALL
USER_CHARGES


@<TRIPOS>ATOM
      1 CA         -0.8976   -9.9425  -49.3712 C.3       0 UNK        -0.1800 
      2 C          -1.4964  -11.0725  -48.5462 C.2       0 UNK         0.5000 
      3 O          -1.9806  -10.8316  -47.4401 O.2       0 UNK        -0.5000 
      4 N          -1.4564  -12.3033  -49.0751 N.am      1 UNK        -0.5000 
      5 CA         -1.9562  -13.5556  -48.4886 C.3       1 UNK         0.1400 
      6 C6         -3.4651  -13.5090  -48.1235 C.3       23 UNK        -0.0398 
      7 S7         -4.2056  -15.1710  -47.9983 S.3       23 UNK        -0.2404 
      8 C8         -5.1416  -15.2671  -49.5592 C.3       23 UNK        -0.0205 
      9 C9         -5.6053  -16.6892  -49.8393 C.ar      23 UNK        -0.0193 
     10 C10        -5.1907  -17.3576  -50.9953 C.ar      23 UNK        -0.1150 
     11 C11        -5.5898  -18.6759  -51.2355 C.ar      23 UNK        -0.0193 
     12 C12        -6.3889  -19.3290  -50.2920 C.ar      23 UNK        -0.1150 
     13 C13        -6.8217  -18.6731  -49.1351 C.ar      23 UNK        -0.0193 
     14 C14        -6.4506  -17.3393  -48.9366 C.ar      23 UNK        -0.1150 
     15 C15        -7.6873  -19.4376  -48.1307 C.3       23 UNK        -0.0205 
     16 S16        -7.5653  -18.8992  -46.3805 S.3       23 UNK        -0.2404 
     17 C17        -5.7807  -18.7271  -45.9943 C.3       23 UNK        -0.0398 
     18 CA         -4.8143  -19.7472  -46.6555 C.3       11 UNK         0.1400 
     19 N          -3.5849  -19.0946  -47.1145 N.am      11 UNK        -0.5000 
     20 C          -2.7037  -19.6389  -47.9617 C.2       10 UNK         0.5000 
     21 O          -2.8140  -20.7742  -48.4203 O.2       10 UNK        -0.5000 
     22 CA         -1.4504  -18.8096  -48.2859 C.3       10 UNK         0.1400 
     23 CB         -1.7251  -17.8672  -49.4652 C.3       10 UNK        -0.1800 
     24 N          -0.9396  -18.0358  -47.1504 N.am      10 UNK        -0.5000 
     25 C          -0.6046  -18.5368  -45.9549 C.2       9 UNK         0.5000 
     26 O          -0.7646  -19.7167  -45.6327 O.2       9 UNK        -0.5000 
     27 CA         -0.0539  -17.5374  -44.9245 C.3       9 UNK         0.1400 
     28 CB         -1.2011  -17.0219  -44.0417 C.3       9 UNK        -0.1800 
     29 N           0.9818  -18.1210  -44.0719 N.am      9 UNK        -0.5000 
     30 C           2.1449  -18.6278  -44.5099 C.2       8 UNK         0.5000 
     31 O           2.4845  -18.6243  -45.6939 O.2       8 UNK        -0.5000 
     32 CA          3.0916  -19.2182  -43.4485 C.3       8 UNK         0.1400 
     33 CB          4.5707  -19.1006  -43.8596 C.3       8 UNK        -0.1800 
     34 N           2.9030  -18.5526  -42.1599 N.am      8 UNK        -0.5000 
     35 C           2.5474  -19.1533  -41.0169 C.2       7 UNK         0.5000 
     36 O           2.3494  -20.3643  -40.9130 O.2       7 UNK        -0.5000 
     37 CA          2.3732  -18.2559  -39.7756 C.3       7 UNK         0.1400 
     38 CB          3.6190  -18.3373  -38.8813 C.3       7 UNK        -0.1800 
     39 N           2.0970  -16.8560  -40.1143 N.am      7 UNK        -0.5000 
     40 C           0.9156  -16.4223  -40.5802 C.2       6 UNK         0.5000 
     41 O          -0.0515  -17.1681  -40.7377 O.2       6 UNK        -0.5000 
     42 CA          0.7859  -14.9422  -40.9999 C.3       6 UNK         0.1400 
     43 CB         -0.5263  -14.2984  -40.5079 C.3       6 UNK        -0.1800 
     44 N           1.9527  -14.1116  -40.6881 N.am      6 UNK        -0.5000 
     45 C           2.3787  -13.6692  -39.4964 C.2       5 UNK         0.5000 
     46 O           1.7908  -13.8673  -38.4325 O.2       5 UNK        -0.5000 
     47 CA          3.7157  -12.8914  -39.5248 C.3       5 UNK         0.1400 
     48 CB          4.3828  -12.7860  -38.1370 C.3       5 UNK        -0.1800 
     49 N           4.6586  -13.4218  -40.5240 N.am      5 UNK        -0.5000 
     50 C           5.1560  -14.6681  -40.5627 C.2       4 UNK         0.5000 
     51 O           4.9077  -15.5230  -39.7133 O.2       4 UNK        -0.5000 
     52 CA          6.0073  -15.0274  -41.7999 C.3       4 UNK         0.1400 
     53 CB          6.3934  -16.5210  -41.8392 C.3       4 UNK        -0.1800 
     54 N           5.3647  -14.6312  -43.0620 N.am      4 UNK        -0.5000 
     55 C           4.1526  -15.0030  -43.4970 C.2       3 UNK         0.5000 
     56 O           3.3916  -15.7539  -42.8778 O.2       3 UNK        -0.5000 
     57 CA          3.6973  -14.4211  -44.8407 C.3       3 UNK         0.1400 
     58 CB          4.1614  -15.2971  -46.0152 C.3       3 UNK        -0.1800 
     59 N           2.2422  -14.3426  -44.8113 N.am      3 UNK        -0.5000 
     60 C           1.4879  -13.4850  -45.5033 C.2       2 UNK         0.5000 
     61 O           1.9315  -12.6905  -46.3356 O.2       2 UNK        -0.5000 
     62 CA         -0.0107  -13.4794  -45.1550 C.3       2 UNK         0.1400 
     63 CB         -0.3078  -12.4328  -44.0705 C.3       2 UNK        -0.1800 
     64 N          -0.8429  -13.2036  -46.3213 N.am      2 UNK        -0.5000 
     65 C          -1.0862  -14.0631  -47.3166 C.2       1 UNK         0.5000 
     66 O          -0.6545  -15.2168  -47.3380 O.2       1 UNK        -0.5000 
     67 C          -4.5678  -20.9779  -45.7524 C.2       11 UNK         0.5000 
     68 O          -5.4701  -21.8032  -45.6126 O.2       11 UNK        -0.5000 
     69 N          -3.3631  -21.0948  -45.1774 N.am      12 UNK        -0.5000 
     70 CA         -2.9214  -22.2546  -44.4065 C.3       12 UNK         0.1400 
     71 CB         -2.2269  -21.7713  -43.1224 C.3       12 UNK        -0.1800 
     72 C          -1.9720  -23.1356  -45.2359 C.2       12 UNK         0.5000 
     73 O          -2.1166  -24.3582  -45.2272 O.2       12 UNK        -0.5000 
     74 N          -1.0085  -22.5036  -45.9200 N.am      13 UNK        -0.5000 
     75 CA          0.0750  -23.1692  -46.6429 C.3       13 UNK         0.1400 
     76 CB          1.1868  -22.1448  -46.9211 C.3       13 UNK        -0.1800 
     77 C          -0.3667  -23.8502  -47.9510 C.2       13 UNK         0.5000 
     78 O           0.1671  -24.9086  -48.2857 O.2       13 UNK        -0.5000 
     79 N          -1.3076  -23.2282  -48.6696 N.am      14 UNK        -0.5000 
     80 CA         -1.7963  -23.6698  -49.9766 C.3       14 UNK         0.1400 
     81 CB         -1.4601  -22.5851  -51.0067 C.3       14 UNK        -0.1800 
     82 C          -3.3057  -23.9576  -49.9437 C.2       14 UNK         0.5000 
     83 O          -3.7568  -24.9141  -50.5782 O.2       14 UNK        -0.5000 
     84 N          -4.0537  -23.1336  -49.1928 N.am      15 UNK        -0.5000 
     85 CA         -5.4552  -23.2930  -48.7829 C.3       15 UNK         0.1400 
     86 CB         -5.5718  -24.4731  -47.7972 C.3       15 UNK        -0.1800 
     87 C          -6.4732  -23.4002  -49.9372 C.2       15 UNK         0.5000 
     88 O          -7.5758  -23.9061  -49.7284 O.2       15 UNK        -0.5000 
     89 N          -6.0735  -22.9568  -51.1386 N.am      16 UNK        -0.5000 
     90 CA         -6.7577  -23.1149  -52.4297 C.3       16 UNK         0.1400 
     91 CB         -8.1323  -22.4148  -52.4362 C.3       16 UNK        -0.1800 
     92 C          -6.8486  -24.5769  -52.9271 C.2       16 UNK         0.5000 
     93 O          -7.4198  -24.8138  -53.9918 O.2       16 UNK        -0.5000 
     94 N          -6.2558  -25.5264  -52.1898 N.am      17 UNK        -0.5000 
     95 CA         -6.0972  -26.9230  -52.5916 C.3       17 UNK         0.1400 
     96 CB         -5.8830  -27.7895  -51.3411 C.3       17 UNK        -0.1800 
     97 C          -4.9188  -27.0644  -53.5680 C.2       17 UNK         0.5000 
     98 O          -5.0225  -27.7889  -54.5581 O.2       17 UNK        -0.5000 
     99 N          -3.8441  -26.3178  -53.2898 N.am      18 UNK        -0.5000 
    100 CA        -2.6910  -26.1225  -54.1590 C.3       18 UNK         0.1400 
    101 CB        -1.4234  -26.5819  -53.4151 C.3       18 UNK        -0.1800 
    102 C         -2.6482  -24.6354  -54.5425 C.2       18 UNK         0.5000 
    103 O         -1.6836  -23.9456  -54.2210 O.2       18 UNK        -0.5000 
    104 N         -3.7205  -24.1518  -55.1879 N.am      19 UNK        -0.5000 
    105 CA        -3.9966  -22.7353  -55.4706 C.3       19 UNK         0.1400 
    106 CB        -5.3113  -22.6269  -56.2572 C.3       19 UNK        -0.1800 
    107 C         -2.8778  -21.9572  -56.1930 C.2       19 UNK         0.5000 
    108 O         -2.7625  -20.7477  -55.9980 O.2       19 UNK        -0.5000 
    109 N         -2.0473  -22.6575  -56.9767 N.am      20 UNK        -0.5000 
    110 CA        -0.8521  -22.1088  -57.6219 C.3       20 UNK         0.1400 
    111 CB        -0.2767  -23.1612  -58.5816 C.3       20 UNK        -0.1800 
    112 C          0.2298  -21.6406  -56.6245 C.2       20 UNK         0.5000 
    113 O          1.0027  -20.7396  -56.9527 O.2       20 UNK        -0.5000 
    114 N          0.2593  -22.2383  -55.4249 N.am      21 UNK        -0.5000 
    115 CA         1.1891  -21.9051  -54.3467 C.3       21 UNK         0.1400 
    116 CB         1.4594  -23.1633  -53.5040 C.3       21 UNK        -0.1800 
    117 C          0.7106  -20.7283  -53.4717 C.2       21 UNK         0.5000 
    118 O          1.4697  -20.2956  -52.6033 O.2       21 UNK        -0.5000 
    119 N         -0.5050  -20.2077  -53.7082 N.am      22 UNK        -0.5000 
    120 CA        -1.0111  -18.9850  -53.0567 C.3       22 UNK         0.1400 
    121 C         -0.2839  -17.6774  -53.4974 C.2       22 UNK         0.5000 
    122 N          0.4641  -17.6627  -54.5952 N.am      22 UNK        -0.7600 
    123 O         -0.4002  -16.6558  -52.8268 O.2       22 UNK        -0.5000 
    124 C124       -2.5441  -18.8056  -53.2144 C.3       23 UNK        -0.0398 
    125 S125       -3.5445  -20.1317  -52.4594 S.3       23 UNK        -0.2404 
    126 C126       -5.2036  -19.3842  -52.5288 C.3       23 UNK        -0.0205 
    127 H127       -1.6534   -9.1826  -49.5703 H         1 UNK         0.0600 
    128 H128       -0.5121  -10.2974  -50.3273 H         1 UNK         0.0600 
    129 H129       -0.0777   -9.4749  -48.8261 H         1 UNK         0.0600 
    130 H130       -1.0132  -12.4164  -49.9765 H         1 UNK         0.3000 
    131 H131       -1.8407  -14.2876  -49.2902 H         1 UNK         0.0600 
    132 H132       -3.6280  -12.9833  -47.1812 H         1 UNK         0.0800 
    133 H133       -4.0133  -12.9392  -48.8749 H         1 UNK         0.0800 
    134 H134       -4.5155  -14.9033  -50.3755 H         1 UNK         0.0800 
    135 H135       -6.0077  -14.6060  -49.5067 H         1 UNK         0.0800 
    136 H136       -4.5673  -16.8454  -51.7128 H         1 UNK         0.1150 
    137 H137       -6.6901  -20.3506  -50.4665 H         1 UNK         0.1150 
    138 H138       -6.7894  -16.8053  -48.0610 H         1 UNK         0.1150 
    139 H139       -8.7282  -19.3407  -48.4414 H         1 UNK         0.0800 
    140 H140       -7.4631  -20.5043  -48.1757 H         1 UNK         0.0800 
    141 H141       -5.6671  -18.7243  -44.9086 H         1 UNK         0.0800 
    142 H142       -5.5122  -17.7130  -46.2919 H         1 UNK         0.0800 
    143 H143       -5.2681  -20.1505  -47.5564 H         1 UNK         0.0600 
    144 H144       -3.4083  -18.1599  -46.7773 H         1 UNK         0.3000 
    145 H145       -0.6696  -19.5114  -48.5853 H         1 UNK         0.0600 
    146 H146       -0.8014  -17.4388  -49.8547 H         1 UNK         0.0600 
    147 H147       -2.2158  -18.3953  -50.2820 H         1 UNK         0.0600 
    148 H148       -2.3791  -17.0455  -49.1798 H         1 UNK         0.0600 
    149 H149       -0.8052  -17.0382  -47.3095 H         1 UNK         0.3000 
    150 H150        0.3991  -16.6995  -45.4555 H         1 UNK         0.0600 
    151 H151       -1.9700  -16.5356  -44.6439 H         1 UNK         0.0600 
    152 H152       -0.8511  -16.2915  -43.3144 H         1 UNK         0.0600 
    153 H153       -1.6787  -17.8337  -43.4910 H         1 UNK         0.0600 
    154 H154        0.7689  -18.1980  -43.0878 H         1 UNK         0.3000 
    155 H155        2.8444  -20.2788  -43.3733 H         1 UNK         0.0600 
    156 H156        4.8522  -18.0645  -44.0498 H         1 UNK         0.0600 
    157 H157        4.7721  -19.6677  -44.7691 H         1 UNK         0.0600 
    158 H158        5.2286  -19.4911  -43.0832 H         1 UNK         0.0600 
    159 H159        3.0311  -17.5439  -42.1700 H         1 UNK         0.3000 
    160 H160        1.5266  -18.6418  -39.2038 H         1 UNK         0.0600 
    161 H161        4.5259  -18.0817  -39.4298 H         1 UNK         0.0600 
    162 H162        3.7510  -19.3477  -38.4926 H         1 UNK         0.0600 
    163 H163        3.5405  -17.6661  -38.0258 H         1 UNK         0.0600 
    164 H164        2.8709  -16.2072  -40.0292 H         1 UNK         0.3000 
    165 H165        0.7391  -14.9597  -42.0885 H         1 UNK         0.0600 
    166 H166       -0.5998  -13.2575  -40.8223 H         1 UNK         0.0600 
    167 H167       -0.6123  -14.3293  -39.4216 H         1 UNK         0.0600 
    168 H168       -1.3931  -14.8202  -40.9152 H         1 UNK         0.0600 
    169 H169        2.5625  -13.9358  -41.4732 H         1 UNK         0.3000 
    170 H170        3.4668  -11.8786  -39.8451 H         1 UNK         0.0600 
    171 H171        3.7360  -12.2632  -37.4317 H         1 UNK         0.0600 
    172 H172        4.5997  -13.7671  -37.7137 H         1 UNK         0.0600 
    173 H173        5.3184  -12.2296  -38.1909 H         1 UNK         0.0600 
    174 H174        4.9077  -12.7892  -41.2717 H         1 UNK         0.3000 
    175 H175        6.9287  -14.4488  -41.7204 H         1 UNK         0.0600 
    176 H176        5.5150  -17.1660  -41.8324 H         1 UNK         0.0600 
    177 H177        6.9770  -16.7569  -42.7289 H         1 UNK         0.0600 
    178 H178        6.9983  -16.7896  -40.9724 H         1 UNK         0.0600 
    179 H179        5.9075  -14.0051  -43.6409 H         1 UNK         0.3000 
    180 H180        4.1128  -13.4165  -44.9450 H         1 UNK         0.0600 
    181 H181        3.7634  -16.3087  -45.9425 H         1 UNK         0.0600 
    182 H182        5.2489  -15.3730  -46.0423 H         1 UNK         0.0600 
    183 H183        3.8403  -14.8809  -46.9701 H         1 UNK         0.0600 
    184 H184        1.8269  -14.9578  -44.1249 H         1 UNK         0.3000 
    185 H185       -0.2852  -14.4589  -44.7652 H         1 UNK         0.0600 
    186 H186        0.3016  -12.6013  -43.1818 H         1 UNK         0.0600 
    187 H187       -0.1010  -11.4211  -44.4222 H         1 UNK         0.0600 
    188 H188       -1.3521  -12.4728  -43.7601 H         1 UNK         0.0600 
    189 H189       -1.1977  -12.2573  -46.4241 H         1 UNK         0.3000 
    190 H190       -2.6567  -20.3938  -45.3701 H         1 UNK         0.3000 
    191 H191       -3.7748  -22.8693  -44.1124 H         1 UNK         0.0600 
    192 H192       -1.8826  -22.6154  -42.5236 H         1 UNK         0.0600 
    193 H193       -2.9100  -21.1903  -42.5026 H         1 UNK         0.0600 
    194 H194       -1.3595  -21.1460  -43.3376 H         1 UNK         0.0600 
    195 H195       -0.9398  -21.4905  -45.8468 H         1 UNK         0.3000 
    196 H196        0.4875  -23.9435  -45.9926 H         1 UNK         0.0600 
    197 H197        0.8323  -21.3269  -47.5495 H         1 UNK         0.0600 
    198 H198        1.5655  -21.7112  -45.9952 H         1 UNK         0.0600 
    199 H199        2.0307  -22.6104  -47.4317 H         1 UNK         0.0600 
    200 H200       -1.7076  -22.3668  -48.3132 H         1 UNK         0.3000 
    201 H201       -1.3039  -24.5937  -50.2862 H         1 UNK         0.0600 
    202 H202       -1.8208  -21.6065  -50.6947 H         1 UNK         0.0600 
    203 H203       -1.9042  -22.8026  -51.9762 H         1 UNK         0.0600 
    204 H204       -0.3830  -22.5015  -51.1439 H         1 UNK         0.0600 
    205 H205       -3.5925  -22.3065  -48.8173 H         1 UNK         0.3000 
    206 H206       -5.7197  -22.3837  -48.2460 H         1 UNK         0.0600 
    207 H207       -4.8613  -24.3704  -46.9765 H         1 UNK         0.0600 
    208 H208       -6.5671  -24.5209  -47.3539 H         1 UNK         0.0600 
    209 H209       -5.3825  -25.4286  -48.2877 H         1 UNK         0.0600 
    210 H210       -5.1405  -22.5711  -51.1891 H         1 UNK         0.3000 
    211 H211       -6.1298  -22.5987  -53.1555 H         1 UNK         0.0600 
    212 H212       -8.5551  -22.3990  -53.4414 H         1 UNK         0.0600 
    213 H213       -8.0563  -21.3799  -52.1055 H         1 UNK         0.0600 
    214 H214       -8.8520  -22.9212  -51.7931 H         1 UNK         0.0600 
    215 H215       -5.7630  -25.2429  -51.3523 H         1 UNK         0.3000 
    216 H216       -7.0059  -27.2607  -53.0945 H         1 UNK         0.0600 
    217 H217       -4.9884  -27.4940  -50.7913 H         1 UNK         0.0600 
    218 H218       -5.7722  -28.8408  -51.6098 H         1 UNK         0.0600 
    219 H219       -6.7321  -27.7146  -50.6615 H         1 UNK         0.0600 
    220 H220       -3.8551  -25.7601  -52.4414 H         1 UNK         0.3000 
    221 H221       -2.7831  -26.7005  -55.0805 H         1 UNK         0.0600 
    222 H222       -1.4794  -27.6407  -53.1622 H         1 UNK         0.0600 
    223 H223       -1.2748  -26.0251  -52.4889 H         1 UNK         0.0600 
    224 H224       -0.5347  -26.4403  -54.0314 H         1 UNK         0.0600 
    225 H225       -4.4599  -24.7992  -55.4207 H         1 UNK         0.3000 
    226 H226       -4.1388  -22.2469  -54.5059 H         1 UNK         0.0600 
    227 H227       -5.2440  -23.1332  -57.2208 H         1 UNK         0.0600 
    228 H228       -6.1436  -23.0640  -55.7067 H         1 UNK         0.0600 
    229 H229       -5.5668  -21.5841  -56.4510 H         1 UNK         0.0600 
    230 H230       -2.2055  -23.6492  -57.0764 H         1 UNK         0.3000 
    231 H231       -1.1559  -21.2393  -58.2085 H         1 UNK         0.0600 
    232 H232        0.0252  -24.0657  -58.0519 H         1 UNK         0.0600 
    233 H233        0.6015  -22.7768  -59.1020 H         1 UNK         0.0600 
    234 H234       -1.0055  -23.4432  -59.3418 H         1 UNK         0.0600 
    235 H235       -0.4477  -22.9329  -55.1941 H         1 UNK         0.3000 
    236 H236        2.1411  -21.6002  -54.7862 H         1 UNK         0.0600 
    237 H237        1.8626  -23.9680  -54.1188 H         1 UNK         0.0600 
    238 H238        2.1875  -22.9608  -52.7177 H         1 UNK         0.0600 
    239 H239        0.5562  -23.5352  -53.0231 H         1 UNK         0.0600 
    240 H240       -1.0871  -20.6065  -54.4328 H         1 UNK         0.3000 
    241 H241       -0.8040  -19.0923  -51.9913 H         1 UNK         0.0600 
    242 H242        0.9297  -16.8103  -54.8645 H         1 UNK         0.3800 
    243 H243        0.5672  -18.4902  -55.1618 H         1 UNK         0.3800 
    244 H244       -2.8095  -18.7275  -54.2695 H         1 UNK         0.0800 
    245 H245       -2.8530  -17.8656  -52.7574 H         1 UNK         0.0800 
    246 H246       -5.2665  -18.6891  -53.3674 H         1 UNK         0.0800 
    247 H247       -5.9262  -20.1703  -52.7472 H         1 UNK         0.0800 
@<TRIPOS>BOND
     1    1    2 1    
     2    1  127 1    
     3    1  128 1    
     4    1  129 1    
     5    2    3 2    
     6    2    4 am   BACKBONE|DICT|INTERRES
     7    4    5 1    
     8    4  130 1    
     9    5    6 1    
    10    5   65 1    
    11    5  131 1    
    12    6    7 1    
    13    6  132 1    
    14    6  133 1    
    15    7    8 1    
    16    8    9 1    
    17    8  134 1    
    18    8  135 1    
    19    9   10 ar   
    20    9   14 ar   
    21   10   11 ar   
    22   10  136 1    
    23   11   12 ar   
    24   11  126 1    
    25   12   13 ar   
    26   12  137 1    
    27   13   14 ar   
    28   13   15 1    
    29   14  138 1    
    30   15   16 1    
    31   15  139 1    
    32   15  140 1    
    33   16   17 1    
    34   17   18 1    
    35   17  141 1    
    36   17  142 1    
    37   18   19 1    
    38   18   67 1    
    39   18  143 1    
    40   19   20 am   BACKBONE|DICT|INTERRES
    41   19  144 1    
    42   20   21 2    
    43   20   22 1    
    44   22   23 1    
    45   22   24 1    
    46   22  145 1    
    47   23  146 1    
    48   23  147 1    
    49   23  148 1    
    50   24   25 am   BACKBONE|DICT|INTERRES
    51   24  149 1    
    52   25   26 2    
    53   25   27 1    
    54   27   28 1    
    55   27   29 1    
    56   27  150 1    
    57   28  151 1    
    58   28  152 1    
    59   28  153 1    
    60   29   30 am   BACKBONE|DICT|INTERRES
    61   29  154 1    
    62   30   31 2    
    63   30   32 1    
    64   32   33 1    
    65   32   34 1    
    66   32  155 1    
    67   33  156 1    
    68   33  157 1    
    69   33  158 1    
    70   34   35 am   BACKBONE|DICT|INTERRES
    71   34  159 1    
    72   35   36 2    
    73   35   37 1    
    74   37   38 1    
    75   37   39 1    
    76   37  160 1    
    77   38  161 1    
    78   38  162 1    
    79   38  163 1    
    80   39   40 am   BACKBONE|DICT|INTERRES
    81   39  164 1    
    82   40   41 2    
    83   40   42 1    
    84   42   43 1    
    85   42   44 1    
    86   42  165 1    
    87   43  166 1    
    88   43  167 1    
    89   43  168 1    
    90   44   45 am   BACKBONE|DICT|INTERRES
    91   44  169 1    
    92   45   46 2    
    93   45   47 1    
    94   47   48 1    
    95   47   49 1    
    96   47  170 1    
    97   48  171 1    
    98   48  172 1    
    99   48  173 1    
   100   49   50 am   BACKBONE|DICT|INTERRES
   101   49  174 1    
   102   50   51 2    
   103   50   52 1    
   104   52   53 1    
   105   52   54 1    
   106   52  175 1    
   107   53  176 1    
   108   53  177 1    
   109   53  178 1    
   110   54   55 am   BACKBONE|DICT|INTERRES
   111   54  179 1    
   112   55   56 2    
   113   55   57 1    
   114   57   58 1    
   115   57   59 1    
   116   57  180 1    
   117   58  181 1    
   118   58  182 1    
   119   58  183 1    
   120   59   60 am   BACKBONE|DICT|INTERRES
   121   59  184 1    
   122   60   61 2    
   123   60   62 1    
   124   62   63 1    
   125   62   64 1    
   126   62  185 1    
   127   63  186 1    
   128   63  187 1    
   129   63  188 1    
   130   64   65 am   BACKBONE|DICT|INTERRES
   131   64  189 1    
   132   65   66 2    
   133   67   68 2    
   134   67   69 am   BACKBONE|DICT|INTERRES
   135   69   70 1    
   136   69  190 1    
   137   70   71 1    
   138   70   72 1    
   139   70  191 1    
   140   71  192 1    
   141   71  193 1    
   142   71  194 1    
   143   72   73 2    
   144   72   74 am   BACKBONE|DICT|INTERRES
   145   74   75 1    
   146   74  195 1    
   147   75   76 1    
   148   75   77 1    
   149   75  196 1    
   150   76  197 1    
   151   76  198 1    
   152   76  199 1    
   153   77   78 2    
   154   77   79 am   BACKBONE|DICT|INTERRES
   155   79   80 1    
   156   79  200 1    
   157   80   81 1    
   158   80   82 1    
   159   80  201 1    
   160   81  202 1    
   161   81  203 1    
   162   81  204 1    
   163   82   83 2    
   164   82   84 am   BACKBONE|DICT|INTERRES
   165   84   85 1    
   166   84  205 1    
   167   85   86 1    
   168   85   87 1    
   169   85  206 1    
   170   86  207 1    
   171   86  208 1    
   172   86  209 1    
   173   87   88 2    
   174   87   89 am   BACKBONE|DICT|INTERRES
   175   89   90 1    
   176   89  210 1    
   177   90   91 1    
   178   90   92 1    
   179   90  211 1    
   180   91  212 1    
   181   91  213 1    
   182   91  214 1    
   183   92   93 2    
   184   92   94 am   BACKBONE|DICT|INTERRES
   185   94   95 1    
   186   94  215 1    
   187   95   96 1    
   188   95   97 1    
   189   95  216 1    
   190   96  217 1    
   191   96  218 1    
   192   96  219 1    
   193   97   98 2    
   194   97   99 am   BACKBONE|DICT|INTERRES
   195   99  100 1    
   196   99  220 1    
   197  100  101 1    
   198  100  102 1    
   199  100  221 1    
   200  101  222 1    
   201  101  223 1    
   202  101  224 1    
   203  102  103 2    
   204  102  104 am   BACKBONE|DICT|INTERRES
   205  104  105 1    
   206  104  225 1    
   207  105  106 1    
   208  105  107 1    
   209  105  226 1    
   210  106  227 1    
   211  106  228 1    
   212  106  229 1    
   213  107  108 2    
   214  107  109 am   BACKBONE|DICT|INTERRES
   215  109  110 1    
   216  109  230 1    
   217  110  111 1    
   218  110  112 1    
   219  110  231 1    
   220  111  232 1    
   221  111  233 1    
   222  111  234 1    
   223  112  113 2    
   224  112  114 am   BACKBONE|DICT|INTERRES
   225  114  115 1    
   226  114  235 1    
   227  115  116 1    
   228  115  117 1    
   229  115  236 1    
   230  116  237 1    
   231  116  238 1    
   232  116  239 1    
   233  117  118 2    
   234  117  119 am   BACKBONE|DICT|INTERRES
   235  119  120 1    
   236  119  240 1    
   237  120  121 1    
   238  120  124 1    
   239  120  241 1    
   240  121  122 am   BACKBONE|DICT|INTERRES
   241  121  123 2    
   242  122  242 1    
   243  122  243 1    
   244  124  125 1    
   245  124  244 1    
   246  124  245 1    
   247  125  126 1    
   248  126  246 1    
   249  126  247 1    
@<TRIPOS>SUBSTRUCTURE
     1 UNK         1 GROUP             0       ****    0 ROOT    
