@<TRIPOS>MOLECULE
3R540
247   249    1
SMALL
USER_CHARGES


@<TRIPOS>ATOM
      1 CA          5.6631  -15.5935  -44.4366 C.3       0 UNK        -0.1800 
      2 C           6.2474  -16.6572  -45.3661 C.2       0 UNK         0.5000 
      3 O           7.0465  -17.4723  -44.9102 O.2       0 UNK        -0.5000 
      4 N           5.8874  -16.7116  -46.6573 N.am      1 UNK        -0.5000 
      5 CA          5.0104  -15.7936  -47.3936 C.3       1 UNK         0.1400 
      6 C6          4.7626  -16.2840  -48.8450 C.3       23 UNK        -0.0398 
      7 S7          3.2889  -17.3534  -48.9695 S.3       23 UNK        -0.2404 
      8 C8          2.0740  -16.1190  -49.5299 C.3       23 UNK        -0.0205 
      9 C9          0.7450  -16.7421  -49.9238 C.ar      23 UNK        -0.0193 
     10 C10         0.5687  -17.2483  -51.2145 C.ar      23 UNK        -0.1150 
     11 C11        -0.6751  -17.7360  -51.6236 C.ar      23 UNK        -0.0193 
     12 C12        -1.7475  -17.7172  -50.7256 C.ar      23 UNK        -0.1150 
     13 C13        -1.5803  -17.2303  -49.4254 C.ar      23 UNK        -0.0193 
     14 C14        -0.3291  -16.7478  -49.0294 C.ar      23 UNK        -0.1150 
     15 C15        -2.7690  -17.1588  -48.4766 C.3       23 UNK        -0.0205 
     16 S16        -3.3126  -18.7912  -47.8865 S.3       23 UNK        -0.2404 
     17 C17        -1.9686  -19.2793  -46.7504 C.3       23 UNK        -0.0398 
     18 CA         -1.2538  -20.5839  -47.1806 C.3       11 UNK         0.1400 
     19 N          -0.0223  -20.8070  -46.4174 N.am      11 UNK        -0.5000 
     20 C           0.9347  -21.6814  -46.7623 C.2       10 UNK         0.5000 
     21 O           0.9082  -22.3510  -47.7929 O.2       10 UNK        -0.5000 
     22 CA          2.0819  -21.8954  -45.7590 C.3       10 UNK         0.1400 
     23 CB          3.1911  -20.8523  -45.9612 C.3       10 UNK        -0.1800 
     24 N           1.6124  -21.8734  -44.3722 N.am      10 UNK        -0.5000 
     25 C           0.8387  -22.8290  -43.8352 C.2       9 UNK         0.5000 
     26 O           0.4994  -23.8426  -44.4441 O.2       9 UNK        -0.5000 
     27 CA          0.3151  -22.6065  -42.4021 C.3       9 UNK         0.1400 
     28 CB          1.2748  -23.2305  -41.3788 C.3       9 UNK        -0.1800 
     29 N           0.0981  -21.2007  -42.0601 N.am      9 UNK        -0.5000 
     30 C          -0.7187  -20.3545  -42.7024 C.2       8 UNK         0.5000 
     31 O          -1.4270  -20.6820  -43.6558 O.2       8 UNK        -0.5000 
     32 CA         -0.6926  -18.8803  -42.2472 C.3       8 UNK         0.1400 
     33 CB         -0.2425  -18.6935  -40.7824 C.3       8 UNK        -0.1800 
     34 N           0.1237  -18.0369  -43.1262 N.am      8 UNK        -0.5000 
     35 C           1.3874  -18.2546  -43.5266 C.2       7 UNK         0.5000 
     36 O           2.0495  -19.2532  -43.2442 O.2       7 UNK        -0.5000 
     37 CA          2.0319  -17.1489  -44.3747 C.3       7 UNK         0.1400 
     38 CB          1.3655  -17.0603  -45.7566 C.3       7 UNK        -0.1800 
     39 N           1.9619  -15.8459  -43.7194 N.am      7 UNK        -0.5000 
     40 C           2.5321  -15.5252  -42.5481 C.2       6 UNK         0.5000 
     41 O           3.2362  -16.2889  -41.8880 O.2       6 UNK        -0.5000 
     42 CA          2.2652  -14.1028  -42.0291 C.3       6 UNK         0.1400 
     43 CB          3.2115  -13.0908  -42.6958 C.3       6 UNK        -0.1800 
     44 N           0.8763  -13.7059  -42.2597 N.am      6 UNK        -0.5000 
     45 C          -0.1558  -14.1068  -41.5036 C.2       5 UNK         0.5000 
     46 O          -0.0341  -14.7828  -40.4819 O.2       5 UNK        -0.5000 
     47 CA         -1.5643  -13.6881  -41.9671 C.3       5 UNK         0.1400 
     48 CB         -1.9782  -12.3668  -41.3017 C.3       5 UNK        -0.1800 
     49 N          -1.6735  -13.5456  -43.4199 N.am      5 UNK        -0.5000 
     50 C          -1.6420  -14.5648  -44.2893 C.2       4 UNK         0.5000 
     51 O          -1.5275  -15.7471  -43.9621 O.2       4 UNK        -0.5000 
     52 CA         -1.6901  -14.1867  -45.7824 C.3       4 UNK         0.1400 
     53 CB         -3.1411  -14.0068  -46.2520 C.3       4 UNK        -0.1800 
     54 N          -0.9124  -12.9861  -46.1148 N.am      4 UNK        -0.5000 
     55 C           0.4086  -12.8775  -45.9301 C.2       3 UNK         0.5000 
     56 O           1.0939  -13.7647  -45.4119 O.2       3 UNK        -0.5000 
     57 CA          1.0851  -11.5686  -46.3629 C.3       3 UNK         0.1400 
     58 CB          0.8257  -10.4464  -45.3441 C.3       3 UNK        -0.1800 
     59 N           2.5122  -11.8496  -46.4318 N.am      3 UNK        -0.5000 
     60 C           3.4266  -11.2740  -47.2187 C.2       2 UNK         0.5000 
     61 O           3.2049  -10.3089  -47.9496 O.2       2 UNK        -0.5000 
     62 CA          4.8077  -11.9488  -47.2189 C.3       2 UNK         0.1400 
     63 CB          5.6237  -11.5128  -45.9855 C.3       2 UNK        -0.1800 
     64 N           4.6114  -13.3996  -47.2433 N.am      2 UNK        -0.5000 
     65 C           5.5440  -14.3444  -47.3948 C.2       1 UNK         0.5000 
     66 O           6.7472  -14.1234  -47.5440 O.2       1 UNK        -0.5000 
     67 C          -2.1807  -21.8150  -47.0834 C.2       11 UNK         0.5000 
     68 O          -2.7438  -22.2377  -48.0943 O.2       11 UNK        -0.5000 
     69 N          -2.2929  -22.4022  -45.8825 N.am      12 UNK        -0.5000 
     70 CA         -3.0417  -23.6372  -45.6349 C.3       12 UNK         0.1400 
     71 CB         -3.0416  -23.9596  -44.1343 C.3       12 UNK        -0.1800 
     72 C          -2.5177  -24.8299  -46.4586 C.2       12 UNK         0.5000 
     73 O          -3.3201  -25.5953  -46.9918 O.2       12 UNK        -0.5000 
     74 N          -1.1884  -24.9418  -46.5708 N.am      13 UNK        -0.5000 
     75 CA         -0.5034  -25.9634  -47.3548 C.3       13 UNK         0.1400 
     76 CB          0.9558  -26.0745  -46.8824 C.3       13 UNK        -0.1800 
     77 C          -0.5755  -25.7040  -48.8709 C.2       13 UNK         0.5000 
     78 O          -1.0787  -26.5541  -49.6061 O.2       13 UNK        -0.5000 
     79 N          -0.0363  -24.5622  -49.3205 N.am      14 UNK        -0.5000 
     80 CA          0.2162  -24.2891  -50.7375 C.3       14 UNK         0.1400 
     81 CB          1.3448  -23.2537  -50.8650 C.3       14 UNK        -0.1800 
     82 C          -1.0210  -23.8070  -51.5082 C.2       14 UNK         0.5000 
     83 O          -1.1403  -24.1067  -52.6971 O.2       14 UNK        -0.5000 
     84 N          -1.9015  -23.0554  -50.8374 N.am      15 UNK        -0.5000 
     85 CA         -3.0436  -22.3854  -51.4576 C.3       15 UNK         0.1400 
     86 CB         -3.0016  -20.8980  -51.0817 C.3       15 UNK        -0.1800 
     87 C          -4.3867  -22.9905  -51.0338 C.2       15 UNK         0.5000 
     88 O          -5.4221  -22.4626  -51.4443 O.2       15 UNK        -0.5000 
     89 N          -4.3606  -24.0375  -50.1965 N.am      16 UNK        -0.5000 
     90 CA         -5.5176  -24.6808  -49.5650 C.3       16 UNK         0.1400 
     91 CB         -6.3687  -25.4205  -50.6187 C.3       16 UNK        -0.1800 
     92 C          -6.3360  -23.6905  -48.7074 C.2       16 UNK         0.5000 
     93 O          -7.5659  -23.7187  -48.7360 O.2       16 UNK        -0.5000 
     94 N          -5.6274  -22.7932  -48.0032 N.am      17 UNK        -0.5000 
     95 CA         -6.1539  -21.6624  -47.2280 C.3       17 UNK         0.1400 
     96 CB         -7.0069  -22.1432  -46.0355 C.3       17 UNK        -0.1800 
     97 C          -6.8727  -20.6367  -48.1295 C.2       17 UNK         0.5000 
     98 O          -7.9439  -20.1364  -47.7845 O.2       17 UNK        -0.5000 
     99 N          -6.2514  -20.3734  -49.2875 N.am      18 UNK        -0.5000 
    100 CA        -6.6692  -19.4788  -50.3703 C.3       18 UNK         0.1400 
    101 CB        -6.8566  -18.0314  -49.8717 C.3       18 UNK        -0.1800 
    102 C         -7.8710  -19.9878  -51.1942 C.2       18 UNK         0.5000 
    103 O         -8.3856  -19.2368  -52.0233 O.2       18 UNK        -0.5000 
    104 N         -8.2756  -21.2525  -51.0044 N.am      19 UNK        -0.5000 
    105 CA        -9.3206  -21.9055  -51.7963 C.3       19 UNK         0.1400 
    106 CB        -9.8472  -23.1382  -51.0477 C.3       19 UNK        -0.1800 
    107 C         -8.8293  -22.2932  -53.2037 C.2       19 UNK         0.5000 
    108 O         -9.5941  -22.1802  -54.1624 O.2       19 UNK        -0.5000 
    109 N         -7.5631  -22.7213  -53.3051 N.am      20 UNK        -0.5000 
    110 CA        -6.8805  -23.0111  -54.5685 C.3       20 UNK         0.1400 
    111 CB        -5.9651  -24.2318  -54.3824 C.3       20 UNK        -0.1800 
    112 C         -6.0692  -21.7996  -55.0642 C.2       20 UNK         0.5000 
    113 O         -5.7297  -21.7451  -56.2469 O.2       20 UNK        -0.5000 
    114 N         -5.7621  -20.8600  -54.1540 N.am      21 UNK        -0.5000 
    115 CA        -5.1066  -19.5654  -54.3912 C.3       21 UNK         0.1400 
    116 CB        -6.0572  -18.6247  -55.1585 C.3       21 UNK        -0.1800 
    117 C         -3.7154  -19.6790  -55.0537 C.2       21 UNK         0.5000 
    118 O         -3.3170  -18.7938  -55.8118 O.2       21 UNK        -0.5000 
    119 N         -3.0120  -20.7784  -54.7523 N.am      22 UNK        -0.5000 
    120 CA        -1.7208  -21.1882  -55.3337 C.3       22 UNK         0.1400 
    121 C         -1.8005  -21.6068  -56.8363 C.2       22 UNK         0.5000 
    122 N         -2.9775  -21.8383  -57.4083 N.am      22 UNK        -0.7600 
    123 O         -0.7752  -21.7600  -57.4948 O.2       22 UNK        -0.5000 
    124 C124       -0.5600  -20.1882  -55.0537 C.3       23 UNK        -0.0398 
    125 S125       -0.2424  -19.9251  -53.2744 S.3       23 UNK        -0.2404 
    126 C126       -0.8657  -18.2299  -53.0504 C.3       23 UNK        -0.0205 
    127 H127        6.2829  -14.6971  -44.4515 H         1 UNK         0.0600 
    128 H128        5.6363  -15.9648  -43.4121 H         1 UNK         0.0600 
    129 H129        4.6463  -15.3161  -44.7073 H         1 UNK         0.0600 
    130 H130        6.3063  -17.4333  -47.2251 H         1 UNK         0.3000 
    131 H131        4.0559  -15.7830  -46.8658 H         1 UNK         0.0600 
    132 H132        4.6370  -15.4538  -49.5432 H         1 UNK         0.0800 
    133 H133        5.6258  -16.8340  -49.2232 H         1 UNK         0.0800 
    134 H134        2.4737  -15.5762  -50.3880 H         1 UNK         0.0800 
    135 H135        1.9237  -15.3775  -48.7439 H         1 UNK         0.0800 
    136 H136        1.3955  -17.2412  -51.9110 H         1 UNK         0.1150 
    137 H137       -2.7200  -18.0676  -51.0396 H         1 UNK         0.1150 
    138 H138       -0.1983  -16.3419  -48.0379 H         1 UNK         0.1150 
    139 H139       -2.5456  -16.5289  -47.6168 H         1 UNK         0.0800 
    140 H140       -3.6025  -16.6801  -48.9922 H         1 UNK         0.0800 
    141 H141       -2.3841  -19.3707  -45.7460 H         1 UNK         0.0800 
    142 H142       -1.2437  -18.4673  -46.6977 H         1 UNK         0.0800 
    143 H143       -0.9689  -20.4736  -48.2299 H         1 UNK         0.0600 
    144 H144        0.0307  -20.3689  -45.5094 H         1 UNK         0.3000 
    145 H145        2.5121  -22.8802  -45.9539 H         1 UNK         0.0600 
    146 H146        4.0230  -21.0235  -45.2780 H         1 UNK         0.0600 
    147 H147        3.5880  -20.8987  -46.9762 H         1 UNK         0.0600 
    148 H148        2.8310  -19.8377  -45.8005 H         1 UNK         0.0600 
    149 H149        1.8346  -21.0465  -43.8225 H         1 UNK         0.3000 
    150 H150       -0.6469  -23.1136  -42.3178 H         1 UNK         0.0600 
    151 H151        1.4375  -24.2883  -41.5904 H         1 UNK         0.0600 
    152 H152        0.8741  -23.1609  -40.3674 H         1 UNK         0.0600 
    153 H153        2.2487  -22.7395  -41.3900 H         1 UNK         0.0600 
    154 H154        0.6802  -20.8250  -41.3258 H         1 UNK         0.3000 
    155 H155       -1.7175  -18.5152  -42.3289 H         1 UNK         0.0600 
    156 H156        0.8105  -18.9380  -40.6380 H         1 UNK         0.0600 
    157 H157       -0.8286  -19.3168  -40.1058 H         1 UNK         0.0600 
    158 H158       -0.3810  -17.6593  -40.4667 H         1 UNK         0.0600 
    159 H159       -0.3354  -17.1859  -43.4415 H         1 UNK         0.3000 
    160 H160        3.0852  -17.3994  -44.5157 H         1 UNK         0.0600 
    161 H161        0.3061  -16.8203  -45.6781 H         1 UNK         0.0600 
    162 H162        1.4482  -18.0005  -46.3020 H         1 UNK         0.0600 
    163 H163        1.8288  -16.2888  -46.3689 H         1 UNK         0.0600 
    164 H164        1.4506  -15.1232  -44.2185 H         1 UNK         0.3000 
    165 H165        2.4631  -14.0914  -40.9550 H         1 UNK         0.0600 
    166 H166        3.0415  -12.0828  -42.3175 H         1 UNK         0.0600 
    167 H167        4.2533  -13.3426  -42.4932 H         1 UNK         0.0600 
    168 H168        3.0883  -13.0675  -43.7776 H         1 UNK         0.0600 
    169 H169        0.6846  -13.1877  -43.1038 H         1 UNK         0.3000 
    170 H170       -2.2616  -14.4655  -41.6471 H         1 UNK         0.0600 
    171 H171       -1.9317  -12.4457  -40.2146 H         1 UNK         0.0600 
    172 H172       -1.3269  -11.5440  -41.5993 H         1 UNK         0.0600 
    173 H173       -3.0018  -12.0972  -41.5628 H         1 UNK         0.0600 
    174 H174       -1.7652  -12.6075  -43.7809 H         1 UNK         0.3000 
    175 H175       -1.2544  -15.0186  -46.3367 H         1 UNK         0.0600 
    176 H176       -3.6175  -13.1516  -45.7713 H         1 UNK         0.0600 
    177 H177       -3.1904  -13.8567  -47.3307 H         1 UNK         0.0600 
    178 H178       -3.7401  -14.8887  -46.0204 H         1 UNK         0.0600 
    179 H179       -1.4181  -12.2200  -46.5362 H         1 UNK         0.3000 
    180 H180        0.7118  -11.2836  -47.3486 H         1 UNK         0.0600 
    181 H181        1.1764  -10.7184  -44.3476 H         1 UNK         0.0600 
    182 H182       -0.2383  -10.2193  -45.2700 H         1 UNK         0.0600 
    183 H183        1.3331   -9.5267  -45.6356 H         1 UNK         0.0600 
    184 H184        2.7732  -12.6468  -45.8665 H         1 UNK         0.3000 
    185 H185        5.3356  -11.6498  -48.1266 H         1 UNK         0.0600 
    186 H186        5.6949  -10.4258  -45.9302 H         1 UNK         0.0600 
    187 H187        5.1690  -11.8603  -45.0571 H         1 UNK         0.0600 
    188 H188        6.6425  -11.8977  -46.0218 H         1 UNK         0.0600 
    189 H189        3.6425  -13.6835  -47.2049 H         1 UNK         0.3000 
    190 H190       -1.8432  -21.9665  -45.0831 H         1 UNK         0.3000 
    191 H191       -4.0754  -23.4584  -45.9277 H         1 UNK         0.0600 
    192 H192       -2.0538  -24.2556  -43.7848 H         1 UNK         0.0600 
    193 H193       -3.7206  -24.7851  -43.9179 H         1 UNK         0.0600 
    194 H194       -3.3688  -23.1043  -43.5426 H         1 UNK         0.0600 
    195 H195       -0.6009  -24.3076  -46.0392 H         1 UNK         0.3000 
    196 H196       -0.9860  -26.9237  -47.1605 H         1 UNK         0.0600 
    197 H197        1.4989  -26.8243  -47.4589 H         1 UNK         0.0600 
    198 H198        1.0064  -26.3707  -45.8344 H         1 UNK         0.0600 
    199 H199        1.4897  -25.1290  -46.9846 H         1 UNK         0.0600 
    200 H200        0.3252  -23.8765  -48.6604 H         1 UNK         0.3000 
    201 H201        0.5605  -25.2115  -51.2106 H         1 UNK         0.0600 
    202 H202        2.2424  -23.5775  -50.3380 H         1 UNK         0.0600 
    203 H203        1.0495  -22.2838  -50.4624 H         1 UNK         0.0600 
    204 H204        1.6167  -23.1007  -51.9102 H         1 UNK         0.0600 
    205 H205       -1.7579  -22.8709  -49.8509 H         1 UNK         0.3000 
    206 H206       -2.9866  -22.4634  -52.5433 H         1 UNK         0.0600 
    207 H207       -1.9864  -20.5093  -51.1196 H         1 UNK         0.0600 
    208 H208       -3.6080  -20.3046  -51.7637 H         1 UNK         0.0600 
    209 H209       -3.3741  -20.7191  -50.0752 H         1 UNK         0.0600 
    210 H210       -3.4550  -24.3797  -49.9076 H         1 UNK         0.3000 
    211 H211       -5.1258  -25.4308  -48.8784 H         1 UNK         0.0600 
    212 H212       -6.8314  -24.7338  -51.3261 H         1 UNK         0.0600 
    213 H213       -7.1694  -25.9898  -50.1454 H         1 UNK         0.0600 
    214 H214       -5.7631  -26.1256  -51.1878 H         1 UNK         0.0600 
    215 H215       -4.6153  -22.8192  -48.0924 H         1 UNK         0.3000 
    216 H216       -5.2859  -21.1451  -46.8168 H         1 UNK         0.0600 
    217 H217       -7.2740  -21.3072  -45.3883 H         1 UNK         0.0600 
    218 H218       -6.4635  -22.8641  -45.4251 H         1 UNK         0.0600 
    219 H219       -7.9364  -22.6114  -46.3602 H         1 UNK         0.0600 
    220 H220       -5.4030  -20.8881  -49.4722 H         1 UNK         0.3000 
    221 H221       -5.8302  -19.4655  -51.0658 H         1 UNK         0.0600 
    222 H222       -7.7381  -17.9301  -49.2386 H         1 UNK         0.0600 
    223 H223       -5.9915  -17.6955  -49.3004 H         1 UNK         0.0600 
    224 H224       -6.9779  -17.3424  -50.7083 H         1 UNK         0.0600 
    225 H225       -7.8027  -21.8181  -50.3123 H         1 UNK         0.3000 
    226 H226      -10.1516  -21.2064  -51.9122 H         1 UNK         0.0600 
    227 H227      -10.1929  -22.8762  -50.0475 H         1 UNK         0.0600 
    228 H228      -10.6895  -23.5839  -51.5780 H         1 UNK         0.0600 
    229 H229       -9.0825  -23.9079  -50.9467 H         1 UNK         0.0600 
    230 H230       -6.9866  -22.7571  -52.4688 H         1 UNK         0.3000 
    231 H231       -7.6126  -23.2560  -55.3406 H         1 UNK         0.0600 
    232 H232       -6.5282  -25.0960  -54.0300 H         1 UNK         0.0600 
    233 H233       -5.1658  -24.0396  -53.6679 H         1 UNK         0.0600 
    234 H234       -5.4963  -24.5129  -55.3263 H         1 UNK         0.0600 
    235 H235       -6.0490  -21.0425  -53.2028 H         1 UNK         0.3000 
    236 H236       -4.9351  -19.1214  -53.4102 H         1 UNK         0.0600 
    237 H237       -6.2379  -18.9754  -56.1751 H         1 UNK         0.0600 
    238 H238       -7.0210  -18.5447  -54.6550 H         1 UNK         0.0600 
    239 H239       -5.6448  -17.6174  -55.2268 H         1 UNK         0.0600 
    240 H240       -3.4489  -21.4572  -54.1501 H         1 UNK         0.3000 
    241 H241       -1.4642  -22.1146  -54.8185 H         1 UNK         0.0600 
    242 H242       -3.8490  -21.7262  -56.9006 H         1 UNK         0.3800 
    243 H243       -3.0044  -22.1185  -58.3757 H         1 UNK         0.3800 
    244 H244       -0.7402  -19.2338  -55.5492 H         1 UNK         0.0800 
    245 H245        0.3718  -20.5662  -55.4768 H         1 UNK         0.0800 
    246 H246       -1.9206  -18.1916  -53.3208 H         1 UNK         0.0800 
    247 H247       -0.3476  -17.5601  -53.7384 H         1 UNK         0.0800 
@<TRIPOS>BOND
     1    1    2 1    
     2    1  127 1    
     3    1  128 1    
     4    1  129 1    
     5    2    3 2    
     6    2    4 am   BACKBONE|DICT|INTERRES
     7    4    5 1    
     8    4  130 1    
     9    5    6 1    
    10    5   65 1    
    11    5  131 1    
    12    6    7 1    
    13    6  132 1    
    14    6  133 1    
    15    7    8 1    
    16    8    9 1    
    17    8  134 1    
    18    8  135 1    
    19    9   10 ar   
    20    9   14 ar   
    21   10   11 ar   
    22   10  136 1    
    23   11   12 ar   
    24   11  126 1    
    25   12   13 ar   
    26   12  137 1    
    27   13   14 ar   
    28   13   15 1    
    29   14  138 1    
    30   15   16 1    
    31   15  139 1    
    32   15  140 1    
    33   16   17 1    
    34   17   18 1    
    35   17  141 1    
    36   17  142 1    
    37   18   19 1    
    38   18   67 1    
    39   18  143 1    
    40   19   20 am   BACKBONE|DICT|INTERRES
    41   19  144 1    
    42   20   21 2    
    43   20   22 1    
    44   22   23 1    
    45   22   24 1    
    46   22  145 1    
    47   23  146 1    
    48   23  147 1    
    49   23  148 1    
    50   24   25 am   BACKBONE|DICT|INTERRES
    51   24  149 1    
    52   25   26 2    
    53   25   27 1    
    54   27   28 1    
    55   27   29 1    
    56   27  150 1    
    57   28  151 1    
    58   28  152 1    
    59   28  153 1    
    60   29   30 am   BACKBONE|DICT|INTERRES
    61   29  154 1    
    62   30   31 2    
    63   30   32 1    
    64   32   33 1    
    65   32   34 1    
    66   32  155 1    
    67   33  156 1    
    68   33  157 1    
    69   33  158 1    
    70   34   35 am   BACKBONE|DICT|INTERRES
    71   34  159 1    
    72   35   36 2    
    73   35   37 1    
    74   37   38 1    
    75   37   39 1    
    76   37  160 1    
    77   38  161 1    
    78   38  162 1    
    79   38  163 1    
    80   39   40 am   BACKBONE|DICT|INTERRES
    81   39  164 1    
    82   40   41 2    
    83   40   42 1    
    84   42   43 1    
    85   42   44 1    
    86   42  165 1    
    87   43  166 1    
    88   43  167 1    
    89   43  168 1    
    90   44   45 am   BACKBONE|DICT|INTERRES
    91   44  169 1    
    92   45   46 2    
    93   45   47 1    
    94   47   48 1    
    95   47   49 1    
    96   47  170 1    
    97   48  171 1    
    98   48  172 1    
    99   48  173 1    
   100   49   50 am   BACKBONE|DICT|INTERRES
   101   49  174 1    
   102   50   51 2    
   103   50   52 1    
   104   52   53 1    
   105   52   54 1    
   106   52  175 1    
   107   53  176 1    
   108   53  177 1    
   109   53  178 1    
   110   54   55 am   BACKBONE|DICT|INTERRES
   111   54  179 1    
   112   55   56 2    
   113   55   57 1    
   114   57   58 1    
   115   57   59 1    
   116   57  180 1    
   117   58  181 1    
   118   58  182 1    
   119   58  183 1    
   120   59   60 am   BACKBONE|DICT|INTERRES
   121   59  184 1    
   122   60   61 2    
   123   60   62 1    
   124   62   63 1    
   125   62   64 1    
   126   62  185 1    
   127   63  186 1    
   128   63  187 1    
   129   63  188 1    
   130   64   65 am   BACKBONE|DICT|INTERRES
   131   64  189 1    
   132   65   66 2    
   133   67   68 2    
   134   67   69 am   BACKBONE|DICT|INTERRES
   135   69   70 1    
   136   69  190 1    
   137   70   71 1    
   138   70   72 1    
   139   70  191 1    
   140   71  192 1    
   141   71  193 1    
   142   71  194 1    
   143   72   73 2    
   144   72   74 am   BACKBONE|DICT|INTERRES
   145   74   75 1    
   146   74  195 1    
   147   75   76 1    
   148   75   77 1    
   149   75  196 1    
   150   76  197 1    
   151   76  198 1    
   152   76  199 1    
   153   77   78 2    
   154   77   79 am   BACKBONE|DICT|INTERRES
   155   79   80 1    
   156   79  200 1    
   157   80   81 1    
   158   80   82 1    
   159   80  201 1    
   160   81  202 1    
   161   81  203 1    
   162   81  204 1    
   163   82   83 2    
   164   82   84 am   BACKBONE|DICT|INTERRES
   165   84   85 1    
   166   84  205 1    
   167   85   86 1    
   168   85   87 1    
   169   85  206 1    
   170   86  207 1    
   171   86  208 1    
   172   86  209 1    
   173   87   88 2    
   174   87   89 am   BACKBONE|DICT|INTERRES
   175   89   90 1    
   176   89  210 1    
   177   90   91 1    
   178   90   92 1    
   179   90  211 1    
   180   91  212 1    
   181   91  213 1    
   182   91  214 1    
   183   92   93 2    
   184   92   94 am   BACKBONE|DICT|INTERRES
   185   94   95 1    
   186   94  215 1    
   187   95   96 1    
   188   95   97 1    
   189   95  216 1    
   190   96  217 1    
   191   96  218 1    
   192   96  219 1    
   193   97   98 2    
   194   97   99 am   BACKBONE|DICT|INTERRES
   195   99  100 1    
   196   99  220 1    
   197  100  101 1    
   198  100  102 1    
   199  100  221 1    
   200  101  222 1    
   201  101  223 1    
   202  101  224 1    
   203  102  103 2    
   204  102  104 am   BACKBONE|DICT|INTERRES
   205  104  105 1    
   206  104  225 1    
   207  105  106 1    
   208  105  107 1    
   209  105  226 1    
   210  106  227 1    
   211  106  228 1    
   212  106  229 1    
   213  107  108 2    
   214  107  109 am   BACKBONE|DICT|INTERRES
   215  109  110 1    
   216  109  230 1    
   217  110  111 1    
   218  110  112 1    
   219  110  231 1    
   220  111  232 1    
   221  111  233 1    
   222  111  234 1    
   223  112  113 2    
   224  112  114 am   BACKBONE|DICT|INTERRES
   225  114  115 1    
   226  114  235 1    
   227  115  116 1    
   228  115  117 1    
   229  115  236 1    
   230  116  237 1    
   231  116  238 1    
   232  116  239 1    
   233  117  118 2    
   234  117  119 am   BACKBONE|DICT|INTERRES
   235  119  120 1    
   236  119  240 1    
   237  120  121 1    
   238  120  124 1    
   239  120  241 1    
   240  121  122 am   BACKBONE|DICT|INTERRES
   241  121  123 2    
   242  122  242 1    
   243  122  243 1    
   244  124  125 1    
   245  124  244 1    
   246  124  245 1    
   247  125  126 1    
   248  126  246 1    
   249  126  247 1    
@<TRIPOS>SUBSTRUCTURE
     1 UNK         1 GROUP             0       ****    0 ROOT    
