@<TRIPOS>MOLECULE
3R540
247   249    1
SMALL
USER_CHARGES


@<TRIPOS>ATOM
      1 CA          4.8715  -10.1869  -47.1700 C.3       0 UNK        -0.1800 
      2 C           3.8515  -11.2737  -46.8638 C.2       0 UNK         0.5000 
      3 O           2.6718  -10.9756  -46.6772 O.2       0 UNK        -0.5000 
      4 N           4.2923  -12.5384  -46.8279 N.am      1 UNK        -0.5000 
      5 CA          3.4568  -13.7104  -46.5317 C.3       1 UNK         0.1400 
      6 C6          4.2979  -14.9393  -46.1104 C.3       23 UNK        -0.0398 
      7 S7          5.5043  -15.5180  -47.3566 S.3       23 UNK        -0.2404 
      8 C8          5.3170  -17.3374  -47.2541 C.3       23 UNK        -0.0205 
      9 C9          4.6613  -18.0019  -48.4672 C.ar      23 UNK        -0.0193 
     10 C10         3.8144  -17.3113  -49.3446 C.ar      23 UNK        -0.1150 
     11 C11         3.2820  -17.9463  -50.4706 C.ar      23 UNK        -0.0193 
     12 C12         3.5797  -19.2884  -50.7111 C.ar      23 UNK        -0.1150 
     13 C13         4.4002  -20.0003  -49.8337 C.ar      23 UNK        -0.0193 
     14 C14         4.9320  -19.3527  -48.7143 C.ar      23 UNK        -0.1150 
     15 C15         4.7402  -21.4570  -50.1193 C.3       23 UNK        -0.0205 
     16 S16         3.2706  -22.5312  -50.0899 S.3       23 UNK        -0.2404 
     17 C17         2.7820  -22.4053  -48.3397 C.3       23 UNK        -0.0398 
     18 CA          1.9064  -23.5990  -47.8866 C.3       11 UNK         0.1400 
     19 N           1.7084  -23.6189  -46.4491 N.am      11 UNK        -0.5000 
     20 C           2.4633  -24.2255  -45.5358 C.2       10 UNK         0.5000 
     21 O           3.5188  -24.8042  -45.7969 O.2       10 UNK        -0.5000 
     22 CA          1.9137  -24.1854  -44.0906 C.3       10 UNK         0.1400 
     23 CB          2.8654  -24.8441  -43.0765 C.3       10 UNK        -0.1800 
     24 N           1.5849  -22.8371  -43.6178 N.am      10 UNK        -0.5000 
     25 C           0.5963  -22.0389  -44.0460 C.2       9 UNK         0.5000 
     26 O          -0.1833  -22.3401  -44.9563 O.2       9 UNK        -0.5000 
     27 CA          0.4497  -20.6692  -43.3574 C.3       9 UNK         0.1400 
     28 CB          1.4150  -20.4315  -42.1743 C.3       9 UNK        -0.1800 
     29 N           0.5433  -19.5750  -44.3200 N.am      9 UNK        -0.5000 
     30 C           1.5740  -19.2589  -45.1180 C.2       8 UNK         0.5000 
     31 O           2.6283  -19.8921  -45.1783 O.2       8 UNK        -0.5000 
     32 CA          1.3978  -17.9952  -45.9801 C.3       8 UNK         0.1400 
     33 CB          0.7269  -18.3433  -47.3163 C.3       8 UNK        -0.1800 
     34 N           0.6328  -16.9465  -45.2965 N.am      8 UNK        -0.5000 
     35 C           1.0530  -16.2772  -44.2110 C.2       7 UNK         0.5000 
     36 O           2.1565  -16.4420  -43.6901 O.2       7 UNK        -0.5000 
     37 CA          0.0708  -15.2737  -43.5797 C.3       7 UNK         0.1400 
     38 CB          0.1328  -13.9043  -44.2750 C.3       7 UNK        -0.1800 
     39 N          -1.2994  -15.7786  -43.6214 N.am      7 UNK        -0.5000 
     40 C          -1.8363  -16.5872  -42.6962 C.2       6 UNK         0.5000 
     41 O          -1.2533  -16.9352  -41.6691 O.2       6 UNK        -0.5000 
     42 CA         -3.2630  -17.1072  -42.9659 C.3       6 UNK         0.1400 
     43 CB         -4.3043  -16.1828  -42.3170 C.3       6 UNK        -0.1800 
     44 N          -3.5636  -17.2353  -44.3921 N.am      6 UNK        -0.5000 
     45 C          -2.9693  -18.1069  -45.2180 C.2       5 UNK         0.5000 
     46 O          -2.1659  -18.9595  -44.8468 O.2       5 UNK        -0.5000 
     47 CA         -3.2799  -17.9685  -46.7179 C.3       5 UNK         0.1400 
     48 CB         -4.3777  -18.9515  -47.1267 C.3       5 UNK        -0.1800 
     49 N          -3.6504  -16.6088  -47.1202 N.am      5 UNK        -0.5000 
     50 C          -2.8153  -15.5646  -47.0519 C.2       4 UNK         0.5000 
     51 O          -1.6574  -15.6521  -46.6360 O.2       4 UNK        -0.5000 
     52 CA         -3.3814  -14.1934  -47.4345 C.3       4 UNK         0.1400 
     53 CB         -4.2785  -13.6595  -46.2999 C.3       4 UNK        -0.1800 
     54 N          -2.2653  -13.2830  -47.6781 N.am      4 UNK        -0.5000 
     55 C          -2.3505  -12.0723  -48.2409 C.2       3 UNK         0.5000 
     56 O          -3.4057  -11.5768  -48.6387 O.2       3 UNK        -0.5000 
     57 CA         -1.0414  -11.2700  -48.3891 C.3       3 UNK         0.1400 
     58 CB         -0.7743  -10.4494  -47.1179 C.3       3 UNK        -0.1800 
     59 N           0.1435  -12.0779  -48.6887 N.am      3 UNK        -0.5000 
     60 C           0.3079  -12.8418  -49.7791 C.2       2 UNK         0.5000 
     61 O          -0.5513  -12.9656  -50.6518 O.2       2 UNK        -0.5000 
     62 CA          1.6584  -13.5715  -49.9551 C.3       2 UNK         0.1400 
     63 CB          2.3812  -13.0880  -51.2228 C.3       2 UNK        -0.1800 
     64 N           2.5738  -13.4353  -48.8220 N.am      2 UNK        -0.5000 
     65 C           2.4311  -14.0457  -47.6386 C.2       1 UNK         0.5000 
     66 O           1.5119  -14.8218  -47.3944 O.2       1 UNK        -0.5000 
     67 C           0.4956  -23.6300  -48.4943 C.2       11 UNK         0.5000 
     68 O           0.0529  -24.6887  -48.9389 O.2       11 UNK        -0.5000 
     69 N          -0.2271  -22.5030  -48.4160 N.am      12 UNK        -0.5000 
     70 CA         -1.6018  -22.3687  -48.9045 C.3       12 UNK         0.1400 
     71 CB         -2.0002  -20.8878  -48.8852 C.3       12 UNK        -0.1800 
     72 C          -2.6170  -23.2082  -48.1071 C.2       12 UNK         0.5000 
     73 O          -3.5507  -23.7527  -48.7017 O.2       12 UNK        -0.5000 
     74 N          -2.4126  -23.3150  -46.7852 N.am      13 UNK        -0.5000 
     75 CA         -3.2280  -24.1549  -45.9069 C.3       13 UNK         0.1400 
     76 CB         -3.1269  -23.6485  -44.4605 C.3       13 UNK        -0.1800 
     77 C          -2.8238  -25.6378  -45.9920 C.2       13 UNK         0.5000 
     78 O          -3.6894  -26.5028  -45.8667 O.2       13 UNK        -0.5000 
     79 N          -1.5322  -25.9098  -46.2363 N.am      14 UNK        -0.5000 
     80 CA         -0.9869  -27.2609  -46.4107 C.3       14 UNK         0.1400 
     81 CB          0.5460  -27.2221  -46.3293 C.3       14 UNK        -0.1800 
     82 C          -1.4492  -27.9125  -47.7260 C.2       14 UNK         0.5000 
     83 O          -1.7633  -29.1028  -47.7411 O.2       14 UNK        -0.5000 
     84 N          -1.5322  -27.1051  -48.7923 N.am      15 UNK        -0.5000 
     85 CA         -2.1148  -27.4735  -50.0843 C.3       15 UNK         0.1400 
     86 CB         -1.6912  -26.4260  -51.1268 C.3       15 UNK        -0.1800 
     87 C          -3.6531  -27.5902  -50.0483 C.2       15 UNK         0.5000 
     88 O          -4.2366  -28.1137  -50.9979 O.2       15 UNK        -0.5000 
     89 N          -4.2754  -27.0770  -48.9747 N.am      16 UNK        -0.5000 
     90 CA         -5.7180  -26.9650  -48.7345 C.3       16 UNK         0.1400 
     91 CB         -6.3711  -28.3578  -48.6187 C.3       16 UNK        -0.1800 
     92 C          -6.4265  -26.0449  -49.7510 C.2       16 UNK         0.5000 
     93 O          -7.6167  -26.2189  -50.0186 O.2       16 UNK        -0.5000 
     94 N          -5.6790  -25.0759  -50.2953 N.am      17 UNK        -0.5000 
     95 CA         -6.1716  -24.0714  -51.2324 C.3       17 UNK         0.1400 
     96 CB         -4.9965  -23.5598  -52.0783 C.3       17 UNK        -0.1800 
     97 C          -6.8701  -22.9222  -50.4868 C.2       17 UNK         0.5000 
     98 O          -7.9292  -22.4722  -50.9264 O.2       17 UNK        -0.5000 
     99 N          -6.2795  -22.5145  -49.3514 N.am      18 UNK        -0.5000 
    100 CA        -6.7611  -21.4937  -48.4149 C.3       18 UNK         0.1400 
    101 CB        -8.0150  -22.0091  -47.6748 C.3       18 UNK        -0.1800 
    102 C         -6.9579  -20.1008  -49.0615 C.2       18 UNK         0.5000 
    103 O         -6.3243  -19.8025  -50.0770 O.2       18 UNK        -0.5000 
    104 N         -7.7904  -19.2578  -48.4291 N.am      19 UNK        -0.5000 
    105 CA        -8.1660  -17.8964  -48.8292 C.3       19 UNK         0.1400 
    106 CB        -9.1113  -17.9471  -50.0504 C.3       19 UNK        -0.1800 
    107 C         -6.9422  -16.9769  -49.0300 C.2       19 UNK         0.5000 
    108 O         -6.3495  -16.5264  -48.0474 O.2       19 UNK        -0.5000 
    109 N         -6.5737  -16.7347  -50.2904 N.am      20 UNK        -0.5000 
    110 CA        -5.3925  -15.9889  -50.7017 C.3       20 UNK         0.1400 
    111 CB        -5.7349  -14.4952  -50.8543 C.3       20 UNK        -0.1800 
    112 C         -4.8294  -16.6305  -51.9780 C.2       20 UNK         0.5000 
    113 O         -4.6448  -15.9491  -52.9879 O.2       20 UNK        -0.5000 
    114 N         -4.5719  -17.9462  -51.9072 N.am      21 UNK        -0.5000 
    115 CA        -4.0449  -18.7939  -52.9873 C.3       21 UNK         0.1400 
    116 CB        -3.8636  -20.2203  -52.4498 C.3       21 UNK        -0.1800 
    117 C         -2.7308  -18.3046  -53.6336 C.2       21 UNK         0.5000 
    118 O         -2.4571  -18.6503  -54.7836 O.2       21 UNK        -0.5000 
    119 N         -1.9621  -17.4936  -52.8973 N.am      22 UNK        -0.5000 
    120 CA        -0.7988  -16.7411  -53.3887 C.3       22 UNK         0.1400 
    121 C         -1.1256  -15.6678  -54.4724 C.2       22 UNK         0.5000 
    122 N         -2.3676  -15.2234  -54.6293 N.am      22 UNK        -0.7600 
    123 O         -0.2283  -15.2316  -55.1880 O.2       22 UNK        -0.5000 
    124 C124       -0.0304  -16.0815  -52.2188 C.3       23 UNK        -0.0398 
    125 S125        0.6542  -17.2864  -51.0320 S.3       23 UNK        -0.2404 
    126 C126        2.4195  -17.1722  -51.4511 C.3       23 UNK        -0.0205 
    127 H127        4.9200   -9.4760  -46.3452 H         1 UNK         0.0600 
    128 H128        5.8691  -10.5989  -47.3236 H         1 UNK         0.0600 
    129 H129        4.5837   -9.6459  -48.0714 H         1 UNK         0.0600 
    130 H130        5.2679  -12.7345  -47.0058 H         1 UNK         0.3000 
    131 H131        2.8568  -13.4438  -45.6607 H         1 UNK         0.0600 
    132 H132        3.6340  -15.7543  -45.8300 H         1 UNK         0.0800 
    133 H133        4.8529  -14.7005  -45.2023 H         1 UNK         0.0800 
    134 H134        4.7757  -17.6252  -46.3529 H         1 UNK         0.0800 
    135 H135        6.3209  -17.7477  -47.1347 H         1 UNK         0.0800 
    136 H136        3.5772  -16.2728  -49.1713 H         1 UNK         0.1150 
    137 H137        3.1743  -19.7809  -51.5840 H         1 UNK         0.1150 
    138 H138        5.5776  -19.8983  -48.0402 H         1 UNK         0.1150 
    139 H139        5.2037  -21.5234  -51.1044 H         1 UNK         0.0800 
    140 H140        5.4775  -21.8349  -49.4093 H         1 UNK         0.0800 
    141 H141        2.2907  -21.4468  -48.1666 H         1 UNK         0.0800 
    142 H142        3.6921  -22.3829  -47.7383 H         1 UNK         0.0800 
    143 H143        2.4048  -24.5257  -48.1809 H         1 UNK         0.0600 
    144 H144        0.8821  -23.1347  -46.1026 H         1 UNK         0.3000 
    145 H145        0.9878  -24.7639  -44.0935 H         1 UNK         0.0600 
    146 H146        2.4254  -24.8676  -42.0793 H         1 UNK         0.0600 
    147 H147        3.0835  -25.8760  -43.3552 H         1 UNK         0.0600 
    148 H148        3.8152  -24.3118  -43.0127 H         1 UNK         0.0600 
    149 H149        2.1943  -22.4697  -42.9019 H         1 UNK         0.3000 
    150 H150       -0.5673  -20.6396  -42.9639 H         1 UNK         0.0600 
    151 H151        1.2866  -21.1887  -41.3998 H         1 UNK         0.0600 
    152 H152        1.2210  -19.4648  -41.7086 H         1 UNK         0.0600 
    153 H153        2.4606  -20.4400  -42.4843 H         1 UNK         0.0600 
    154 H154       -0.3219  -19.0562  -44.4434 H         1 UNK         0.3000 
    155 H155        2.3875  -17.5982  -46.2017 H         1 UNK         0.0600 
    156 H156       -0.2124  -18.8722  -47.1669 H         1 UNK         0.0600 
    157 H157        1.3724  -18.9843  -47.9181 H         1 UNK         0.0600 
    158 H158        0.5241  -17.4471  -47.9034 H         1 UNK         0.0600 
    159 H159       -0.2415  -16.6643  -45.7276 H         1 UNK         0.3000 
    160 H160        0.3654  -15.1264  -42.5383 H         1 UNK         0.0600 
    161 H161       -0.5972  -13.2138  -43.8523 H         1 UNK         0.0600 
    162 H162       -0.0596  -13.9777  -45.3449 H         1 UNK         0.0600 
    163 H163        1.1149  -13.4509  -44.1453 H         1 UNK         0.0600 
    164 H164       -1.8180  -15.5883  -44.4681 H         1 UNK         0.3000 
    165 H165       -3.3478  -18.0960  -42.5098 H         1 UNK         0.0600 
    166 H166       -5.3131  -16.5774  -42.4394 H         1 UNK         0.0600 
    167 H167       -4.1236  -16.0824  -41.2459 H         1 UNK         0.0600 
    168 H168       -4.2795  -15.1817  -42.7496 H         1 UNK         0.0600 
    169 H169       -4.2232  -16.5783  -44.7815 H         1 UNK         0.3000 
    170 H170       -2.3750  -18.2304  -47.2654 H         1 UNK         0.0600 
    171 H171       -4.1251  -19.9704  -46.8302 H         1 UNK         0.0600 
    172 H172       -5.3346  -18.7022  -46.6670 H         1 UNK         0.0600 
    173 H173       -4.5022  -18.9450  -48.2083 H         1 UNK         0.0600 
    174 H174       -4.6110  -16.4757  -47.4328 H         1 UNK         0.3000 
    175 H175       -3.9633  -14.2981  -48.3515 H         1 UNK         0.0600 
    176 H176       -3.7178  -13.5288  -45.3733 H         1 UNK         0.0600 
    177 H177       -4.7243  -12.6991  -46.5576 H         1 UNK         0.0600 
    178 H178       -5.1023  -14.3442  -46.0940 H         1 UNK         0.0600 
    179 H179       -1.3608  -13.6551  -47.4122 H         1 UNK         0.3000 
    180 H180       -1.1795  -10.5744  -49.2192 H         1 UNK         0.0600 
    181 H181       -0.5736  -11.0925  -46.2598 H         1 UNK         0.0600 
    182 H182       -1.6315   -9.8231  -46.8672 H         1 UNK         0.0600 
    183 H183        0.0830   -9.7885  -47.2479 H         1 UNK         0.0600 
    184 H184        0.9102  -12.0105  -48.0329 H         1 UNK         0.3000 
    185 H185        1.4278  -14.6301  -50.0715 H         1 UNK         0.0600 
    186 H186        1.7556  -13.2133  -52.1074 H         1 UNK         0.0600 
    187 H187        2.6435  -12.0316  -51.1553 H         1 UNK         0.0600 
    188 H188        3.2987  -13.6512  -51.3941 H         1 UNK         0.0600 
    189 H189        3.3498  -12.8003  -48.9380 H         1 UNK         0.3000 
    190 H190        0.1856  -21.6779  -48.0086 H         1 UNK         0.3000 
    191 H191       -1.6303  -22.7165  -49.9395 H         1 UNK         0.0600 
    192 H192       -1.9340  -20.4786  -47.8777 H         1 UNK         0.0600 
    193 H193       -3.0256  -20.7528  -49.2323 H         1 UNK         0.0600 
    194 H194       -1.3551  -20.2936  -49.5333 H         1 UNK         0.0600 
    195 H195       -1.6433  -22.8179  -46.3494 H         1 UNK         0.3000 
    196 H196       -4.2728  -24.0728  -46.2155 H         1 UNK         0.0600 
    197 H197       -3.8413  -24.1664  -43.8195 H         1 UNK         0.0600 
    198 H198       -3.3443  -22.5820  -44.3966 H         1 UNK         0.0600 
    199 H199       -2.1355  -23.8162  -44.0395 H         1 UNK         0.0600 
    200 H200       -0.8958  -25.1391  -46.3634 H         1 UNK         0.3000 
    201 H201       -1.3511  -27.8824  -45.5897 H         1 UNK         0.0600 
    202 H202        0.8793  -26.8716  -45.3534 H         1 UNK         0.0600 
    203 H203        0.9775  -26.5731  -47.0915 H         1 UNK         0.0600 
    204 H204        0.9684  -28.2176  -46.4725 H         1 UNK         0.0600 
    205 H205       -1.1645  -26.1602  -48.7210 H         1 UNK         0.3000 
    206 H206       -1.7145  -28.4441  -50.3841 H         1 UNK         0.0600 
    207 H207       -0.6056  -26.3676  -51.2084 H         1 UNK         0.0600 
    208 H208       -2.0780  -26.6752  -52.1157 H         1 UNK         0.0600 
    209 H209       -2.0608  -25.4321  -50.8697 H         1 UNK         0.0600 
    210 H210       -3.6912  -26.6866  -48.2488 H         1 UNK         0.3000 
    211 H211       -5.8231  -26.4737  -47.7663 H         1 UNK         0.0600 
    212 H212       -6.3779  -28.8846  -49.5731 H         1 UNK         0.0600 
    213 H213       -7.4057  -28.2777  -48.2834 H         1 UNK         0.0600 
    214 H214       -5.8444  -28.9798  -47.8948 H         1 UNK         0.0600 
    215 H215       -4.7299  -24.9578  -49.9612 H         1 UNK         0.3000 
    216 H216       -6.8968  -24.5343  -51.9052 H         1 UNK         0.0600 
    217 H217       -5.3422  -22.8493  -52.8296 H         1 UNK         0.0600 
    218 H218       -4.5077  -24.3780  -52.6079 H         1 UNK         0.0600 
    219 H219       -4.2431  -23.0616  -51.4667 H         1 UNK         0.0600 
    220 H220       -5.3953  -22.9472  -49.1081 H         1 UNK         0.3000 
    221 H221       -5.9681  -21.3770  -47.6760 H         1 UNK         0.0600 
    222 H222       -8.8865  -22.0398  -48.3299 H         1 UNK         0.0600 
    223 H223       -7.8553  -23.0166  -47.2899 H         1 UNK         0.0600 
    224 H224       -8.2634  -21.3816  -46.8185 H         1 UNK         0.0600 
    225 H225       -8.2267  -19.5847  -47.5791 H         1 UNK         0.3000 
    226 H226       -8.7288  -17.4708  -47.9972 H         1 UNK         0.0600 
    227 H227      -10.0253  -18.4896  -49.8085 H         1 UNK         0.0600 
    228 H228       -9.4077  -16.9446  -50.3622 H         1 UNK         0.0600 
    229 H229       -8.6559  -18.4439  -50.9079 H         1 UNK         0.0600 
    230 H230       -7.0882  -17.1869  -51.0340 H         1 UNK         0.3000 
    231 H231       -4.6136  -16.0880  -49.9435 H         1 UNK         0.0600 
    232 H232       -6.0978  -14.0758  -49.9158 H         1 UNK         0.0600 
    233 H233       -6.5029  -14.3352  -51.6118 H         1 UNK         0.0600 
    234 H234       -4.8554  -13.9198  -51.1465 H         1 UNK         0.0600 
    235 H235       -4.8418  -18.4381  -51.0632 H         1 UNK         0.3000 
    236 H236       -4.8006  -18.8175  -53.7747 H         1 UNK         0.0600 
    237 H237       -3.5174  -20.8956  -53.2334 H         1 UNK         0.0600 
    238 H238       -3.1341  -20.2544  -51.6407 H         1 UNK         0.0600 
    239 H239       -4.8046  -20.6178  -52.0724 H         1 UNK         0.0600 
    240 H240       -2.2544  -17.2898  -51.9545 H         1 UNK         0.3000 
    241 H241       -0.1301  -17.4593  -53.8669 H         1 UNK         0.0600 
    242 H242       -2.5572  -14.5326  -55.3374 H         1 UNK         0.3800 
    243 H243       -3.1285  -15.5565  -54.0425 H         1 UNK         0.3800 
    244 H244        0.7793  -15.4550  -52.5961 H         1 UNK         0.0800 
    245 H245       -0.6938  -15.4109  -51.6714 H         1 UNK         0.0800 
    246 H246        2.5728  -17.5480  -52.4639 H         1 UNK         0.0800 
    247 H247        2.7343  -16.1285  -51.4623 H         1 UNK         0.0800 
@<TRIPOS>BOND
     1    1    2 1    
     2    1  127 1    
     3    1  128 1    
     4    1  129 1    
     5    2    3 2    
     6    2    4 am   BACKBONE|DICT|INTERRES
     7    4    5 1    
     8    4  130 1    
     9    5    6 1    
    10    5   65 1    
    11    5  131 1    
    12    6    7 1    
    13    6  132 1    
    14    6  133 1    
    15    7    8 1    
    16    8    9 1    
    17    8  134 1    
    18    8  135 1    
    19    9   10 ar   
    20    9   14 ar   
    21   10   11 ar   
    22   10  136 1    
    23   11   12 ar   
    24   11  126 1    
    25   12   13 ar   
    26   12  137 1    
    27   13   14 ar   
    28   13   15 1    
    29   14  138 1    
    30   15   16 1    
    31   15  139 1    
    32   15  140 1    
    33   16   17 1    
    34   17   18 1    
    35   17  141 1    
    36   17  142 1    
    37   18   19 1    
    38   18   67 1    
    39   18  143 1    
    40   19   20 am   BACKBONE|DICT|INTERRES
    41   19  144 1    
    42   20   21 2    
    43   20   22 1    
    44   22   23 1    
    45   22   24 1    
    46   22  145 1    
    47   23  146 1    
    48   23  147 1    
    49   23  148 1    
    50   24   25 am   BACKBONE|DICT|INTERRES
    51   24  149 1    
    52   25   26 2    
    53   25   27 1    
    54   27   28 1    
    55   27   29 1    
    56   27  150 1    
    57   28  151 1    
    58   28  152 1    
    59   28  153 1    
    60   29   30 am   BACKBONE|DICT|INTERRES
    61   29  154 1    
    62   30   31 2    
    63   30   32 1    
    64   32   33 1    
    65   32   34 1    
    66   32  155 1    
    67   33  156 1    
    68   33  157 1    
    69   33  158 1    
    70   34   35 am   BACKBONE|DICT|INTERRES
    71   34  159 1    
    72   35   36 2    
    73   35   37 1    
    74   37   38 1    
    75   37   39 1    
    76   37  160 1    
    77   38  161 1    
    78   38  162 1    
    79   38  163 1    
    80   39   40 am   BACKBONE|DICT|INTERRES
    81   39  164 1    
    82   40   41 2    
    83   40   42 1    
    84   42   43 1    
    85   42   44 1    
    86   42  165 1    
    87   43  166 1    
    88   43  167 1    
    89   43  168 1    
    90   44   45 am   BACKBONE|DICT|INTERRES
    91   44  169 1    
    92   45   46 2    
    93   45   47 1    
    94   47   48 1    
    95   47   49 1    
    96   47  170 1    
    97   48  171 1    
    98   48  172 1    
    99   48  173 1    
   100   49   50 am   BACKBONE|DICT|INTERRES
   101   49  174 1    
   102   50   51 2    
   103   50   52 1    
   104   52   53 1    
   105   52   54 1    
   106   52  175 1    
   107   53  176 1    
   108   53  177 1    
   109   53  178 1    
   110   54   55 am   BACKBONE|DICT|INTERRES
   111   54  179 1    
   112   55   56 2    
   113   55   57 1    
   114   57   58 1    
   115   57   59 1    
   116   57  180 1    
   117   58  181 1    
   118   58  182 1    
   119   58  183 1    
   120   59   60 am   BACKBONE|DICT|INTERRES
   121   59  184 1    
   122   60   61 2    
   123   60   62 1    
   124   62   63 1    
   125   62   64 1    
   126   62  185 1    
   127   63  186 1    
   128   63  187 1    
   129   63  188 1    
   130   64   65 am   BACKBONE|DICT|INTERRES
   131   64  189 1    
   132   65   66 2    
   133   67   68 2    
   134   67   69 am   BACKBONE|DICT|INTERRES
   135   69   70 1    
   136   69  190 1    
   137   70   71 1    
   138   70   72 1    
   139   70  191 1    
   140   71  192 1    
   141   71  193 1    
   142   71  194 1    
   143   72   73 2    
   144   72   74 am   BACKBONE|DICT|INTERRES
   145   74   75 1    
   146   74  195 1    
   147   75   76 1    
   148   75   77 1    
   149   75  196 1    
   150   76  197 1    
   151   76  198 1    
   152   76  199 1    
   153   77   78 2    
   154   77   79 am   BACKBONE|DICT|INTERRES
   155   79   80 1    
   156   79  200 1    
   157   80   81 1    
   158   80   82 1    
   159   80  201 1    
   160   81  202 1    
   161   81  203 1    
   162   81  204 1    
   163   82   83 2    
   164   82   84 am   BACKBONE|DICT|INTERRES
   165   84   85 1    
   166   84  205 1    
   167   85   86 1    
   168   85   87 1    
   169   85  206 1    
   170   86  207 1    
   171   86  208 1    
   172   86  209 1    
   173   87   88 2    
   174   87   89 am   BACKBONE|DICT|INTERRES
   175   89   90 1    
   176   89  210 1    
   177   90   91 1    
   178   90   92 1    
   179   90  211 1    
   180   91  212 1    
   181   91  213 1    
   182   91  214 1    
   183   92   93 2    
   184   92   94 am   BACKBONE|DICT|INTERRES
   185   94   95 1    
   186   94  215 1    
   187   95   96 1    
   188   95   97 1    
   189   95  216 1    
   190   96  217 1    
   191   96  218 1    
   192   96  219 1    
   193   97   98 2    
   194   97   99 am   BACKBONE|DICT|INTERRES
   195   99  100 1    
   196   99  220 1    
   197  100  101 1    
   198  100  102 1    
   199  100  221 1    
   200  101  222 1    
   201  101  223 1    
   202  101  224 1    
   203  102  103 2    
   204  102  104 am   BACKBONE|DICT|INTERRES
   205  104  105 1    
   206  104  225 1    
   207  105  106 1    
   208  105  107 1    
   209  105  226 1    
   210  106  227 1    
   211  106  228 1    
   212  106  229 1    
   213  107  108 2    
   214  107  109 am   BACKBONE|DICT|INTERRES
   215  109  110 1    
   216  109  230 1    
   217  110  111 1    
   218  110  112 1    
   219  110  231 1    
   220  111  232 1    
   221  111  233 1    
   222  111  234 1    
   223  112  113 2    
   224  112  114 am   BACKBONE|DICT|INTERRES
   225  114  115 1    
   226  114  235 1    
   227  115  116 1    
   228  115  117 1    
   229  115  236 1    
   230  116  237 1    
   231  116  238 1    
   232  116  239 1    
   233  117  118 2    
   234  117  119 am   BACKBONE|DICT|INTERRES
   235  119  120 1    
   236  119  240 1    
   237  120  121 1    
   238  120  124 1    
   239  120  241 1    
   240  121  122 am   BACKBONE|DICT|INTERRES
   241  121  123 2    
   242  122  242 1    
   243  122  243 1    
   244  124  125 1    
   245  124  244 1    
   246  124  245 1    
   247  125  126 1    
   248  126  246 1    
   249  126  247 1    
@<TRIPOS>SUBSTRUCTURE
     1 UNK         1 GROUP             0       ****    0 ROOT    
