@<TRIPOS>MOLECULE
3R540
247   249    1
SMALL
USER_CHARGES


@<TRIPOS>ATOM
      1 CA         -8.3756  -14.5441  -50.4620 C.3       0 UNK        -0.1800 
      2 C          -7.4572  -13.4111  -50.0251 C.2       0 UNK         0.5000 
      3 O          -7.9016  -12.4909  -49.3376 O.2       0 UNK        -0.5000 
      4 N          -6.1833  -13.4702  -50.4287 N.am      1 UNK        -0.5000 
      5 CA         -5.1288  -12.5298  -50.0396 C.3       1 UNK         0.1400 
      6 C6         -3.9030  -12.6166  -50.9882 C.3       23 UNK        -0.0398 
      7 S7         -3.2169  -14.2989  -51.2064 S.3       23 UNK        -0.2404 
      8 C8         -1.7328  -14.2101  -50.1597 C.3       23 UNK        -0.0205 
      9 C9         -1.0157  -15.5482  -50.1183 C.ar      23 UNK        -0.0193 
     10 C10        -0.0611  -15.8654  -51.0874 C.ar      23 UNK        -0.1150 
     11 C11         0.5884  -17.1080  -51.0763 C.ar      23 UNK        -0.0193 
     12 C12         0.2795  -18.0201  -50.0611 C.ar      23 UNK        -0.1150 
     13 C13        -0.6621  -17.7077  -49.0771 C.ar      23 UNK        -0.0193 
     14 C14        -1.3103  -16.4716  -49.1141 C.ar      23 UNK        -0.1150 
     15 C15        -0.9558  -18.6851  -47.9528 C.3       23 UNK        -0.0205 
     16 S16        -2.5982  -19.4437  -48.1028 S.3       23 UNK        -0.2404 
     17 C17        -2.8239  -20.1196  -46.4218 C.3       23 UNK        -0.0398 
     18 CA         -2.4876  -21.6310  -46.3340 C.3       11 UNK         0.1400 
     19 N          -1.0854  -21.8895  -45.9889 N.am      11 UNK        -0.5000 
     20 C          -0.5080  -23.1000  -46.0090 C.2       10 UNK         0.5000 
     21 O          -1.0824  -24.1217  -46.3792 O.2       10 UNK        -0.5000 
     22 CA          0.9249  -23.2054  -45.4594 C.3       10 UNK         0.1400 
     23 CB          1.9554  -22.7082  -46.4851 C.3       10 UNK        -0.1800 
     24 N           1.0785  -22.4907  -44.1912 N.am      10 UNK        -0.5000 
     25 C           0.4601  -22.8391  -43.0529 C.2       9 UNK         0.5000 
     26 O          -0.2569  -23.8339  -42.9436 O.2       9 UNK        -0.5000 
     27 CA          0.6306  -21.8975  -41.8469 C.3       9 UNK         0.1400 
     28 CB          1.9062  -22.2339  -41.0603 C.3       9 UNK        -0.1800 
     29 N           0.6465  -20.4884  -42.2411 N.am      9 UNK        -0.5000 
     30 C          -0.4278  -19.8228  -42.6892 C.2       8 UNK         0.5000 
     31 O          -1.5500  -20.3196  -42.7801 O.2       8 UNK        -0.5000 
     32 CA         -0.2002  -18.3794  -43.1772 C.3       8 UNK         0.1400 
     33 CB         -0.2400  -17.3925  -42.0017 C.3       8 UNK        -0.1800 
     34 N           1.0524  -18.2029  -43.9157 N.am      8 UNK        -0.5000 
     35 C           1.3930  -18.8896  -45.0149 C.2       7 UNK         0.5000 
     36 O           0.6616  -19.7241  -45.5410 O.2       7 UNK        -0.5000 
     37 CA          2.8043  -18.6622  -45.5821 C.3       7 UNK         0.1400 
     38 CB          2.8249  -17.4546  -46.5305 C.3       7 UNK        -0.1800 
     39 N           3.8061  -18.4943  -44.5277 N.am      7 UNK        -0.5000 
     40 C           4.1224  -19.4241  -43.6155 C.2       6 UNK         0.5000 
     41 O           3.6368  -20.5558  -43.6147 O.2       6 UNK        -0.5000 
     42 CA          5.0858  -19.0214  -42.4785 C.3       6 UNK         0.1400 
     43 CB          6.5549  -19.2678  -42.8713 C.3       6 UNK        -0.1800 
     44 N           4.8682  -17.6597  -41.9629 N.am      6 UNK        -0.5000 
     45 C           5.0961  -16.4909  -42.5760 C.2       5 UNK         0.5000 
     46 O           5.6330  -16.3840  -43.6813 O.2       5 UNK        -0.5000 
     47 CA          4.5803  -15.2281  -41.8571 C.3       5 UNK         0.1400 
     48 CB          5.7215  -14.5291  -41.1034 C.3       5 UNK        -0.1800 
     49 N           3.9765  -14.2844  -42.8018 N.am      5 UNK        -0.5000 
     50 C           2.9345  -14.5662  -43.5960 C.2       4 UNK         0.5000 
     51 O           2.2895  -15.6164  -43.5199 O.2       4 UNK        -0.5000 
     52 CA          2.6024  -13.5204  -44.6797 C.3       4 UNK         0.1400 
     53 CB          3.7646  -13.3837  -45.6793 C.3       4 UNK        -0.1800 
     54 N           1.4032  -13.8897  -45.4300 N.am      4 UNK        -0.5000 
     55 C           0.1478  -13.6633  -45.0323 C.2       3 UNK         0.5000 
     56 O          -0.1542  -13.0247  -44.0206 O.2       3 UNK        -0.5000 
     57 CA         -0.9511  -14.2964  -45.9044 C.3       3 UNK         0.1400 
     58 CB         -1.3145  -15.6903  -45.3759 C.3       3 UNK        -0.1800 
     59 N          -2.1599  -13.4781  -45.9482 N.am      3 UNK        -0.5000 
     60 C          -2.2725  -12.3399  -46.6400 C.2       2 UNK         0.5000 
     61 O          -1.3681  -11.8596  -47.3272 O.2       2 UNK        -0.5000 
     62 CA         -3.6443  -11.6438  -46.6024 C.3       2 UNK         0.1400 
     63 CB         -3.5245  -10.2020  -46.0834 C.3       2 UNK        -0.1800 
     64 N          -4.2301  -11.6296  -47.9421 N.am      2 UNK        -0.5000 
     65 C          -4.7227  -12.7114  -48.5600 C.2       1 UNK         0.5000 
     66 O          -4.8326  -13.8138  -48.0161 O.2       1 UNK        -0.5000 
     67 C          -3.4591  -22.3624  -45.3865 C.2       11 UNK         0.5000 
     68 O          -4.4444  -22.9162  -45.8705 O.2       11 UNK        -0.5000 
     69 N          -3.1698  -22.3924  -44.0778 N.am      12 UNK        -0.5000 
     70 CA         -3.9645  -23.1276  -43.0899 C.3       12 UNK         0.1400 
     71 CB         -3.4741  -22.8032  -41.6711 C.3       12 UNK        -0.1800 
     72 C          -3.9671  -24.6483  -43.3381 C.2       12 UNK         0.5000 
     73 O          -5.0267  -25.2713  -43.2648 O.2       12 UNK        -0.5000 
     74 N          -2.7937  -25.2087  -43.6623 N.am      13 UNK        -0.5000 
     75 CA         -2.6157  -26.6209  -44.0017 C.3       13 UNK         0.1400 
     76 CB         -1.1163  -26.9561  -44.0079 C.3       13 UNK        -0.1800 
     77 C          -3.2640  -27.0024  -45.3464 C.2       13 UNK         0.5000 
     78 O          -3.8959  -28.0551  -45.4406 O.2       13 UNK        -0.5000 
     79 N          -3.0990  -26.1412  -46.3586 N.am      14 UNK        -0.5000 
     80 CA         -3.5874  -26.3474  -47.7236 C.3       14 UNK         0.1400 
     81 CB         -2.7342  -25.4976  -48.6786 C.3       14 UNK        -0.1800 
     82 C          -5.0810  -26.0193  -47.9158 C.2       14 UNK         0.5000 
     83 O          -5.6092  -26.2862  -48.9946 O.2       14 UNK        -0.5000 
     84 N          -5.7234  -25.4155  -46.9051 N.am      15 UNK        -0.5000 
     85 CA         -7.0904  -24.8794  -46.9219 C.3       15 UNK         0.1400 
     86 CB         -8.1333  -26.0059  -47.0783 C.3       15 UNK        -0.1800 
     87 C          -7.2410  -23.7499  -47.9639 C.2       15 UNK         0.5000 
     88 O          -8.1320  -23.7866  -48.8134 O.2       15 UNK        -0.5000 
     89 N          -6.3137  -22.7863  -47.8828 N.am      16 UNK        -0.5000 
     90 CA         -6.1303  -21.5884  -48.7102 C.3       16 UNK         0.1400 
     91 CB         -7.3957  -20.7085  -48.7231 C.3       16 UNK        -0.1800 
     92 C          -5.6008  -21.8526  -50.1340 C.2       16 UNK         0.5000 
     93 O          -5.2988  -20.8910  -50.8407 O.2       16 UNK        -0.5000 
     94 N          -5.4449  -23.1234  -50.5351 N.am      17 UNK        -0.5000 
     95 CA         -4.9857  -23.5177  -51.8718 C.3       17 UNK         0.1400 
     96 CB         -5.2054  -25.0239  -52.0708 C.3       17 UNK        -0.1800 
     97 C          -3.5243  -23.1319  -52.1758 C.2       17 UNK         0.5000 
     98 O          -3.1641  -23.0265  -53.3477 O.2       17 UNK        -0.5000 
     99 N          -2.7185  -22.8804  -51.1323 N.am      18 UNK        -0.5000 
    100 CA        -1.3382  -22.3963  -51.2379 C.3       18 UNK         0.1400 
    101 CB        -0.6768  -22.4113  -49.8512 C.3       18 UNK        -0.1800 
    102 C         -1.2200  -21.0012  -51.8863 C.2       18 UNK         0.5000 
    103 O         -0.1699  -20.6895  -52.4477 O.2       18 UNK        -0.5000 
    104 N         -2.3037  -20.2088  -51.8579 N.am      19 UNK        -0.5000 
    105 CA        -2.4053  -18.9097  -52.5266 C.3       19 UNK         0.1400 
    106 CB        -3.7141  -18.2222  -52.1156 C.3       19 UNK        -0.1800 
    107 C         -2.2862  -18.9925  -54.0615 C.2       19 UNK         0.5000 
    108 O         -1.8830  -18.0112  -54.6873 O.2       19 UNK        -0.5000 
    109 N         -2.5784  -20.1652  -54.6462 N.am      20 UNK        -0.5000 
    110 CA        -2.4374  -20.4442  -56.0780 C.3       20 UNK         0.1400 
    111 CB        -3.0878  -21.7980  -56.3985 C.3       20 UNK        -0.1800 
    112 C         -0.9783  -20.4149  -56.5788 C.2       20 UNK         0.5000 
    113 O         -0.7623  -20.2400  -57.7784 O.2       20 UNK        -0.5000 
    114 N         -0.0042  -20.5605  -55.6666 N.am      21 UNK        -0.5000 
    115 CA         1.4225  -20.3991  -55.9567 C.3       21 UNK         0.1400 
    116 CB         2.2432  -21.0182  -54.8150 C.3       21 UNK        -0.1800 
    117 C          1.8226  -18.9244  -56.1676 C.2       21 UNK         0.5000 
    118 O          2.8166  -18.6605  -56.8454 O.2       21 UNK        -0.5000 
    119 N          1.0466  -18.0012  -55.5879 N.am      22 UNK        -0.5000 
    120 CA         1.2108  -16.5480  -55.7169 C.3       22 UNK         0.1400 
    121 C          0.2532  -15.9611  -56.7876 C.2       22 UNK         0.5000 
    122 N         -1.0040  -16.3845  -56.8400 N.am      22 UNK        -0.7600 
    123 O          0.6561  -15.1172  -57.5833 O.2       22 UNK        -0.5000 
    124 C124        1.0000  -15.8376  -54.3580 C.3       23 UNK        -0.0398 
    125 S125        2.3283  -16.2051  -53.1580 S.3       23 UNK        -0.2404 
    126 C126        1.5906  -17.5392  -52.1498 C.3       23 UNK        -0.0205 
    127 H127       -7.8492  -15.2815  -51.0688 H         1 UNK         0.0600 
    128 H128       -9.2052  -14.1503  -51.0492 H         1 UNK         0.0600 
    129 H129       -8.7849  -15.0526  -49.5891 H         1 UNK         0.0600 
    130 H130       -5.8646  -14.2687  -50.9592 H         1 UNK         0.3000 
    131 H131       -5.5421  -11.5234  -50.1370 H         1 UNK         0.0600 
    132 H132       -3.1142  -11.9333  -50.6683 H         1 UNK         0.0800 
    133 H133       -4.1997  -12.2636  -51.9767 H         1 UNK         0.0800 
    134 H134       -2.0172  -13.9134  -49.1505 H         1 UNK         0.0800 
    135 H135       -1.0623  -13.4354  -50.5348 H         1 UNK         0.0800 
    136 H136        0.1517  -15.1359  -51.8530 H         1 UNK         0.1150 
    137 H137        0.7703  -18.9834  -50.0426 H         1 UNK         0.1150 
    138 H138       -2.0505  -16.2307  -48.3645 H         1 UNK         0.1150 
    139 H139       -0.2077  -19.4783  -47.9329 H         1 UNK         0.0800 
    140 H140       -0.8820  -18.1533  -47.0052 H         1 UNK         0.0800 
    141 H141       -3.8701  -19.9294  -46.1733 H         1 UNK         0.0800 
    142 H142       -2.2487  -19.5469  -45.6929 H         1 UNK         0.0800 
    143 H143       -2.6579  -22.0769  -47.3159 H         1 UNK         0.0600 
    144 H144       -0.5216  -21.0905  -45.7044 H         1 UNK         0.3000 
    145 H145        1.1292  -24.2611  -45.2688 H         1 UNK         0.0600 
    146 H146        2.9695  -22.7749  -46.0907 H         1 UNK         0.0600 
    147 H147        1.9174  -23.3129  -47.3919 H         1 UNK         0.0600 
    148 H148        1.7781  -21.6752  -46.7807 H         1 UNK         0.0600 
    149 H149        1.6484  -21.6547  -44.2004 H         1 UNK         0.3000 
    150 H150       -0.2213  -22.0523  -41.1816 H         1 UNK         0.0600 
    151 H151        1.8809  -23.2649  -40.7052 H         1 UNK         0.0600 
    152 H152        2.0118  -21.5920  -40.1856 H         1 UNK         0.0600 
    153 H153        2.8026  -22.1222  -41.6698 H         1 UNK         0.0600 
    154 H154        1.5440  -20.0269  -42.2529 H         1 UNK         0.3000 
    155 H155       -1.0211  -18.1385  -43.8543 H         1 UNK         0.0600 
    156 H156        0.5873  -17.5572  -41.3104 H         1 UNK         0.0600 
    157 H157       -1.1680  -17.4922  -41.4374 H         1 UNK         0.0600 
    158 H158       -0.1817  -16.3615  -42.3513 H         1 UNK         0.0600 
    159 H159        1.6718  -17.4638  -43.5949 H         1 UNK         0.3000 
    160 H160        3.0751  -19.5494  -46.1579 H         1 UNK         0.0600 
    161 H161        2.5661  -16.5318  -46.0140 H         1 UNK         0.0600 
    162 H162        2.1102  -17.5858  -47.3444 H         1 UNK         0.0600 
    163 H163        3.8091  -17.3225  -46.9800 H         1 UNK         0.0600 
    164 H164        4.2646  -17.5918  -44.4577 H         1 UNK         0.3000 
    165 H165        4.8633  -19.6849  -41.6411 H         1 UNK         0.0600 
    166 H166        6.8496  -18.6913  -43.7483 H         1 UNK         0.0600 
    167 H167        7.2303  -19.0094  -42.0558 H         1 UNK         0.0600 
    168 H168        6.7188  -20.3196  -43.1084 H         1 UNK         0.0600 
    169 H169        4.4080  -17.6269  -41.0636 H         1 UNK         0.3000 
    170 H170        3.8111  -15.5172  -41.1379 H         1 UNK         0.0600 
    171 H171        6.5094  -14.1999  -41.7823 H         1 UNK         0.0600 
    172 H172        5.3598  -13.6565  -40.5593 H         1 UNK         0.0600 
    173 H173        6.1765  -15.2005  -40.3740 H         1 UNK         0.0600 
    174 H174        4.4739  -13.4175  -42.9420 H         1 UNK         0.3000 
    175 H175        2.4421  -12.5573  -44.1906 H         1 UNK         0.0600 
    176 H176        4.0020  -14.3368  -46.1541 H         1 UNK         0.0600 
    177 H177        3.5254  -12.6682  -46.4663 H         1 UNK         0.0600 
    178 H178        4.6719  -13.0281  -45.1901 H         1 UNK         0.0600 
    179 H179        1.5570  -14.4500  -46.2545 H         1 UNK         0.3000 
    180 H180       -0.5745  -14.4042  -46.9242 H         1 UNK         0.0600 
    181 H181       -2.0980  -16.1555  -45.9739 H         1 UNK         0.0600 
    182 H182       -1.6605  -15.6514  -44.3424 H         1 UNK         0.0600 
    183 H183       -0.4448  -16.3456  -45.4097 H         1 UNK         0.0600 
    184 H184       -2.9445  -13.8045  -45.4035 H         1 UNK         0.3000 
    185 H185       -4.3109  -12.1906  -45.9317 H         1 UNK         0.0600 
    186 H186       -4.5016   -9.7222  -46.0231 H         1 UNK         0.0600 
    187 H187       -3.0914  -10.1845  -45.0825 H         1 UNK         0.0600 
    188 H188       -2.8896   -9.5908  -46.7261 H         1 UNK         0.0600 
    189 H189       -4.1452  -10.7630  -48.4534 H         1 UNK         0.3000 
    190 H190       -2.3794  -21.8614  -43.7263 H         1 UNK         0.3000 
    191 H191       -4.9964  -22.7799  -43.1732 H         1 UNK         0.0600 
    192 H192       -4.0767  -23.3198  -40.9230 H         1 UNK         0.0600 
    193 H193       -3.5452  -21.7355  -41.4636 H         1 UNK         0.0600 
    194 H194       -2.4381  -23.1058  -41.5220 H         1 UNK         0.0600 
    195 H195       -1.9578  -24.6321  -43.6582 H         1 UNK         0.3000 
    196 H196       -3.0919  -27.2186  -43.2216 H         1 UNK         0.0600 
    197 H197       -0.5740  -26.3641  -44.7461 H         1 UNK         0.0600 
    198 H198       -0.6667  -26.7650  -43.0333 H         1 UNK         0.0600 
    199 H199       -0.9509  -28.0082  -44.2428 H         1 UNK         0.0600 
    200 H200       -2.5108  -25.3234  -46.2134 H         1 UNK         0.3000 
    201 H201       -3.4483  -27.3972  -47.9893 H         1 UNK         0.0600 
    202 H202       -2.9976  -25.6839  -49.7190 H         1 UNK         0.0600 
    203 H203       -2.8655  -24.4322  -48.4875 H         1 UNK         0.0600 
    204 H204       -1.6743  -25.7293  -48.5726 H         1 UNK         0.0600 
    205 H205       -5.1789  -25.1909  -46.0826 H         1 UNK         0.3000 
    206 H206       -7.2494  -24.4198  -45.9452 H         1 UNK         0.0600 
    207 H207       -7.9980  -26.7749  -46.3178 H         1 UNK         0.0600 
    208 H208       -9.1453  -25.6146  -46.9685 H         1 UNK         0.0600 
    209 H209       -8.0757  -26.4865  -48.0552 H         1 UNK         0.0600 
    210 H210       -5.6234  -22.8882  -47.1375 H         1 UNK         0.3000 
    211 H211       -5.3478  -21.0154  -48.2113 H         1 UNK         0.0600 
    212 H212       -7.1974  -19.7492  -49.2026 H         1 UNK         0.0600 
    213 H213       -7.7410  -20.4985  -47.7108 H         1 UNK         0.0600 
    214 H214       -8.2141  -21.1788  -49.2685 H         1 UNK         0.0600 
    215 H215       -5.7310  -23.8673  -49.9134 H         1 UNK         0.3000 
    216 H216       -5.6097  -22.9931  -52.5984 H         1 UNK         0.0600 
    217 H217       -4.5801  -25.6167  -51.4049 H         1 UNK         0.0600 
    218 H218       -4.9644  -25.3204  -53.0924 H         1 UNK         0.0600 
    219 H219       -6.2443  -25.3001  -51.8890 H         1 UNK         0.0600 
    220 H220       -3.1002  -22.9744  -50.2043 H         1 UNK         0.3000 
    221 H221       -0.7933  -23.0932  -51.8780 H         1 UNK         0.0600 
    222 H222       -0.6732  -23.4127  -49.4213 H         1 UNK         0.0600 
    223 H223       -1.1865  -21.7483  -49.1553 H         1 UNK         0.0600 
    224 H224        0.3615  -22.0821  -49.9099 H         1 UNK         0.0600 
    225 H225       -3.1397  -20.5361  -51.3893 H         1 UNK         0.3000 
    226 H226       -1.5813  -18.2903  -52.1776 H         1 UNK         0.0600 
    227 H227       -4.5867  -18.7888  -52.4420 H         1 UNK         0.0600 
    228 H228       -3.7725  -18.1042  -51.0331 H         1 UNK         0.0600 
    229 H229       -3.7845  -17.2257  -52.5536 H         1 UNK         0.0600 
    230 H230       -2.8678  -20.9428  -54.0650 H         1 UNK         0.3000 
    231 H231       -2.9826  -19.6690  -56.6204 H         1 UNK         0.0600 
    232 H232       -2.5530  -22.6219  -55.9248 H         1 UNK         0.0600 
    233 H233       -3.0886  -21.9852  -57.4731 H         1 UNK         0.0600 
    234 H234       -4.1241  -21.8311  -56.0618 H         1 UNK         0.0600 
    235 H235       -0.2548  -20.7026  -54.6955 H         1 UNK         0.3000 
    236 H236        1.6533  -20.9430  -56.8751 H         1 UNK         0.0600 
    237 H237        2.0951  -20.4835  -53.8762 H         1 UNK         0.0600 
    238 H238        1.9741  -22.0621  -54.6535 H         1 UNK         0.0600 
    239 H239        3.3095  -20.9878  -55.0421 H         1 UNK         0.0600 
    240 H240        0.2127  -18.3055  -55.1044 H         1 UNK         0.3000 
    241 H241        2.2268  -16.3247  -56.0489 H         1 UNK         0.0600 
    242 H242       -1.6246  -16.0083  -57.5386 H         1 UNK         0.3800 
    243 H243       -1.3659  -17.0258  -56.1378 H         1 UNK         0.3800 
    244 H244        0.0281  -16.1027  -53.9390 H         1 UNK         0.0800 
    245 H245        0.9865  -14.7544  -54.4920 H         1 UNK         0.0800 
    246 H246        1.1089  -18.2639  -52.8062 H         1 UNK         0.0800 
    247 H247        2.4120  -18.0699  -51.6664 H         1 UNK         0.0800 
@<TRIPOS>BOND
     1    1    2 1    
     2    1  127 1    
     3    1  128 1    
     4    1  129 1    
     5    2    3 2    
     6    2    4 am   BACKBONE|DICT|INTERRES
     7    4    5 1    
     8    4  130 1    
     9    5    6 1    
    10    5   65 1    
    11    5  131 1    
    12    6    7 1    
    13    6  132 1    
    14    6  133 1    
    15    7    8 1    
    16    8    9 1    
    17    8  134 1    
    18    8  135 1    
    19    9   10 ar   
    20    9   14 ar   
    21   10   11 ar   
    22   10  136 1    
    23   11   12 ar   
    24   11  126 1    
    25   12   13 ar   
    26   12  137 1    
    27   13   14 ar   
    28   13   15 1    
    29   14  138 1    
    30   15   16 1    
    31   15  139 1    
    32   15  140 1    
    33   16   17 1    
    34   17   18 1    
    35   17  141 1    
    36   17  142 1    
    37   18   19 1    
    38   18   67 1    
    39   18  143 1    
    40   19   20 am   BACKBONE|DICT|INTERRES
    41   19  144 1    
    42   20   21 2    
    43   20   22 1    
    44   22   23 1    
    45   22   24 1    
    46   22  145 1    
    47   23  146 1    
    48   23  147 1    
    49   23  148 1    
    50   24   25 am   BACKBONE|DICT|INTERRES
    51   24  149 1    
    52   25   26 2    
    53   25   27 1    
    54   27   28 1    
    55   27   29 1    
    56   27  150 1    
    57   28  151 1    
    58   28  152 1    
    59   28  153 1    
    60   29   30 am   BACKBONE|DICT|INTERRES
    61   29  154 1    
    62   30   31 2    
    63   30   32 1    
    64   32   33 1    
    65   32   34 1    
    66   32  155 1    
    67   33  156 1    
    68   33  157 1    
    69   33  158 1    
    70   34   35 am   BACKBONE|DICT|INTERRES
    71   34  159 1    
    72   35   36 2    
    73   35   37 1    
    74   37   38 1    
    75   37   39 1    
    76   37  160 1    
    77   38  161 1    
    78   38  162 1    
    79   38  163 1    
    80   39   40 am   BACKBONE|DICT|INTERRES
    81   39  164 1    
    82   40   41 2    
    83   40   42 1    
    84   42   43 1    
    85   42   44 1    
    86   42  165 1    
    87   43  166 1    
    88   43  167 1    
    89   43  168 1    
    90   44   45 am   BACKBONE|DICT|INTERRES
    91   44  169 1    
    92   45   46 2    
    93   45   47 1    
    94   47   48 1    
    95   47   49 1    
    96   47  170 1    
    97   48  171 1    
    98   48  172 1    
    99   48  173 1    
   100   49   50 am   BACKBONE|DICT|INTERRES
   101   49  174 1    
   102   50   51 2    
   103   50   52 1    
   104   52   53 1    
   105   52   54 1    
   106   52  175 1    
   107   53  176 1    
   108   53  177 1    
   109   53  178 1    
   110   54   55 am   BACKBONE|DICT|INTERRES
   111   54  179 1    
   112   55   56 2    
   113   55   57 1    
   114   57   58 1    
   115   57   59 1    
   116   57  180 1    
   117   58  181 1    
   118   58  182 1    
   119   58  183 1    
   120   59   60 am   BACKBONE|DICT|INTERRES
   121   59  184 1    
   122   60   61 2    
   123   60   62 1    
   124   62   63 1    
   125   62   64 1    
   126   62  185 1    
   127   63  186 1    
   128   63  187 1    
   129   63  188 1    
   130   64   65 am   BACKBONE|DICT|INTERRES
   131   64  189 1    
   132   65   66 2    
   133   67   68 2    
   134   67   69 am   BACKBONE|DICT|INTERRES
   135   69   70 1    
   136   69  190 1    
   137   70   71 1    
   138   70   72 1    
   139   70  191 1    
   140   71  192 1    
   141   71  193 1    
   142   71  194 1    
   143   72   73 2    
   144   72   74 am   BACKBONE|DICT|INTERRES
   145   74   75 1    
   146   74  195 1    
   147   75   76 1    
   148   75   77 1    
   149   75  196 1    
   150   76  197 1    
   151   76  198 1    
   152   76  199 1    
   153   77   78 2    
   154   77   79 am   BACKBONE|DICT|INTERRES
   155   79   80 1    
   156   79  200 1    
   157   80   81 1    
   158   80   82 1    
   159   80  201 1    
   160   81  202 1    
   161   81  203 1    
   162   81  204 1    
   163   82   83 2    
   164   82   84 am   BACKBONE|DICT|INTERRES
   165   84   85 1    
   166   84  205 1    
   167   85   86 1    
   168   85   87 1    
   169   85  206 1    
   170   86  207 1    
   171   86  208 1    
   172   86  209 1    
   173   87   88 2    
   174   87   89 am   BACKBONE|DICT|INTERRES
   175   89   90 1    
   176   89  210 1    
   177   90   91 1    
   178   90   92 1    
   179   90  211 1    
   180   91  212 1    
   181   91  213 1    
   182   91  214 1    
   183   92   93 2    
   184   92   94 am   BACKBONE|DICT|INTERRES
   185   94   95 1    
   186   94  215 1    
   187   95   96 1    
   188   95   97 1    
   189   95  216 1    
   190   96  217 1    
   191   96  218 1    
   192   96  219 1    
   193   97   98 2    
   194   97   99 am   BACKBONE|DICT|INTERRES
   195   99  100 1    
   196   99  220 1    
   197  100  101 1    
   198  100  102 1    
   199  100  221 1    
   200  101  222 1    
   201  101  223 1    
   202  101  224 1    
   203  102  103 2    
   204  102  104 am   BACKBONE|DICT|INTERRES
   205  104  105 1    
   206  104  225 1    
   207  105  106 1    
   208  105  107 1    
   209  105  226 1    
   210  106  227 1    
   211  106  228 1    
   212  106  229 1    
   213  107  108 2    
   214  107  109 am   BACKBONE|DICT|INTERRES
   215  109  110 1    
   216  109  230 1    
   217  110  111 1    
   218  110  112 1    
   219  110  231 1    
   220  111  232 1    
   221  111  233 1    
   222  111  234 1    
   223  112  113 2    
   224  112  114 am   BACKBONE|DICT|INTERRES
   225  114  115 1    
   226  114  235 1    
   227  115  116 1    
   228  115  117 1    
   229  115  236 1    
   230  116  237 1    
   231  116  238 1    
   232  116  239 1    
   233  117  118 2    
   234  117  119 am   BACKBONE|DICT|INTERRES
   235  119  120 1    
   236  119  240 1    
   237  120  121 1    
   238  120  124 1    
   239  120  241 1    
   240  121  122 am   BACKBONE|DICT|INTERRES
   241  121  123 2    
   242  122  242 1    
   243  122  243 1    
   244  124  125 1    
   245  124  244 1    
   246  124  245 1    
   247  125  126 1    
   248  126  246 1    
   249  126  247 1    
@<TRIPOS>SUBSTRUCTURE
     1 UNK         1 GROUP             0       ****    0 ROOT    
