@<TRIPOS>MOLECULE
3R540
247   249    1
SMALL
USER_CHARGES


@<TRIPOS>ATOM
      1 CA          6.6156  -10.2145  -48.1075 C.3       0 UNK        -0.1800 
      2 C           5.6566  -11.2616  -47.5590 C.2       0 UNK         0.5000 
      3 O           5.8458  -11.7385  -46.4402 O.2       0 UNK        -0.5000 
      4 N           4.6271  -11.6165  -48.3399 N.am      1 UNK        -0.5000 
      5 CA          3.5983  -12.6026  -47.9775 C.3       1 UNK         0.1400 
      6 C6          2.9316  -13.2099  -49.2418 C.3       23 UNK        -0.0398 
      7 S7          2.5355  -14.9793  -49.0390 S.3       23 UNK        -0.2404 
      8 C8          3.8559  -15.7680  -50.0023 C.3       23 UNK        -0.0205 
      9 C9          3.7828  -17.2831  -49.8943 C.ar      23 UNK        -0.0193 
     10 C10         2.8396  -17.9956  -50.6412 C.ar      23 UNK        -0.1150 
     11 C11         2.7904  -19.3903  -50.5734 C.ar      23 UNK        -0.0193 
     12 C12         3.6970  -20.0727  -49.7570 C.ar      23 UNK        -0.1150 
     13 C13         4.6372  -19.3721  -48.9963 C.ar      23 UNK        -0.0193 
     14 C14         4.6701  -17.9758  -49.0645 C.ar      23 UNK        -0.1150 
     15 C15         5.6432  -20.1215  -48.1327 C.3       23 UNK        -0.0205 
     16 S16         4.9734  -20.5408  -46.4919 S.3       23 UNK        -0.2404 
     17 C17         3.9283  -21.9834  -46.8858 C.3       23 UNK        -0.0398 
     18 CA          3.6343  -22.8641  -45.6452 C.3       11 UNK         0.1400 
     19 N           2.7733  -22.1685  -44.6806 N.am      11 UNK        -0.5000 
     20 C           2.5998  -22.5143  -43.3984 C.2       10 UNK         0.5000 
     21 O           3.2225  -23.4212  -42.8454 O.2       10 UNK        -0.5000 
     22 CA          1.5059  -21.7568  -42.6190 C.3       10 UNK         0.1400 
     23 CB          2.0689  -20.4748  -41.9875 C.3       10 UNK        -0.1800 
     24 N           0.3359  -21.4338  -43.4436 N.am      10 UNK        -0.5000 
     25 C          -0.4930  -22.3457  -43.9741 C.2       9 UNK         0.5000 
     26 O          -0.3800  -23.5565  -43.7851 O.2       9 UNK        -0.5000 
     27 CA         -1.5974  -21.8382  -44.9200 C.3       9 UNK         0.1400 
     28 CB         -2.8059  -21.3116  -44.1332 C.3       9 UNK        -0.1800 
     29 N          -1.1215  -20.8126  -45.8473 N.am      9 UNK        -0.5000 
     30 C          -0.1982  -21.0222  -46.7970 C.2       8 UNK         0.5000 
     31 O           0.2976  -22.1234  -47.0350 O.2       8 UNK        -0.5000 
     32 CA          0.2930  -19.7910  -47.5781 C.3       8 UNK         0.1400 
     33 CB         -0.6534  -19.4640  -48.7374 C.3       8 UNK        -0.1800 
     34 N           0.4519  -18.6095  -46.7326 N.am      8 UNK        -0.5000 
     35 C           1.3045  -18.5283  -45.7025 C.2       7 UNK         0.5000 
     36 O           2.0530  -19.4426  -45.3646 O.2       7 UNK        -0.5000 
     37 CA          1.2619  -17.2422  -44.8627 C.3       7 UNK         0.1400 
     38 CB          1.9268  -16.0700  -45.5952 C.3       7 UNK        -0.1800 
     39 N          -0.1042  -16.8801  -44.4907 N.am      7 UNK        -0.5000 
     40 C          -0.8741  -17.5904  -43.6548 C.2       6 UNK         0.5000 
     41 O          -0.4997  -18.6104  -43.0772 O.2       6 UNK        -0.5000 
     42 CA         -2.3170  -17.0932  -43.4572 C.3       6 UNK         0.1400 
     43 CB         -2.3754  -16.0233  -42.3569 C.3       6 UNK        -0.1800 
     44 N          -2.9051  -16.5578  -44.6857 N.am      6 UNK        -0.5000 
     45 C          -3.1760  -17.2900  -45.7755 C.2       5 UNK         0.5000 
     46 O          -2.9441  -18.4953  -45.8671 O.2       5 UNK        -0.5000 
     47 CA         -3.7503  -16.5211  -46.9773 C.3       5 UNK         0.1400 
     48 CB         -5.1991  -16.0822  -46.7111 C.3       5 UNK        -0.1800 
     49 N          -2.9532  -15.3431  -47.3192 N.am      5 UNK        -0.5000 
     50 C          -1.6721  -15.3583  -47.7029 C.2       4 UNK         0.5000 
     51 O          -0.9965  -16.3820  -47.7835 O.2       4 UNK        -0.5000 
     52 CA         -1.0217  -14.0041  -48.0227 C.3       4 UNK         0.1400 
     53 CB         -1.5556  -13.4020  -49.3357 C.3       4 UNK        -0.1800 
     54 N          -1.0651  -13.0436  -46.9184 N.am      4 UNK        -0.5000 
     55 C          -2.1195  -12.4051  -46.3906 C.2       3 UNK         0.5000 
     56 O          -3.2828  -12.5811  -46.7557 O.2       3 UNK        -0.5000 
     57 CA         -1.8336  -11.4091  -45.2478 C.3       3 UNK         0.1400 
     58 CB         -2.2241  -12.0282  -43.8965 C.3       3 UNK        -0.1800 
     59 N          -0.4356  -10.9748  -45.1776 N.am      3 UNK        -0.5000 
     60 C           0.1865  -10.2041  -46.0808 C.2       2 UNK         0.5000 
     61 O          -0.3708   -9.7187  -47.0663 O.2       2 UNK        -0.5000 
     62 CA          1.6924   -9.9464  -45.8661 C.3       2 UNK         0.1400 
     63 CB          2.1691  -10.1867  -44.4156 C.3       2 UNK        -0.1800 
     64 N           2.5230  -10.7087  -46.8049 N.am      2 UNK        -0.5000 
     65 C           2.5557  -12.0412  -46.9773 C.2       1 UNK         0.5000 
     66 O           1.8137  -12.8195  -46.3766 O.2       1 UNK        -0.5000 
     67 C           3.0637  -24.2341  -46.0878 C.2       11 UNK         0.5000 
     68 O           3.7851  -24.9907  -46.7392 O.2       11 UNK        -0.5000 
     69 N           1.7974  -24.5271  -45.7489 N.am      12 UNK        -0.5000 
     70 CA          1.0156  -25.7062  -46.1378 C.3       12 UNK         0.1400 
     71 CB          1.6072  -26.9924  -45.5245 C.3       12 UNK        -0.1800 
     72 C           0.8039  -25.7943  -47.6643 C.2       12 UNK         0.5000 
     73 O           0.8598  -26.8813  -48.2424 O.2       12 UNK        -0.5000 
     74 N           0.5662  -24.6343  -48.2850 N.am      13 UNK        -0.5000 
     75 CA          0.3834  -24.4442  -49.7190 C.3       13 UNK         0.1400 
     76 CB          1.6765  -23.8567  -50.3100 C.3       13 UNK        -0.1800 
     77 C          -0.8605  -23.5721  -49.9599 C.2       13 UNK         0.5000 
     78 O          -0.8095  -22.5841  -50.6965 O.2       13 UNK        -0.5000 
     79 N          -1.9687  -23.9561  -49.3199 N.am      14 UNK        -0.5000 
     80 CA         -3.2776  -23.3352  -49.4643 C.3       14 UNK         0.1400 
     81 CB         -3.5005  -22.3213  -48.3311 C.3       14 UNK        -0.1800 
     82 C          -4.3588  -24.4219  -49.4528 C.2       14 UNK         0.5000 
     83 O          -4.1688  -25.4782  -48.8434 O.2       14 UNK        -0.5000 
     84 N          -5.4717  -24.1246  -50.1252 N.am      15 UNK        -0.5000 
     85 CA         -6.6845  -24.9319  -50.1849 C.3       15 UNK         0.1400 
     86 CB         -7.2581  -24.8211  -51.6112 C.3       15 UNK        -0.1800 
     87 C          -7.6896  -24.4743  -49.1066 C.2       15 UNK         0.5000 
     88 O          -7.3065  -23.8154  -48.1344 O.2       15 UNK        -0.5000 
     89 N          -8.9662  -24.8386  -49.2939 N.am      16 UNK        -0.5000 
     90 CA        -10.0972  -24.4696  -48.4394 C.3       16 UNK         0.1400 
     91 CB        -11.3809  -25.0833  -49.0186 C.3       16 UNK        -0.1800 
     92 C         -10.2534  -22.9444  -48.2835 C.2       16 UNK         0.5000 
     93 O          -9.9873  -22.1991  -49.2295 O.2       16 UNK        -0.5000 
     94 N         -10.6536  -22.5168  -47.0774 N.am      17 UNK        -0.5000 
     95 CA        -10.7811  -21.1198  -46.6346 C.3       17 UNK         0.1400 
     96 CB        -11.9087  -20.4014  -47.4056 C.3       17 UNK        -0.1800 
     97 C          -9.4477  -20.3352  -46.6635 C.2       17 UNK         0.5000 
     98 O          -9.4633  -19.1052  -46.7296 O.2       17 UNK        -0.5000 
     99 N          -8.3223  -21.0666  -46.6154 N.am      18 UNK        -0.5000 
    100 CA        -6.9390  -20.5913  -46.7095 C.3       18 UNK         0.1400 
    101 CB        -6.5631  -19.7352  -45.4820 C.3       18 UNK        -0.1800 
    102 C         -6.6134  -19.9043  -48.0540 C.2       18 UNK         0.5000 
    103 O         -5.7449  -19.0338  -48.1016 O.2       18 UNK        -0.5000 
    104 N         -7.2962  -20.3137  -49.1337 N.am      19 UNK        -0.5000 
    105 CA        -7.0395  -19.8547  -50.4980 C.3       19 UNK         0.1400 
    106 CB        -8.1755  -20.3384  -51.4128 C.3       19 UNK        -0.1800 
    107 C         -5.6716  -20.3659  -50.9847 C.2       19 UNK         0.5000 
    108 O         -5.5223  -21.5703  -51.1943 O.2       19 UNK        -0.5000 
    109 N         -4.6942  -19.4579  -51.0992 N.am      20 UNK        -0.5000 
    110 CA        -3.3018  -19.7448  -51.4484 C.3       20 UNK         0.1400 
    111 CB        -2.5040  -18.4309  -51.4212 C.3       20 UNK        -0.1800 
    112 C         -3.1567  -20.4290  -52.8200 C.2       20 UNK         0.5000 
    113 O         -3.7274  -19.9492  -53.8024 O.2       20 UNK        -0.5000 
    114 N         -2.3722  -21.5132  -52.8709 N.am      21 UNK        -0.5000 
    115 CA        -2.1061  -22.2736  -54.0952 C.3       21 UNK         0.1400 
    116 CB        -1.6292  -23.6837  -53.7130 C.3       21 UNK        -0.1800 
    117 C         -1.0749  -21.5858  -55.0111 C.2       21 UNK         0.5000 
    118 O         -1.0139  -21.8995  -56.2004 O.2       21 UNK        -0.5000 
    119 N         -0.2829  -20.6706  -54.4395 N.am      22 UNK        -0.5000 
    120 CA         0.7972  -19.9297  -55.1116 C.3       22 UNK         0.1400 
    121 C          0.3151  -18.7822  -56.0482 C.2       22 UNK         0.5000 
    122 N         -0.9663  -18.4349  -56.0767 N.am      22 UNK        -0.7600 
    123 O          1.1202  -18.1986  -56.7686 O.2       22 UNK        -0.5000 
    124 C124        1.8561  -19.4106  -54.1015 C.3       23 UNK        -0.0398 
    125 S125        2.4543  -20.7176  -52.9716 S.3       23 UNK        -0.2404 
    126 C126        1.7641  -20.1677  -51.3797 C.3       23 UNK        -0.0205 
    127 H127        7.6245  -10.6232  -48.1643 H         1 UNK         0.0600 
    128 H128        6.6357   -9.3441  -47.4518 H         1 UNK         0.0600 
    129 H129        6.3271   -9.8823  -49.1051 H         1 UNK         0.0600 
    130 H130        4.5278  -11.1869  -49.2492 H         1 UNK         0.3000 
    131 H131        4.1147  -13.4089  -47.4511 H         1 UNK         0.0600 
    132 H132        2.0217  -12.6721  -49.5154 H         1 UNK         0.0800 
    133 H133        3.5904  -13.1154  -50.1062 H         1 UNK         0.0800 
    134 H134        3.7713  -15.4710  -51.0487 H         1 UNK         0.0800 
    135 H135        4.8243  -15.4065  -49.6525 H         1 UNK         0.0800 
    136 H136        2.1472  -17.4617  -51.2767 H         1 UNK         0.1150 
    137 H137        3.6736  -21.1522  -49.7199 H         1 UNK         0.1150 
    138 H138        5.3989  -17.4286  -48.4833 H         1 UNK         0.1150 
    139 H139        5.9797  -21.0250  -48.6430 H         1 UNK         0.0800 
    140 H140        6.5356  -19.5096  -47.9932 H         1 UNK         0.0800 
    141 H141        2.9986  -21.6342  -47.3358 H         1 UNK         0.0800 
    142 H142        4.4427  -22.5631  -47.6544 H         1 UNK         0.0800 
    143 H143        4.5844  -23.0772  -45.1507 H         1 UNK         0.0600 
    144 H144        2.2929  -21.3411  -45.0250 H         1 UNK         0.3000 
    145 H145        1.1699  -22.4086  -41.8099 H         1 UNK         0.0600 
    146 H146        1.3199  -19.9782  -41.3705 H         1 UNK         0.0600 
    147 H147        2.4034  -19.7642  -42.7431 H         1 UNK         0.0600 
    148 H148        2.9226  -20.6979  -41.3465 H         1 UNK         0.0600 
    149 H149        0.1588  -20.4484  -43.6120 H         1 UNK         0.3000 
    150 H150       -1.9309  -22.6910  -45.5142 H         1 UNK         0.0600 
    151 H151       -3.1850  -22.0682  -43.4452 H         1 UNK         0.0600 
    152 H152       -3.6224  -21.0431  -44.8035 H         1 UNK         0.0600 
    153 H153       -2.5513  -20.4298  -43.5455 H         1 UNK         0.0600 
    154 H154       -1.5302  -19.8872  -45.7547 H         1 UNK         0.3000 
    155 H155        1.2716  -20.0312  -47.9968 H         1 UNK         0.0600 
    156 H156       -0.7615  -20.3176  -49.4045 H         1 UNK         0.0600 
    157 H157       -0.2692  -18.6337  -49.3300 H         1 UNK         0.0600 
    158 H158       -1.6475  -19.1908  -48.3810 H         1 UNK         0.0600 
    159 H159       -0.1242  -17.8049  -46.9700 H         1 UNK         0.3000 
    160 H160        1.8259  -17.4280  -43.9461 H         1 UNK         0.0600 
    161 H161        1.3494  -15.7630  -46.4664 H         1 UNK         0.0600 
    162 H162        2.9266  -16.3361  -45.9408 H         1 UNK         0.0600 
    163 H163        2.0276  -15.2038  -44.9414 H         1 UNK         0.0600 
    164 H164       -0.5053  -16.0791  -44.9531 H         1 UNK         0.3000 
    165 H165       -2.9217  -17.9448  -43.1381 H         1 UNK         0.0600 
    166 H166       -3.4012  -15.7067  -42.1672 H         1 UNK         0.0600 
    167 H167       -1.9765  -16.4093  -41.4179 H         1 UNK         0.0600 
    168 H168       -1.7936  -15.1398  -42.6210 H         1 UNK         0.0600 
    169 H169       -3.1171  -15.5716  -44.7014 H         1 UNK         0.3000 
    170 H170       -3.7427  -17.1947  -47.8366 H         1 UNK         0.0600 
    171 H171       -5.8154  -16.9266  -46.4029 H         1 UNK         0.0600 
    172 H172       -5.2584  -15.3293  -45.9244 H         1 UNK         0.0600 
    173 H173       -5.6521  -15.6638  -47.6099 H         1 UNK         0.0600 
    174 H174       -3.4002  -14.4348  -47.2317 H         1 UNK         0.3000 
    175 H175        0.0361  -14.2026  -48.1721 H         1 UNK         0.0600 
    176 H176       -1.0251  -12.4841  -49.5892 H         1 UNK         0.0600 
    177 H177       -1.4159  -14.0977  -50.1640 H         1 UNK         0.0600 
    178 H178       -2.6194  -13.1705  -49.2813 H         1 UNK         0.0600 
    179 H179       -0.1526  -12.8402  -46.5193 H         1 UNK         0.3000 
    180 H180       -2.4566  -10.5288  -45.4181 H         1 UNK         0.0600 
    181 H181       -2.1107  -11.3086  -43.0855 H         1 UNK         0.0600 
    182 H182       -1.6100  -12.8982  -43.6619 H         1 UNK         0.0600 
    183 H183       -3.2661  -12.3513  -43.8979 H         1 UNK         0.0600 
    184 H184        0.1129  -11.3463  -44.4156 H         1 UNK         0.3000 
    185 H185        1.8553   -8.8916  -46.0922 H         1 UNK         0.0600 
    186 H186        3.2074   -9.8771  -44.2949 H         1 UNK         0.0600 
    187 H187        1.5781   -9.6067  -43.7056 H         1 UNK         0.0600 
    188 H188        2.1070  -11.2357  -44.1244 H         1 UNK         0.0600 
    189 H189        3.1530  -10.1574  -47.3695 H         1 UNK         0.3000 
    190 H190        1.2858  -23.8373  -45.2131 H         1 UNK         0.3000 
    191 H191        0.0239  -25.5660  -45.7058 H         1 UNK         0.0600 
    192 H192        0.9465  -27.8436  -45.6927 H         1 UNK         0.0600 
    193 H193        1.7360  -26.8906  -44.4469 H         1 UNK         0.0600 
    194 H194        2.5763  -27.2423  -45.9567 H         1 UNK         0.0600 
    195 H195        0.5042  -23.7814  -47.7286 H         1 UNK         0.3000 
    196 H196        0.1860  -25.3982  -50.2116 H         1 UNK         0.0600 
    197 H197        1.5567  -23.5973  -51.3628 H         1 UNK         0.0600 
    198 H198        2.4942  -24.5743  -50.2435 H         1 UNK         0.0600 
    199 H199        1.9840  -22.9610  -49.7716 H         1 UNK         0.0600 
    200 H200       -1.9578  -24.8024  -48.7658 H         1 UNK         0.3000 
    201 H201       -3.3323  -22.8216  -50.4251 H         1 UNK         0.0600 
    202 H202       -3.4729  -22.7998  -47.3523 H         1 UNK         0.0600 
    203 H203       -4.4709  -21.8378  -48.4324 H         1 UNK         0.0600 
    204 H204       -2.7463  -21.5365  -48.3457 H         1 UNK         0.0600 
    205 H205       -5.5392  -23.2013  -50.5543 H         1 UNK         0.3000 
    206 H206       -6.4425  -25.9784  -49.9896 H         1 UNK         0.0600 
    207 H207       -6.5014  -25.0652  -52.3572 H         1 UNK         0.0600 
    208 H208       -8.0880  -25.5107  -51.7675 H         1 UNK         0.0600 
    209 H209       -7.6165  -23.8127  -51.8225 H         1 UNK         0.0600 
    210 H210       -9.1964  -25.3560  -50.1291 H         1 UNK         0.3000 
    211 H211       -9.9163  -24.9049  -47.4545 H         1 UNK         0.0600 
    212 H212      -11.5912  -24.7030  -50.0192 H         1 UNK         0.0600 
    213 H213      -12.2432  -24.8516  -48.3921 H         1 UNK         0.0600 
    214 H214      -11.3082  -26.1694  -49.0796 H         1 UNK         0.0600 
    215 H215      -10.8471  -23.2092  -46.3665 H         1 UNK         0.3000 
    216 H216      -11.0780  -21.1615  -45.5857 H         1 UNK         0.0600 
    217 H217      -12.1184  -19.4231  -46.9717 H         1 UNK         0.0600 
    218 H218      -12.8358  -20.9737  -47.3729 H         1 UNK         0.0600 
    219 H219      -11.6482  -20.2435  -48.4526 H         1 UNK         0.0600 
    220 H220       -8.4236  -22.0725  -46.5974 H         1 UNK         0.3000 
    221 H221       -6.3151  -21.4857  -46.6810 H         1 UNK         0.0600 
    222 H222       -5.5015  -19.4874  -45.4879 H         1 UNK         0.0600 
    223 H223       -7.1170  -18.7969  -45.4559 H         1 UNK         0.0600 
    224 H224       -6.7630  -20.2691  -44.5532 H         1 UNK         0.0600 
    225 H225       -7.9964  -21.0368  -49.0245 H         1 UNK         0.3000 
    226 H226       -7.0394  -18.7628  -50.5039 H         1 UNK         0.0600 
    227 H227       -9.1364  -19.9342  -51.0935 H         1 UNK         0.0600 
    228 H228       -8.0113  -20.0187  -52.4425 H         1 UNK         0.0600 
    229 H229       -8.2580  -21.4259  -51.4141 H         1 UNK         0.0600 
    230 H230       -4.9068  -18.4949  -50.8854 H         1 UNK         0.3000 
    231 H231       -2.9011  -20.4066  -50.6790 H         1 UNK         0.0600 
    232 H232       -1.4505  -18.6069  -51.6399 H         1 UNK         0.0600 
    233 H233       -2.5580  -17.9530  -50.4425 H         1 UNK         0.0600 
    234 H234       -2.8761  -17.7196  -52.1598 H         1 UNK         0.0600 
    235 H235       -1.8946  -21.8396  -52.0329 H         1 UNK         0.3000 
    236 H236       -3.0377  -22.3714  -54.6568 H         1 UNK         0.0600 
    237 H237       -0.6665  -23.6575  -53.2009 H         1 UNK         0.0600 
    238 H238       -2.3457  -24.1806  -53.0585 H         1 UNK         0.0600 
    239 H239       -1.5100  -24.3079  -54.5994 H         1 UNK         0.0600 
    240 H240       -0.3960  -20.4981  -53.4532 H         1 UNK         0.3000 
    241 H241        1.3066  -20.6408  -55.7649 H         1 UNK         0.0600 
    242 H242       -1.2658  -17.6939  -56.6910 H         1 UNK         0.3800 
    243 H243       -1.6422  -18.9144  -55.5024 H         1 UNK         0.3800 
    244 H244        1.4587  -18.5734  -53.5260 H         1 UNK         0.0800 
    245 H245        2.7229  -19.0179  -54.6357 H         1 UNK         0.0800 
    246 H246        0.8637  -19.5725  -51.5320 H         1 UNK         0.0800 
    247 H247        1.4399  -21.0384  -50.8135 H         1 UNK         0.0800 
@<TRIPOS>BOND
     1    1    2 1    
     2    1  127 1    
     3    1  128 1    
     4    1  129 1    
     5    2    3 2    
     6    2    4 am   BACKBONE|DICT|INTERRES
     7    4    5 1    
     8    4  130 1    
     9    5    6 1    
    10    5   65 1    
    11    5  131 1    
    12    6    7 1    
    13    6  132 1    
    14    6  133 1    
    15    7    8 1    
    16    8    9 1    
    17    8  134 1    
    18    8  135 1    
    19    9   10 ar   
    20    9   14 ar   
    21   10   11 ar   
    22   10  136 1    
    23   11   12 ar   
    24   11  126 1    
    25   12   13 ar   
    26   12  137 1    
    27   13   14 ar   
    28   13   15 1    
    29   14  138 1    
    30   15   16 1    
    31   15  139 1    
    32   15  140 1    
    33   16   17 1    
    34   17   18 1    
    35   17  141 1    
    36   17  142 1    
    37   18   19 1    
    38   18   67 1    
    39   18  143 1    
    40   19   20 am   BACKBONE|DICT|INTERRES
    41   19  144 1    
    42   20   21 2    
    43   20   22 1    
    44   22   23 1    
    45   22   24 1    
    46   22  145 1    
    47   23  146 1    
    48   23  147 1    
    49   23  148 1    
    50   24   25 am   BACKBONE|DICT|INTERRES
    51   24  149 1    
    52   25   26 2    
    53   25   27 1    
    54   27   28 1    
    55   27   29 1    
    56   27  150 1    
    57   28  151 1    
    58   28  152 1    
    59   28  153 1    
    60   29   30 am   BACKBONE|DICT|INTERRES
    61   29  154 1    
    62   30   31 2    
    63   30   32 1    
    64   32   33 1    
    65   32   34 1    
    66   32  155 1    
    67   33  156 1    
    68   33  157 1    
    69   33  158 1    
    70   34   35 am   BACKBONE|DICT|INTERRES
    71   34  159 1    
    72   35   36 2    
    73   35   37 1    
    74   37   38 1    
    75   37   39 1    
    76   37  160 1    
    77   38  161 1    
    78   38  162 1    
    79   38  163 1    
    80   39   40 am   BACKBONE|DICT|INTERRES
    81   39  164 1    
    82   40   41 2    
    83   40   42 1    
    84   42   43 1    
    85   42   44 1    
    86   42  165 1    
    87   43  166 1    
    88   43  167 1    
    89   43  168 1    
    90   44   45 am   BACKBONE|DICT|INTERRES
    91   44  169 1    
    92   45   46 2    
    93   45   47 1    
    94   47   48 1    
    95   47   49 1    
    96   47  170 1    
    97   48  171 1    
    98   48  172 1    
    99   48  173 1    
   100   49   50 am   BACKBONE|DICT|INTERRES
   101   49  174 1    
   102   50   51 2    
   103   50   52 1    
   104   52   53 1    
   105   52   54 1    
   106   52  175 1    
   107   53  176 1    
   108   53  177 1    
   109   53  178 1    
   110   54   55 am   BACKBONE|DICT|INTERRES
   111   54  179 1    
   112   55   56 2    
   113   55   57 1    
   114   57   58 1    
   115   57   59 1    
   116   57  180 1    
   117   58  181 1    
   118   58  182 1    
   119   58  183 1    
   120   59   60 am   BACKBONE|DICT|INTERRES
   121   59  184 1    
   122   60   61 2    
   123   60   62 1    
   124   62   63 1    
   125   62   64 1    
   126   62  185 1    
   127   63  186 1    
   128   63  187 1    
   129   63  188 1    
   130   64   65 am   BACKBONE|DICT|INTERRES
   131   64  189 1    
   132   65   66 2    
   133   67   68 2    
   134   67   69 am   BACKBONE|DICT|INTERRES
   135   69   70 1    
   136   69  190 1    
   137   70   71 1    
   138   70   72 1    
   139   70  191 1    
   140   71  192 1    
   141   71  193 1    
   142   71  194 1    
   143   72   73 2    
   144   72   74 am   BACKBONE|DICT|INTERRES
   145   74   75 1    
   146   74  195 1    
   147   75   76 1    
   148   75   77 1    
   149   75  196 1    
   150   76  197 1    
   151   76  198 1    
   152   76  199 1    
   153   77   78 2    
   154   77   79 am   BACKBONE|DICT|INTERRES
   155   79   80 1    
   156   79  200 1    
   157   80   81 1    
   158   80   82 1    
   159   80  201 1    
   160   81  202 1    
   161   81  203 1    
   162   81  204 1    
   163   82   83 2    
   164   82   84 am   BACKBONE|DICT|INTERRES
   165   84   85 1    
   166   84  205 1    
   167   85   86 1    
   168   85   87 1    
   169   85  206 1    
   170   86  207 1    
   171   86  208 1    
   172   86  209 1    
   173   87   88 2    
   174   87   89 am   BACKBONE|DICT|INTERRES
   175   89   90 1    
   176   89  210 1    
   177   90   91 1    
   178   90   92 1    
   179   90  211 1    
   180   91  212 1    
   181   91  213 1    
   182   91  214 1    
   183   92   93 2    
   184   92   94 am   BACKBONE|DICT|INTERRES
   185   94   95 1    
   186   94  215 1    
   187   95   96 1    
   188   95   97 1    
   189   95  216 1    
   190   96  217 1    
   191   96  218 1    
   192   96  219 1    
   193   97   98 2    
   194   97   99 am   BACKBONE|DICT|INTERRES
   195   99  100 1    
   196   99  220 1    
   197  100  101 1    
   198  100  102 1    
   199  100  221 1    
   200  101  222 1    
   201  101  223 1    
   202  101  224 1    
   203  102  103 2    
   204  102  104 am   BACKBONE|DICT|INTERRES
   205  104  105 1    
   206  104  225 1    
   207  105  106 1    
   208  105  107 1    
   209  105  226 1    
   210  106  227 1    
   211  106  228 1    
   212  106  229 1    
   213  107  108 2    
   214  107  109 am   BACKBONE|DICT|INTERRES
   215  109  110 1    
   216  109  230 1    
   217  110  111 1    
   218  110  112 1    
   219  110  231 1    
   220  111  232 1    
   221  111  233 1    
   222  111  234 1    
   223  112  113 2    
   224  112  114 am   BACKBONE|DICT|INTERRES
   225  114  115 1    
   226  114  235 1    
   227  115  116 1    
   228  115  117 1    
   229  115  236 1    
   230  116  237 1    
   231  116  238 1    
   232  116  239 1    
   233  117  118 2    
   234  117  119 am   BACKBONE|DICT|INTERRES
   235  119  120 1    
   236  119  240 1    
   237  120  121 1    
   238  120  124 1    
   239  120  241 1    
   240  121  122 am   BACKBONE|DICT|INTERRES
   241  121  123 2    
   242  122  242 1    
   243  122  243 1    
   244  124  125 1    
   245  124  244 1    
   246  124  245 1    
   247  125  126 1    
   248  126  246 1    
   249  126  247 1    
@<TRIPOS>SUBSTRUCTURE
     1 UNK         1 GROUP             0       ****    0 ROOT    
