@<TRIPOS>MOLECULE
3R540
247   249    1
SMALL
USER_CHARGES


@<TRIPOS>ATOM
      1 CA         -3.1321  -11.1099  -48.4480 C.3       0 UNK        -0.1800 
      2 C          -2.2400  -12.2723  -48.0362 C.2       0 UNK         0.5000 
      3 O          -1.7855  -12.3155  -46.8934 O.2       0 UNK        -0.5000 
      4 N          -1.9959  -13.2061  -48.9656 N.am      1 UNK        -0.5000 
      5 CA         -1.1610  -14.4022  -48.8089 C.3       1 UNK         0.1400 
      6 C6         -1.7312  -15.4365  -47.7991 C.3       23 UNK        -0.0398 
      7 S7         -3.3876  -16.0204  -48.3157 S.3       23 UNK        -0.2404 
      8 C8         -3.2091  -17.8389  -48.4370 C.3       23 UNK        -0.0205 
      9 C9         -2.0222  -18.3288  -49.2621 C.ar      23 UNK        -0.0193 
     10 C10        -1.6021  -17.6647  -50.4185 C.ar      23 UNK        -0.1150 
     11 C11        -0.4851  -18.1087  -51.1325 C.ar      23 UNK        -0.0193 
     12 C12         0.1930  -19.2527  -50.7056 C.ar      23 UNK        -0.1150 
     13 C13        -0.2507  -19.9614  -49.5856 C.ar      23 UNK        -0.0193 
     14 C14        -1.3535  -19.4903  -48.8669 C.ar      23 UNK        -0.1150 
     15 C15         0.4093  -21.2784  -49.2087 C.3       23 UNK        -0.0205 
     16 S16         1.7194  -21.1096  -47.9524 S.3       23 UNK        -0.2404 
     17 C17         0.7852  -20.9270  -46.3937 C.3       23 UNK        -0.0398 
     18 CA          0.4928  -22.2537  -45.6591 C.3       11 UNK         0.1400 
     19 N           0.1277  -22.0133  -44.2636 N.am      11 UNK        -0.5000 
     20 C           0.0648  -22.9617  -43.3202 C.2       10 UNK         0.5000 
     21 O           0.3555  -24.1425  -43.5118 O.2       10 UNK        -0.5000 
     22 CA         -0.4550  -22.5161  -41.9438 C.3       10 UNK         0.1400 
     23 CB          0.6543  -21.8307  -41.1314 C.3       10 UNK        -0.1800 
     24 N          -1.6035  -21.6175  -42.0656 N.am      10 UNK        -0.5000 
     25 C          -2.8172  -22.0029  -42.4844 C.2       9 UNK         0.5000 
     26 O          -3.1012  -23.1621  -42.7843 O.2       9 UNK        -0.5000 
     27 CA         -3.8896  -20.9065  -42.6106 C.3       9 UNK         0.1400 
     28 CB         -4.6203  -20.7110  -41.2738 C.3       9 UNK        -0.1800 
     29 N          -3.3585  -19.6197  -43.0629 N.am      9 UNK        -0.5000 
     30 C          -2.8343  -19.3980  -44.2756 C.2       8 UNK         0.5000 
     31 O          -2.6745  -20.2664  -45.1311 O.2       8 UNK        -0.5000 
     32 CA         -2.3721  -17.9641  -44.5669 C.3       8 UNK         0.1400 
     33 CB         -3.5788  -17.0297  -44.7488 C.3       8 UNK        -0.1800 
     34 N          -1.4896  -17.4034  -43.5478 N.am      8 UNK        -0.5000 
     35 C          -0.3567  -17.9414  -43.0787 C.2       7 UNK         0.5000 
     36 O           0.0265  -19.0838  -43.3445 O.2       7 UNK        -0.5000 
     37 CA          0.5038  -16.9976  -42.2135 C.3       7 UNK         0.1400 
     38 CB          1.7858  -17.6696  -41.6921 C.3       7 UNK        -0.1800 
     39 N           0.8504  -15.7877  -42.9718 N.am      7 UNK        -0.5000 
     40 C           0.0485  -14.7195  -43.1181 C.2       6 UNK         0.5000 
     41 O          -1.0485  -14.6403  -42.5624 O.2       6 UNK        -0.5000 
     42 CA          0.4677  -13.5891  -44.0843 C.3       6 UNK         0.1400 
     43 CB          0.3596  -12.1953  -43.4330 C.3       6 UNK        -0.1800 
     44 N           1.7652  -13.7822  -44.7371 N.am      6 UNK        -0.5000 
     45 C           2.9903  -13.7260  -44.1915 C.2       5 UNK         0.5000 
     46 O           3.2093  -13.4444  -43.0126 O.2       5 UNK        -0.5000 
     47 CA          4.1558  -14.1000  -45.1341 C.3       5 UNK         0.1400 
     48 CB          5.4693  -14.4120  -44.3875 C.3       5 UNK        -0.1800 
     49 N           3.7929  -15.1967  -46.0391 N.am      5 UNK        -0.5000 
     50 C           3.3814  -16.4265  -45.6876 C.2       4 UNK         0.5000 
     51 O           3.3755  -16.8319  -44.5268 O.2       4 UNK        -0.5000 
     52 CA          2.7971  -17.3301  -46.7897 C.3       4 UNK         0.1400 
     53 CB          1.2995  -17.5505  -46.5247 C.3       4 UNK        -0.1800 
     54 N           2.9533  -16.7558  -48.1237 N.am      4 UNK        -0.5000 
     55 C           4.0656  -16.8330  -48.8656 C.2       3 UNK         0.5000 
     56 O           5.0611  -17.4815  -48.5430 O.2       3 UNK        -0.5000 
     57 CA          4.0802  -16.0170  -50.1723 C.3       3 UNK         0.1400 
     58 CB          3.7493  -16.9231  -51.3674 C.3       3 UNK        -0.1800 
     59 N           3.1592  -14.8733  -50.1466 N.am      3 UNK        -0.5000 
     60 C           3.3309  -13.7800  -49.3887 C.2       2 UNK         0.5000 
     61 O           4.2846  -13.6268  -48.6256 O.2       2 UNK        -0.5000 
     62 CA          2.2347  -12.6996  -49.4488 C.3       2 UNK         0.1400 
     63 CB          2.4542  -11.7780  -50.6572 C.3       2 UNK        -0.1800 
     64 N           0.8725  -13.2335  -49.4934 N.am      2 UNK        -0.5000 
     65 C           0.3115  -14.0115  -48.5553 C.2       1 UNK         0.5000 
     66 O           0.9009  -14.3854  -47.5388 O.2       1 UNK        -0.5000 
     67 C          -0.5757  -23.1041  -46.3752 C.2       11 UNK         0.5000 
     68 O          -0.2253  -24.0958  -47.0137 O.2       11 UNK        -0.5000 
     69 N          -1.8562  -22.7331  -46.2255 N.am      12 UNK        -0.5000 
     70 CA         -3.0077  -23.4017  -46.8407 C.3       12 UNK         0.1400 
     71 CB         -4.2713  -22.5660  -46.5924 C.3       12 UNK        -0.1800 
     72 C          -3.2280  -24.8544  -46.3740 C.2       12 UNK         0.5000 
     73 O          -3.8694  -25.6265  -47.0877 O.2       12 UNK        -0.5000 
     74 N          -2.7034  -25.2076  -45.1935 N.am      13 UNK        -0.5000 
     75 CA         -2.6931  -26.5746  -44.6759 C.3       13 UNK         0.1400 
     76 CB         -2.4540  -26.5387  -43.1590 C.3       13 UNK        -0.1800 
     77 C          -1.6399  -27.4617  -45.3687 C.2       13 UNK         0.5000 
     78 O          -1.8493  -28.6707  -45.4735 O.2       13 UNK        -0.5000 
     79 N          -0.5319  -26.8576  -45.8196 N.am      14 UNK        -0.5000 
     80 CA          0.5625  -27.5370  -46.5103 C.3       14 UNK         0.1400 
     81 CB          1.8899  -26.8368  -46.1742 C.3       14 UNK        -0.1800 
     82 C           0.3157  -27.5676  -48.0267 C.2       14 UNK         0.5000 
     83 O           0.3033  -28.6436  -48.6259 O.2       14 UNK        -0.5000 
     84 N           0.0993  -26.3855  -48.6128 N.am      15 UNK        -0.5000 
     85 CA         -0.2596  -26.1850  -50.0109 C.3       15 UNK         0.1400 
     86 CB          0.4883  -24.9511  -50.5423 C.3       15 UNK        -0.1800 
     87 C          -1.7827  -26.0143  -50.0648 C.2       15 UNK         0.5000 
     88 O          -2.2691  -24.8913  -49.9380 O.2       15 UNK        -0.5000 
     89 N          -2.4798  -27.1543  -50.1763 N.am      16 UNK        -0.5000 
     90 CA         -3.9227  -27.3704  -50.0212 C.3       16 UNK         0.1400 
     91 CB         -4.3000  -28.6876  -50.7192 C.3       16 UNK        -0.1800 
     92 C          -4.8337  -26.2201  -50.4976 C.2       16 UNK         0.5000 
     93 O          -4.9716  -25.9982  -51.7029 O.2       16 UNK        -0.5000 
     94 N          -5.4243  -25.5154  -49.5244 N.am      17 UNK        -0.5000 
     95 CA         -6.3744  -24.4010  -49.6180 C.3       17 UNK         0.1400 
     96 CB         -7.6370  -24.7930  -50.4088 C.3       17 UNK        -0.1800 
     97 C          -5.7792  -23.0812  -50.1429 C.2       17 UNK         0.5000 
     98 O          -6.1163  -22.0260  -49.6064 O.2       17 UNK        -0.5000 
     99 N          -4.9360  -23.1475  -51.1814 N.am      18 UNK        -0.5000 
    100 CA        -4.1885  -22.0703  -51.8519 C.3       18 UNK         0.1400 
    101 CB        -3.2006  -21.4101  -50.8754 C.3       18 UNK        -0.1800 
    102 C         -5.0333  -20.9965  -52.5763 C.2       18 UNK         0.5000 
    103 O         -4.5233  -20.3580  -53.4977 O.2       18 UNK        -0.5000 
    104 N         -6.2914  -20.8041  -52.1560 N.am      19 UNK        -0.5000 
    105 CA        -7.3150  -19.9054  -52.7069 C.3       19 UNK         0.1400 
    106 CB        -7.6842  -20.3246  -54.1452 C.3       19 UNK        -0.1800 
    107 C         -6.9747  -18.4015  -52.6057 C.2       19 UNK         0.5000 
    108 O         -7.6141  -17.5909  -53.2779 O.2       19 UNK        -0.5000 
    109 N         -5.9847  -18.0562  -51.7672 N.am      20 UNK        -0.5000 
    110 CA        -5.4399  -16.7124  -51.5366 C.3       20 UNK         0.1400 
    111 CB        -6.4544  -15.8315  -50.7804 C.3       20 UNK        -0.1800 
    112 C         -4.8932  -16.0446  -52.8173 C.2       20 UNK         0.5000 
    113 O         -4.9990  -14.8269  -52.9786 O.2       20 UNK        -0.5000 
    114 N         -4.2972  -16.8603  -53.7005 N.am      21 UNK        -0.5000 
    115 CA        -3.8145  -16.4910  -55.0372 C.3       21 UNK         0.1400 
    116 CB        -3.3268  -17.7667  -55.7415 C.3       21 UNK        -0.1800 
    117 C         -2.7182  -15.4038  -55.0763 C.2       21 UNK         0.5000 
    118 O         -2.4728  -14.8333  -56.1400 O.2       21 UNK        -0.5000 
    119 N         -2.0884  -15.1398  -53.9284 N.am      22 UNK        -0.5000 
    120 CA        -1.0593  -14.1161  -53.7121 C.3       22 UNK         0.1400 
    121 C         -1.4724  -13.0785  -52.6235 C.2       22 UNK         0.5000 
    122 N         -2.7556  -12.9297  -52.3084 N.am      22 UNK        -0.7600 
    123 O         -0.6271  -12.3982  -52.0484 O.2       22 UNK        -0.5000 
    124 C124        0.3356  -14.7628  -53.4956 C.3       23 UNK        -0.0398 
    125 S125        0.4987  -15.6713  -51.9245 S.3       23 UNK        -0.2404 
    126 C126       -0.0283  -17.3529  -52.3696 C.3       23 UNK        -0.0205 
    127 H127       -2.5823  -10.1716  -48.3741 H         1 UNK         0.0600 
    128 H128       -3.9987  -11.0515  -47.7895 H         1 UNK         0.0600 
    129 H129       -3.4908  -11.2145  -49.4720 H         1 UNK         0.0600 
    130 H130       -2.4004  -13.0984  -49.8838 H         1 UNK         0.3000 
    131 H131       -1.1683  -14.8811  -49.7853 H         1 UNK         0.0600 
    132 H132       -1.0657  -16.2947  -47.7202 H         1 UNK         0.0800 
    133 H133       -1.7985  -15.0098  -46.7980 H         1 UNK         0.0800 
    134 H134       -3.1480  -18.2453  -47.4286 H         1 UNK         0.0800 
    135 H135       -4.1221  -18.2498  -48.8685 H         1 UNK         0.0800 
    136 H136       -2.1293  -16.7857  -50.7569 H         1 UNK         0.1150 
    137 H137        1.0463  -19.6120  -51.2634 H         1 UNK         0.1150 
    138 H138       -1.7159  -20.0451  -48.0136 H         1 UNK         0.1150 
    139 H139       -0.3513  -21.9864  -48.8834 H         1 UNK         0.0800 
    140 H140        0.8563  -21.7218  -50.0994 H         1 UNK         0.0800 
    141 H141       -0.1189  -20.3384  -46.5364 H         1 UNK         0.0800 
    142 H142        1.4241  -20.3263  -45.7471 H         1 UNK         0.0800 
    143 H143        1.4167  -22.8368  -45.6490 H         1 UNK         0.0600 
    144 H144       -0.1111  -21.0602  -44.0090 H         1 UNK         0.3000 
    145 H145       -0.7732  -23.4083  -41.4000 H         1 UNK         0.0600 
    146 H146        0.3003  -21.5476  -40.1401 H         1 UNK         0.0600 
    147 H147        1.5046  -22.4998  -40.9941 H         1 UNK         0.0600 
    148 H148        1.0231  -20.9316  -41.6257 H         1 UNK         0.0600 
    149 H149       -1.4382  -20.6369  -41.8917 H         1 UNK         0.3000 
    150 H150       -4.6194  -21.2445  -43.3490 H         1 UNK         0.0600 
    151 H151       -5.4414  -20.0008  -41.3731 H         1 UNK         0.0600 
    152 H152       -5.0466  -21.6511  -40.9209 H         1 UNK         0.0600 
    153 H153       -3.9489  -20.3428  -40.4971 H         1 UNK         0.0600 
    154 H154       -3.4249  -18.8461  -42.4179 H         1 UNK         0.3000 
    155 H155       -1.8060  -17.9848  -45.5000 H         1 UNK         0.0600 
    156 H156       -4.1302  -16.8962  -43.8174 H         1 UNK         0.0600 
    157 H157       -4.2789  -17.4231  -45.4866 H         1 UNK         0.0600 
    158 H158       -3.2663  -16.0436  -45.0918 H         1 UNK         0.0600 
    159 H159       -1.6941  -16.4545  -43.2535 H         1 UNK         0.3000 
    160 H160       -0.0920  -16.7172  -41.3425 H         1 UNK         0.0600 
    161 H161        2.3916  -18.0779  -42.5006 H         1 UNK         0.0600 
    162 H162        1.5437  -18.4948  -41.0217 H         1 UNK         0.0600 
    163 H163        2.4023  -16.9660  -41.1326 H         1 UNK         0.0600 
    164 H164        1.7252  -15.8214  -43.4813 H         1 UNK         0.3000 
    165 H165       -0.2613  -13.6192  -44.8955 H         1 UNK         0.0600 
    166 H166        0.6361  -11.4095  -44.1360 H         1 UNK         0.0600 
    167 H167       -0.6632  -11.9946  -43.1123 H         1 UNK         0.0600 
    168 H168        0.9974  -12.1033  -42.5539 H         1 UNK         0.0600 
    169 H169        1.6970  -14.0376  -45.7187 H         1 UNK         0.3000 
    170 H170        4.3321  -13.2269  -45.7638 H         1 UNK         0.0600 
    171 H171        5.8095  -13.5458  -43.8190 H         1 UNK         0.0600 
    172 H172        5.3528  -15.2375  -43.6848 H         1 UNK         0.0600 
    173 H173        6.2649  -14.6746  -45.0848 H         1 UNK         0.0600 
    174 H174        3.7665  -14.9479  -47.0205 H         1 UNK         0.3000 
    175 H175        3.3043  -18.2963  -46.7489 H         1 UNK         0.0600 
    176 H176        0.7680  -16.6121  -46.3832 H         1 UNK         0.0600 
    177 H177        0.8213  -18.0957  -47.3380 H         1 UNK         0.0600 
    178 H178        1.1540  -18.1197  -45.6094 H         1 UNK         0.0600 
    179 H179        2.1954  -16.1730  -48.4498 H         1 UNK         0.3000 
    180 H180        5.0918  -15.6295  -50.3102 H         1 UNK         0.0600 
    181 H181        2.7901  -17.4244  -51.2370 H         1 UNK         0.0600 
    182 H182        4.5055  -17.7001  -51.4849 H         1 UNK         0.0600 
    183 H183        3.7144  -16.3590  -52.2996 H         1 UNK         0.0600 
    184 H184        2.3362  -14.9386  -50.7324 H         1 UNK         0.3000 
    185 H185        2.3185  -12.0975  -48.5418 H         1 UNK         0.0600 
    186 H186        3.4551  -11.3446  -50.6442 H         1 UNK         0.0600 
    187 H187        2.3392  -12.3165  -51.5989 H         1 UNK         0.0600 
    188 H188        1.7421  -10.9525  -50.6571 H         1 UNK         0.0600 
    189 H189        0.3159  -12.9597  -50.2974 H         1 UNK         0.3000 
    190 H190       -2.0693  -21.8899  -45.6954 H         1 UNK         0.3000 
    191 H191       -2.8332  -23.4278  -47.9166 H         1 UNK         0.0600 
    192 H192       -4.1852  -21.5782  -47.0461 H         1 UNK         0.0600 
    193 H193       -5.1513  -23.0422  -47.0242 H         1 UNK         0.0600 
    194 H194       -4.4604  -22.4346  -45.5269 H         1 UNK         0.0600 
    195 H195       -2.2523  -24.4998  -44.6296 H         1 UNK         0.3000 
    196 H196       -3.6735  -27.0224  -44.8522 H         1 UNK         0.0600 
    197 H197       -2.4571  -27.5451  -42.7385 H         1 UNK         0.0600 
    198 H198       -3.2345  -25.9723  -42.6507 H         1 UNK         0.0600 
    199 H199       -1.4949  -26.0823  -42.9125 H         1 UNK         0.0600 
    200 H200       -0.4620  -25.8504  -45.7468 H         1 UNK         0.3000 
    201 H201        0.6344  -28.5687  -46.1590 H         1 UNK         0.0600 
    202 H202        2.0915  -26.8745  -45.1035 H         1 UNK         0.0600 
    203 H203        1.8880  -25.7881  -46.4734 H         1 UNK         0.0600 
    204 H204        2.7256  -27.3217  -46.6803 H         1 UNK         0.0600 
    205 H205        0.0525  -25.5522  -48.0276 H         1 UNK         0.3000 
    206 H206        0.0285  -27.0452  -50.6189 H         1 UNK         0.0600 
    207 H207        1.5664  -25.1115  -50.5337 H         1 UNK         0.0600 
    208 H208        0.1968  -24.7280  -51.5692 H         1 UNK         0.0600 
    209 H209        0.2798  -24.0684  -49.9394 H         1 UNK         0.0600 
    210 H210       -1.9386  -28.0029  -50.2586 H         1 UNK         0.3000 
    211 H211       -4.0950  -27.5167  -48.9537 H         1 UNK         0.0600 
    212 H212       -4.0692  -28.6570  -51.7848 H         1 UNK         0.0600 
    213 H213       -5.3670  -28.8921  -50.6200 H         1 UNK         0.0600 
    214 H214       -3.7674  -29.5336  -50.2844 H         1 UNK         0.0600 
    215 H215       -5.1065  -25.7118  -48.5783 H         1 UNK         0.3000 
    216 H216       -6.6877  -24.2087  -48.5908 H         1 UNK         0.0600 
    217 H217       -8.3832  -23.9987  -50.3657 H         1 UNK         0.0600 
    218 H218       -8.0963  -25.6923  -49.9983 H         1 UNK         0.0600 
    219 H219       -7.4213  -24.9763  -51.4617 H         1 UNK         0.0600 
    220 H220       -4.7675  -24.0800  -51.5492 H         1 UNK         0.3000 
    221 H221       -3.6005  -22.5649  -52.6262 H         1 UNK         0.0600 
    222 H222       -3.7127  -20.8893  -50.0662 H         1 UNK         0.0600 
    223 H223       -2.5342  -22.1480  -50.4286 H         1 UNK         0.0600 
    224 H224       -2.5757  -20.6791  -51.3900 H         1 UNK         0.0600 
    225 H225       -6.5583  -21.3096  -51.3164 H         1 UNK         0.3000 
    226 H226       -8.2005  -20.0499  -52.0867 H         1 UNK         0.0600 
    227 H227       -7.9326  -21.3847  -54.1957 H         1 UNK         0.0600 
    228 H228       -8.5535  -19.7729  -54.5049 H         1 UNK         0.0600 
    229 H229       -6.8680  -20.1370  -54.8436 H         1 UNK         0.0600 
    230 H230       -5.5311  -18.8070  -51.2670 H         1 UNK         0.3000 
    231 H231       -4.5766  -16.8468  -50.8876 H         1 UNK         0.0600 
    232 H232       -7.3306  -15.6080  -51.3895 H         1 UNK         0.0600 
    233 H233       -6.7941  -16.3193  -49.8668 H         1 UNK         0.0600 
    234 H234       -6.0055  -14.8811  -50.4888 H         1 UNK         0.0600 
    235 H235       -4.2696  -17.8484  -53.4842 H         1 UNK         0.3000 
    236 H236       -4.6686  -16.0993  -55.5929 H         1 UNK         0.0600 
    237 H237       -4.1241  -18.5070  -55.8136 H         1 UNK         0.0600 
    238 H238       -2.9909  -17.5535  -56.7571 H         1 UNK         0.0600 
    239 H239       -2.4929  -18.2247  -55.2078 H         1 UNK         0.0600 
    240 H240       -2.3813  -15.6408  -53.1041 H         1 UNK         0.3000 
    241 H241       -0.9757  -13.5114  -54.6163 H         1 UNK         0.0600 
    242 H242       -3.4738  -13.4889  -52.7573 H         1 UNK         0.3800 
    243 H243       -3.0293  -12.1826  -51.6935 H         1 UNK         0.3800 
    244 H244        0.5726  -15.4318  -54.3239 H         1 UNK         0.0800 
    245 H245        1.1060  -13.9904  -53.5140 H         1 UNK         0.0800 
    246 H246       -0.8474  -17.3289  -53.0869 H         1 UNK         0.0800 
    247 H247        0.7983  -17.8657  -52.8634 H         1 UNK         0.0800 
@<TRIPOS>BOND
     1    1    2 1    
     2    1  127 1    
     3    1  128 1    
     4    1  129 1    
     5    2    3 2    
     6    2    4 am   BACKBONE|DICT|INTERRES
     7    4    5 1    
     8    4  130 1    
     9    5    6 1    
    10    5   65 1    
    11    5  131 1    
    12    6    7 1    
    13    6  132 1    
    14    6  133 1    
    15    7    8 1    
    16    8    9 1    
    17    8  134 1    
    18    8  135 1    
    19    9   10 ar   
    20    9   14 ar   
    21   10   11 ar   
    22   10  136 1    
    23   11   12 ar   
    24   11  126 1    
    25   12   13 ar   
    26   12  137 1    
    27   13   14 ar   
    28   13   15 1    
    29   14  138 1    
    30   15   16 1    
    31   15  139 1    
    32   15  140 1    
    33   16   17 1    
    34   17   18 1    
    35   17  141 1    
    36   17  142 1    
    37   18   19 1    
    38   18   67 1    
    39   18  143 1    
    40   19   20 am   BACKBONE|DICT|INTERRES
    41   19  144 1    
    42   20   21 2    
    43   20   22 1    
    44   22   23 1    
    45   22   24 1    
    46   22  145 1    
    47   23  146 1    
    48   23  147 1    
    49   23  148 1    
    50   24   25 am   BACKBONE|DICT|INTERRES
    51   24  149 1    
    52   25   26 2    
    53   25   27 1    
    54   27   28 1    
    55   27   29 1    
    56   27  150 1    
    57   28  151 1    
    58   28  152 1    
    59   28  153 1    
    60   29   30 am   BACKBONE|DICT|INTERRES
    61   29  154 1    
    62   30   31 2    
    63   30   32 1    
    64   32   33 1    
    65   32   34 1    
    66   32  155 1    
    67   33  156 1    
    68   33  157 1    
    69   33  158 1    
    70   34   35 am   BACKBONE|DICT|INTERRES
    71   34  159 1    
    72   35   36 2    
    73   35   37 1    
    74   37   38 1    
    75   37   39 1    
    76   37  160 1    
    77   38  161 1    
    78   38  162 1    
    79   38  163 1    
    80   39   40 am   BACKBONE|DICT|INTERRES
    81   39  164 1    
    82   40   41 2    
    83   40   42 1    
    84   42   43 1    
    85   42   44 1    
    86   42  165 1    
    87   43  166 1    
    88   43  167 1    
    89   43  168 1    
    90   44   45 am   BACKBONE|DICT|INTERRES
    91   44  169 1    
    92   45   46 2    
    93   45   47 1    
    94   47   48 1    
    95   47   49 1    
    96   47  170 1    
    97   48  171 1    
    98   48  172 1    
    99   48  173 1    
   100   49   50 am   BACKBONE|DICT|INTERRES
   101   49  174 1    
   102   50   51 2    
   103   50   52 1    
   104   52   53 1    
   105   52   54 1    
   106   52  175 1    
   107   53  176 1    
   108   53  177 1    
   109   53  178 1    
   110   54   55 am   BACKBONE|DICT|INTERRES
   111   54  179 1    
   112   55   56 2    
   113   55   57 1    
   114   57   58 1    
   115   57   59 1    
   116   57  180 1    
   117   58  181 1    
   118   58  182 1    
   119   58  183 1    
   120   59   60 am   BACKBONE|DICT|INTERRES
   121   59  184 1    
   122   60   61 2    
   123   60   62 1    
   124   62   63 1    
   125   62   64 1    
   126   62  185 1    
   127   63  186 1    
   128   63  187 1    
   129   63  188 1    
   130   64   65 am   BACKBONE|DICT|INTERRES
   131   64  189 1    
   132   65   66 2    
   133   67   68 2    
   134   67   69 am   BACKBONE|DICT|INTERRES
   135   69   70 1    
   136   69  190 1    
   137   70   71 1    
   138   70   72 1    
   139   70  191 1    
   140   71  192 1    
   141   71  193 1    
   142   71  194 1    
   143   72   73 2    
   144   72   74 am   BACKBONE|DICT|INTERRES
   145   74   75 1    
   146   74  195 1    
   147   75   76 1    
   148   75   77 1    
   149   75  196 1    
   150   76  197 1    
   151   76  198 1    
   152   76  199 1    
   153   77   78 2    
   154   77   79 am   BACKBONE|DICT|INTERRES
   155   79   80 1    
   156   79  200 1    
   157   80   81 1    
   158   80   82 1    
   159   80  201 1    
   160   81  202 1    
   161   81  203 1    
   162   81  204 1    
   163   82   83 2    
   164   82   84 am   BACKBONE|DICT|INTERRES
   165   84   85 1    
   166   84  205 1    
   167   85   86 1    
   168   85   87 1    
   169   85  206 1    
   170   86  207 1    
   171   86  208 1    
   172   86  209 1    
   173   87   88 2    
   174   87   89 am   BACKBONE|DICT|INTERRES
   175   89   90 1    
   176   89  210 1    
   177   90   91 1    
   178   90   92 1    
   179   90  211 1    
   180   91  212 1    
   181   91  213 1    
   182   91  214 1    
   183   92   93 2    
   184   92   94 am   BACKBONE|DICT|INTERRES
   185   94   95 1    
   186   94  215 1    
   187   95   96 1    
   188   95   97 1    
   189   95  216 1    
   190   96  217 1    
   191   96  218 1    
   192   96  219 1    
   193   97   98 2    
   194   97   99 am   BACKBONE|DICT|INTERRES
   195   99  100 1    
   196   99  220 1    
   197  100  101 1    
   198  100  102 1    
   199  100  221 1    
   200  101  222 1    
   201  101  223 1    
   202  101  224 1    
   203  102  103 2    
   204  102  104 am   BACKBONE|DICT|INTERRES
   205  104  105 1    
   206  104  225 1    
   207  105  106 1    
   208  105  107 1    
   209  105  226 1    
   210  106  227 1    
   211  106  228 1    
   212  106  229 1    
   213  107  108 2    
   214  107  109 am   BACKBONE|DICT|INTERRES
   215  109  110 1    
   216  109  230 1    
   217  110  111 1    
   218  110  112 1    
   219  110  231 1    
   220  111  232 1    
   221  111  233 1    
   222  111  234 1    
   223  112  113 2    
   224  112  114 am   BACKBONE|DICT|INTERRES
   225  114  115 1    
   226  114  235 1    
   227  115  116 1    
   228  115  117 1    
   229  115  236 1    
   230  116  237 1    
   231  116  238 1    
   232  116  239 1    
   233  117  118 2    
   234  117  119 am   BACKBONE|DICT|INTERRES
   235  119  120 1    
   236  119  240 1    
   237  120  121 1    
   238  120  124 1    
   239  120  241 1    
   240  121  122 am   BACKBONE|DICT|INTERRES
   241  121  123 2    
   242  122  242 1    
   243  122  243 1    
   244  124  125 1    
   245  124  244 1    
   246  124  245 1    
   247  125  126 1    
   248  126  246 1    
   249  126  247 1    
@<TRIPOS>SUBSTRUCTURE
     1 UNK         1 GROUP             0       ****    0 ROOT    
