@<TRIPOS>MOLECULE
3R540
247   249    1
SMALL
USER_CHARGES


@<TRIPOS>ATOM
      1 CA          4.7100  -10.1791  -45.0391 C.3       0 UNK        -0.1800 
      2 C           5.0885  -11.4297  -45.8197 C.2       0 UNK         0.5000 
      3 O           6.1622  -11.4804  -46.4195 O.2       0 UNK        -0.5000 
      4 N           4.2066  -12.4360  -45.8133 N.am      1 UNK        -0.5000 
      5 CA          4.4185  -13.7456  -46.4414 C.3       1 UNK         0.1400 
      6 C6          3.0817  -14.4735  -46.7207 C.3       23 UNK        -0.0398 
      7 S7          2.0684  -13.5819  -47.9448 S.3       23 UNK        -0.2404 
      8 C8          2.7919  -14.1615  -49.5111 C.3       23 UNK        -0.0205 
      9 C9          2.2554  -15.5185  -49.9422 C.ar      23 UNK        -0.0193 
     10 C10         1.1224  -15.5925  -50.7569 C.ar      23 UNK        -0.1150 
     11 C11         0.6677  -16.8257  -51.2320 C.ar      23 UNK        -0.0193 
     12 C12         1.3407  -17.9938  -50.8673 C.ar      23 UNK        -0.1150 
     13 C13         2.4605  -17.9365  -50.0319 C.ar      23 UNK        -0.0193 
     14 C14         2.9186  -16.6952  -49.5808 C.ar      23 UNK        -0.1150 
     15 C15         3.1937  -19.2107  -49.6391 C.3       23 UNK        -0.0205 
     16 S16         2.4992  -19.9533  -48.1293 S.3       23 UNK        -0.2404 
     17 C17         0.9025  -20.5720  -48.7531 C.3       23 UNK        -0.0398 
     18 CA          0.3120  -21.6999  -47.8786 C.3       11 UNK         0.1400 
     19 N          -0.0222  -21.2574  -46.5203 N.am      11 UNK        -0.5000 
     20 C          -0.4107  -22.0729  -45.5292 C.2       10 UNK         0.5000 
     21 O          -0.4427  -23.2982  -45.6297 O.2       10 UNK        -0.5000 
     22 CA         -0.9180  -21.4125  -44.2345 C.3       10 UNK         0.1400 
     23 CB          0.2390  -21.0795  -43.2804 C.3       10 UNK        -0.1800 
     24 N          -1.7109  -20.2142  -44.5144 N.am      10 UNK        -0.5000 
     25 C          -2.9246  -20.2379  -45.0852 C.2       9 UNK         0.5000 
     26 O          -3.5263  -21.2762  -45.3552 O.2       9 UNK        -0.5000 
     27 CA         -3.5529  -18.8842  -45.4617 C.3       9 UNK         0.1400 
     28 CB         -4.4014  -18.3382  -44.3044 C.3       9 UNK        -0.1800 
     29 N          -2.5462  -17.8961  -45.8530 N.am      9 UNK        -0.5000 
     30 C          -1.8557  -17.9494  -47.0037 C.2       8 UNK         0.5000 
     31 O          -2.0392  -18.8163  -47.8581 O.2       8 UNK        -0.5000 
     32 CA         -0.7389  -16.9012  -47.2058 C.3       8 UNK         0.1400 
     33 CB         -1.3165  -15.6313  -47.8458 C.3       8 UNK        -0.1800 
     34 N          -0.0579  -16.5472  -45.9559 N.am      8 UNK        -0.5000 
     35 C           0.5881  -17.4302  -45.1778 C.2       7 UNK         0.5000 
     36 O           0.7904  -18.5942  -45.5170 O.2       7 UNK        -0.5000 
     37 CA          0.9951  -16.9951  -43.7534 C.3       7 UNK         0.1400 
     38 CB          2.5151  -16.8508  -43.6105 C.3       7 UNK        -0.1800 
     39 N           0.3405  -15.7736  -43.2817 N.am      7 UNK        -0.5000 
     40 C          -0.9799  -15.6421  -43.0838 C.2       6 UNK         0.5000 
     41 O          -1.7802  -16.5641  -43.2379 O.2       6 UNK        -0.5000 
     42 CA         -1.5064  -14.2429  -42.7079 C.3       6 UNK         0.1400 
     43 CB         -1.7437  -14.1522  -41.1932 C.3       6 UNK        -0.1800 
     44 N          -0.6348  -13.1379  -43.1172 N.am      6 UNK        -0.5000 
     45 C          -0.2374  -12.8632  -44.3692 C.2       5 UNK         0.5000 
     46 O          -0.5668  -13.5307  -45.3489 O.2       5 UNK        -0.5000 
     47 CA          0.7217  -11.6686  -44.5486 C.3       5 UNK         0.1400 
     48 CB         -0.0365  -10.4416  -45.0742 C.3       5 UNK        -0.1800 
     49 N           1.4303  -11.3026  -43.3158 N.am      5 UNK        -0.5000 
     50 C           2.3722  -12.0476  -42.7239 C.2       4 UNK         0.5000 
     51 O           2.8143  -13.0957  -43.2078 O.2       4 UNK        -0.5000 
     52 CA          2.8807  -11.5471  -41.3636 C.3       4 UNK         0.1400 
     53 CB          1.7861  -11.6549  -40.2863 C.3       4 UNK        -0.1800 
     54 N           4.0275  -12.3537  -40.9702 N.am      4 UNK        -0.5000 
     55 C           5.0514  -11.9624  -40.2029 C.2       3 UNK         0.5000 
     56 O           5.1217  -10.8548  -39.6689 O.2       3 UNK        -0.5000 
     57 CA          6.1972  -12.9790  -40.0038 C.3       3 UNK         0.1400 
     58 CB          6.0688  -13.6727  -38.6388 C.3       3 UNK        -0.1800 
     59 N           6.2438  -14.0022  -41.0538 N.am      3 UNK        -0.5000 
     60 C           6.5954  -13.7678  -42.3249 C.2       2 UNK         0.5000 
     61 O           7.0214  -12.6815  -42.7207 O.2       2 UNK        -0.5000 
     62 CA          6.3750  -14.8971  -43.3430 C.3       2 UNK         0.1400 
     63 CB          5.9133  -16.2375  -42.7361 C.3       2 UNK        -0.1800 
     64 N           5.3803  -14.4020  -44.2855 N.am      2 UNK        -0.5000 
     65 C           5.3747  -14.6209  -45.6040 C.2       1 UNK         0.5000 
     66 O           6.1068  -15.4348  -46.1680 O.2       1 UNK        -0.5000 
     67 C          -0.9009  -22.3433  -48.5831 C.2       11 UNK         0.5000 
     68 O          -0.7482  -23.3960  -49.2018 O.2       11 UNK        -0.5000 
     69 N          -2.0880  -21.7331  -48.4479 N.am      12 UNK        -0.5000 
     70 CA         -3.3480  -22.2751  -48.9613 C.3       12 UNK         0.1400 
     71 CB         -4.4628  -21.2283  -48.8296 C.3       12 UNK        -0.1800 
     72 C          -3.7448  -23.6001  -48.2822 C.2       12 UNK         0.5000 
     73 O          -4.1794  -24.5240  -48.9694 O.2       12 UNK        -0.5000 
     74 N          -3.5463  -23.6946  -46.9598 N.am      13 UNK        -0.5000 
     75 CA         -3.7471  -24.9161  -46.1778 C.3       13 UNK         0.1400 
     76 CB         -3.6456  -24.6013  -44.6784 C.3       13 UNK        -0.1800 
     77 C          -2.7715  -26.0404  -46.5736 C.2       13 UNK         0.5000 
     78 O          -3.1976  -27.1871  -46.7087 O.2       13 UNK        -0.5000 
     79 N          -1.4980  -25.6928  -46.8112 N.am      14 UNK        -0.5000 
     80 CA         -0.4637  -26.5997  -47.3215 C.3       14 UNK         0.1400 
     81 CB          0.9064  -25.9086  -47.2585 C.3       14 UNK        -0.1800 
     82 C          -0.7570  -27.1085  -48.7477 C.2       14 UNK         0.5000 
     83 O          -0.4149  -28.2466  -49.0692 O.2       14 UNK        -0.5000 
     84 N          -1.4371  -26.2819  -49.5539 N.am      15 UNK        -0.5000 
     85 CA         -1.9834  -26.6260  -50.8691 C.3       15 UNK         0.1400 
     86 CB         -2.1533  -25.3365  -51.6925 C.3       15 UNK        -0.1800 
     87 C          -3.3068  -27.4237  -50.7970 C.2       15 UNK         0.5000 
     88 O          -3.9127  -27.6673  -51.8405 O.2       15 UNK        -0.5000 
     89 N          -3.7374  -27.8114  -49.5862 N.am      16 UNK        -0.5000 
     90 CA         -4.9400  -28.5847  -49.2621 C.3       16 UNK         0.1400 
     91 CB         -4.8930  -29.9878  -49.9042 C.3       16 UNK        -0.1800 
     92 C          -6.2491  -27.8231  -49.5505 C.2       16 UNK         0.5000 
     93 O          -7.2501  -28.4422  -49.9161 O.2       16 UNK        -0.5000 
     94 N          -6.2175  -26.4943  -49.3625 N.am      17 UNK        -0.5000 
     95 CA         -7.3129  -25.5422  -49.5689 C.3       17 UNK         0.1400 
     96 CB         -8.4505  -25.7788  -48.5534 C.3       17 UNK        -0.1800 
     97 C          -7.7904  -25.5106  -51.0342 C.2       17 UNK         0.5000 
     98 O          -8.9941  -25.5416  -51.3004 O.2       17 UNK        -0.5000 
     99 N          -6.8208  -25.4670  -51.9590 N.am      18 UNK        -0.5000 
    100 CA        -7.0326  -25.3764  -53.4032 C.3       18 UNK         0.1400 
    101 CB        -5.6718  -25.4492  -54.1135 C.3       18 UNK        -0.1800 
    102 C         -7.7826  -24.0937  -53.8096 C.2       18 UNK         0.5000 
    103 O         -7.5900  -23.0429  -53.1907 O.2       18 UNK        -0.5000 
    104 N         -8.6127  -24.2043  -54.8540 N.am      19 UNK        -0.5000 
    105 CA        -9.3954  -23.1057  -55.4163 C.3       19 UNK         0.1400 
    106 CB       -10.3502  -23.6574  -56.4873 C.3       19 UNK        -0.1800 
    107 C         -8.4828  -22.0101  -55.9948 C.2       19 UNK         0.5000 
    108 O         -7.7279  -22.2819  -56.9312 O.2       19 UNK        -0.5000 
    109 N         -8.5657  -20.8089  -55.4066 N.am      20 UNK        -0.5000 
    110 CA        -7.7857  -19.6118  -55.7331 C.3       20 UNK         0.1400 
    111 CB        -8.1816  -19.0657  -57.1215 C.3       20 UNK        -0.1800 
    112 C         -6.2629  -19.8150  -55.5733 C.2       20 UNK         0.5000 
    113 O         -5.4918  -19.3570  -56.4190 O.2       20 UNK        -0.5000 
    114 N         -5.8525  -20.4684  -54.4732 N.am      21 UNK        -0.5000 
    115 CA        -4.4551  -20.7683  -54.1208 C.3       21 UNK         0.1400 
    116 CB        -4.4187  -21.5062  -52.7718 C.3       21 UNK        -0.1800 
    117 C         -3.5187  -19.5402  -54.0762 C.2       21 UNK         0.5000 
    118 O         -2.3325  -19.6729  -54.3802 O.2       21 UNK        -0.5000 
    119 N         -4.0801  -18.3754  -53.7330 N.am      22 UNK        -0.5000 
    120 CA        -3.4330  -17.0554  -53.7891 C.3       22 UNK         0.1400 
    121 C         -4.1460  -16.0898  -54.7835 C.2       22 UNK         0.5000 
    122 N         -4.9164  -16.5772  -55.7491 N.am      22 UNK        -0.7600 
    123 O         -3.9899  -14.8746  -54.6993 O.2       22 UNK        -0.5000 
    124 C124       -3.2642  -16.4379  -52.3732 C.3       23 UNK        -0.0398 
    125 S125       -2.0617  -17.3352  -51.3344 S.3       23 UNK        -0.2404 
    126 C126       -0.5152  -16.8869  -52.1832 C.3       23 UNK        -0.0205 
    127 H127        3.6335  -10.1140  -44.8817 H         1 UNK         0.0600 
    128 H128        5.0236   -9.2858  -45.5793 H         1 UNK         0.0600 
    129 H129        5.2023  -10.1826  -44.0663 H         1 UNK         0.0600 
    130 H130        3.3613  -12.3509  -45.2676 H         1 UNK         0.3000 
    131 H131        4.9179  -13.5820  -47.3983 H         1 UNK         0.0600 
    132 H132        3.2440  -15.4963  -47.0600 H         1 UNK         0.0800 
    133 H133        2.4912  -14.5482  -45.8079 H         1 UNK         0.0800 
    134 H134        2.5709  -13.4231  -50.2834 H         1 UNK         0.0800 
    135 H135        3.8793  -14.1922  -49.4359 H         1 UNK         0.0800 
    136 H136        0.6111  -14.6845  -51.0448 H         1 UNK         0.1150 
    137 H137        0.9929  -18.9463  -51.2409 H         1 UNK         0.1150 
    138 H138        3.8028  -16.6475  -48.9614 H         1 UNK         0.1150 
    139 H139        3.1666  -19.9332  -50.4562 H         1 UNK         0.0800 
    140 H140        4.2486  -18.9920  -49.4666 H         1 UNK         0.0800 
    141 H141        1.0575  -20.9353  -49.7707 H         1 UNK         0.0800 
    142 H142        0.2094  -19.7338  -48.8276 H         1 UNK         0.0800 
    143 H143        1.0717  -22.4787  -47.7839 H         1 UNK         0.0600 
    144 H144        0.0598  -20.2633  -46.3309 H         1 UNK         0.3000 
    145 H145       -1.5661  -22.1300  -43.7273 H         1 UNK         0.0600 
    146 H146       -0.1229  -20.5973  -42.3722 H         1 UNK         0.0600 
    147 H147        0.7610  -21.9885  -42.9794 H         1 UNK         0.0600 
    148 H148        0.9772  -20.4232  -43.7392 H         1 UNK         0.0600 
    149 H149       -1.2652  -19.3223  -44.3601 H         1 UNK         0.3000 
    150 H150       -4.2157  -19.0481  -46.3138 H         1 UNK         0.0600 
    151 H151       -5.2225  -19.0180  -44.0735 H         1 UNK         0.0600 
    152 H152       -4.8394  -17.3719  -44.5549 H         1 UNK         0.0600 
    153 H153       -3.8155  -18.2168  -43.3932 H         1 UNK         0.0600 
    154 H154       -2.3099  -17.1939  -45.1610 H         1 UNK         0.3000 
    155 H155        0.0022  -17.3249  -47.8872 H         1 UNK         0.0600 
    156 H156       -0.5302  -14.9171  -48.0845 H         1 UNK         0.0600 
    157 H157       -2.0299  -15.1362  -47.1861 H         1 UNK         0.0600 
    158 H158       -1.8348  -15.8615  -48.7763 H         1 UNK         0.0600 
    159 H159       -0.1913  -15.5978  -45.6254 H         1 UNK         0.3000 
    160 H160        0.6832  -17.8050  -43.0905 H         1 UNK         0.0600 
    161 H161        2.8949  -15.9702  -44.1233 H         1 UNK         0.0600 
    162 H162        3.0371  -17.7201  -44.0128 H         1 UNK         0.0600 
    163 H163        2.7893  -16.7668  -42.5596 H         1 UNK         0.0600 
    164 H164        0.9305  -14.9644  -43.1476 H         1 UNK         0.3000 
    165 H165       -2.4639  -14.1116  -43.2157 H         1 UNK         0.0600 
    166 H166       -0.8119  -14.2464  -40.6339 H         1 UNK         0.0600 
    167 H167       -2.2050  -13.2026  -40.9213 H         1 UNK         0.0600 
    168 H168       -2.4121  -14.9447  -40.8537 H         1 UNK         0.0600 
    169 H169       -0.3153  -12.5285  -42.3801 H         1 UNK         0.3000 
    170 H170        1.4574  -11.9564  -45.3006 H         1 UNK         0.0600 
    171 H171       -0.5519  -10.6721  -46.0078 H         1 UNK         0.0600 
    172 H172       -0.7860  -10.0948  -44.3618 H         1 UNK         0.0600 
    173 H173        0.6443   -9.6147  -45.2770 H         1 UNK         0.0600 
    174 H174        1.1292  -10.4485  -42.8674 H         1 UNK         0.3000 
    175 H175        3.1874  -10.5056  -41.4798 H         1 UNK         0.0600 
    176 H176        2.1527  -11.3144  -39.3177 H         1 UNK         0.0600 
    177 H177        0.9202  -11.0401  -40.5338 H         1 UNK         0.0600 
    178 H178        1.4396  -12.6824  -40.1674 H         1 UNK         0.0600 
    179 H179        4.0611  -13.2640  -41.4084 H         1 UNK         0.3000 
    180 H180        7.1376  -12.4240  -40.0196 H         1 UNK         0.0600 
    181 H181        5.1475  -14.2522  -38.5666 H         1 UNK         0.0600 
    182 H182        6.0612  -12.9422  -37.8287 H         1 UNK         0.0600 
    183 H183        6.9061  -14.3471  -38.4583 H         1 UNK         0.0600 
    184 H184        5.9093  -14.9218  -40.8042 H         1 UNK         0.3000 
    185 H185        7.3265  -15.0525  -43.8559 H         1 UNK         0.0600 
    186 H186        5.7480  -16.9816  -43.5155 H         1 UNK         0.0600 
    187 H187        6.6683  -16.6430  -42.0616 H         1 UNK         0.0600 
    188 H188        4.9843  -16.1346  -42.1767 H         1 UNK         0.0600 
    189 H189        4.7367  -13.7102  -43.9189 H         1 UNK         0.3000 
    190 H190       -2.1289  -20.8313  -47.9838 H         1 UNK         0.3000 
    191 H191       -3.2081  -22.4807  -50.0243 H         1 UNK         0.0600 
    192 H192       -4.1958  -20.3019  -49.3392 H         1 UNK         0.0600 
    193 H193       -5.3898  -21.5905  -49.2760 H         1 UNK         0.0600 
    194 H194       -4.6728  -20.9891  -47.7876 H         1 UNK         0.0600 
    195 H195       -3.2553  -22.8671  -46.4478 H         1 UNK         0.3000 
    196 H196       -4.7598  -25.2728  -46.3777 H         1 UNK         0.0600 
    197 H197       -3.8446  -25.4908  -44.0797 H         1 UNK         0.0600 
    198 H198       -4.3709  -23.8422  -44.3849 H         1 UNK         0.0600 
    199 H199       -2.6544  -24.2396  -44.4071 H         1 UNK         0.0600 
    200 H200       -1.2068  -24.7392  -46.6116 H         1 UNK         0.3000 
    201 H201       -0.4333  -27.4700  -46.6629 H         1 UNK         0.0600 
    202 H202        1.1475  -25.6030  -46.2403 H         1 UNK         0.0600 
    203 H203        0.9406  -25.0217  -47.8907 H         1 UNK         0.0600 
    204 H204        1.6980  -26.5802  -47.5929 H         1 UNK         0.0600 
    205 H205       -1.6180  -25.3393  -49.2276 H         1 UNK         0.3000 
    206 H206       -1.2603  -27.2586  -51.3874 H         1 UNK         0.0600 
    207 H207       -1.2179  -24.7797  -51.7511 H         1 UNK         0.0600 
    208 H208       -2.4604  -25.5602  -52.7149 H         1 UNK         0.0600 
    209 H209       -2.9071  -24.6774  -51.2639 H         1 UNK         0.0600 
    210 H210       -3.1936  -27.5291  -48.7794 H         1 UNK         0.3000 
    211 H211       -4.9179  -28.7282  -48.1812 H         1 UNK         0.0600 
    212 H212       -4.9971  -29.9434  -50.9886 H         1 UNK         0.0600 
    213 H213       -5.6996  -30.6170  -49.5262 H         1 UNK         0.0600 
    214 H214       -3.9550  -30.4942  -49.6766 H         1 UNK         0.0600 
    215 H215       -5.3309  -26.0638  -49.1124 H         1 UNK         0.3000 
    216 H216       -6.9006  -24.5527  -49.3666 H         1 UNK         0.0600 
    217 H217       -8.0727  -25.7707  -47.5310 H         1 UNK         0.0600 
    218 H218       -8.9533  -26.7320  -48.7183 H         1 UNK         0.0600 
    219 H219       -9.2057  -24.9953  -48.6258 H         1 UNK         0.0600 
    220 H220       -5.8617  -25.4654  -51.6448 H         1 UNK         0.3000 
    221 H221       -7.6295  -26.2399  -53.7039 H         1 UNK         0.0600 
    222 H222       -5.0066  -24.6451  -53.7975 H         1 UNK         0.0600 
    223 H223       -5.1717  -26.3961  -53.9104 H         1 UNK         0.0600 
    224 H224       -5.7885  -25.3719  -55.1953 H         1 UNK         0.0600 
    225 H225       -8.6888  -25.0927  -55.3273 H         1 UNK         0.3000 
    226 H226      -10.0010  -22.6802  -54.6130 H         1 UNK         0.0600 
    227 H227      -11.0378  -24.3898  -56.0640 H         1 UNK         0.0600 
    228 H228      -10.9534  -22.8580  -56.9196 H         1 UNK         0.0600 
    229 H229       -9.8085  -24.1375  -57.3034 H         1 UNK         0.0600 
    230 H230       -9.1986  -20.7095  -54.6248 H         1 UNK         0.3000 
    231 H231       -8.0643  -18.8565  -54.9969 H         1 UNK         0.0600 
    232 H232       -7.7049  -18.1037  -57.3140 H         1 UNK         0.0600 
    233 H233       -9.2583  -18.9116  -57.1923 H         1 UNK         0.0600 
    234 H234       -7.8862  -19.7425  -57.9239 H         1 UNK         0.0600 
    235 H235       -6.5565  -20.8488  -53.8543 H         1 UNK         0.3000 
    236 H236       -4.0683  -21.4417  -54.8881 H         1 UNK         0.0600 
    237 H237       -3.3954  -21.7613  -52.4928 H         1 UNK         0.0600 
    238 H238       -4.8352  -20.8961  -51.9696 H         1 UNK         0.0600 
    239 H239       -4.9824  -22.4372  -52.8108 H         1 UNK         0.0600 
    240 H240       -5.0641  -18.3694  -53.5089 H         1 UNK         0.3000 
    241 H241       -2.4375  -17.1631  -54.2209 H         1 UNK         0.0600 
    242 H242       -5.3600  -15.9367  -56.3882 H         1 UNK         0.3800 
    243 H243       -5.0027  -17.5769  -55.9059 H         1 UNK         0.3800 
    244 H244       -2.9334  -15.3995  -52.4268 H         1 UNK         0.0800 
    245 H245       -4.2232  -16.4172  -51.8540 H         1 UNK         0.0800 
    246 H246       -0.3187  -17.6176  -52.9694 H         1 UNK         0.0800 
    247 H247       -0.6275  -15.9250  -52.6856 H         1 UNK         0.0800 
@<TRIPOS>BOND
     1    1    2 1    
     2    1  127 1    
     3    1  128 1    
     4    1  129 1    
     5    2    3 2    
     6    2    4 am   BACKBONE|DICT|INTERRES
     7    4    5 1    
     8    4  130 1    
     9    5    6 1    
    10    5   65 1    
    11    5  131 1    
    12    6    7 1    
    13    6  132 1    
    14    6  133 1    
    15    7    8 1    
    16    8    9 1    
    17    8  134 1    
    18    8  135 1    
    19    9   10 ar   
    20    9   14 ar   
    21   10   11 ar   
    22   10  136 1    
    23   11   12 ar   
    24   11  126 1    
    25   12   13 ar   
    26   12  137 1    
    27   13   14 ar   
    28   13   15 1    
    29   14  138 1    
    30   15   16 1    
    31   15  139 1    
    32   15  140 1    
    33   16   17 1    
    34   17   18 1    
    35   17  141 1    
    36   17  142 1    
    37   18   19 1    
    38   18   67 1    
    39   18  143 1    
    40   19   20 am   BACKBONE|DICT|INTERRES
    41   19  144 1    
    42   20   21 2    
    43   20   22 1    
    44   22   23 1    
    45   22   24 1    
    46   22  145 1    
    47   23  146 1    
    48   23  147 1    
    49   23  148 1    
    50   24   25 am   BACKBONE|DICT|INTERRES
    51   24  149 1    
    52   25   26 2    
    53   25   27 1    
    54   27   28 1    
    55   27   29 1    
    56   27  150 1    
    57   28  151 1    
    58   28  152 1    
    59   28  153 1    
    60   29   30 am   BACKBONE|DICT|INTERRES
    61   29  154 1    
    62   30   31 2    
    63   30   32 1    
    64   32   33 1    
    65   32   34 1    
    66   32  155 1    
    67   33  156 1    
    68   33  157 1    
    69   33  158 1    
    70   34   35 am   BACKBONE|DICT|INTERRES
    71   34  159 1    
    72   35   36 2    
    73   35   37 1    
    74   37   38 1    
    75   37   39 1    
    76   37  160 1    
    77   38  161 1    
    78   38  162 1    
    79   38  163 1    
    80   39   40 am   BACKBONE|DICT|INTERRES
    81   39  164 1    
    82   40   41 2    
    83   40   42 1    
    84   42   43 1    
    85   42   44 1    
    86   42  165 1    
    87   43  166 1    
    88   43  167 1    
    89   43  168 1    
    90   44   45 am   BACKBONE|DICT|INTERRES
    91   44  169 1    
    92   45   46 2    
    93   45   47 1    
    94   47   48 1    
    95   47   49 1    
    96   47  170 1    
    97   48  171 1    
    98   48  172 1    
    99   48  173 1    
   100   49   50 am   BACKBONE|DICT|INTERRES
   101   49  174 1    
   102   50   51 2    
   103   50   52 1    
   104   52   53 1    
   105   52   54 1    
   106   52  175 1    
   107   53  176 1    
   108   53  177 1    
   109   53  178 1    
   110   54   55 am   BACKBONE|DICT|INTERRES
   111   54  179 1    
   112   55   56 2    
   113   55   57 1    
   114   57   58 1    
   115   57   59 1    
   116   57  180 1    
   117   58  181 1    
   118   58  182 1    
   119   58  183 1    
   120   59   60 am   BACKBONE|DICT|INTERRES
   121   59  184 1    
   122   60   61 2    
   123   60   62 1    
   124   62   63 1    
   125   62   64 1    
   126   62  185 1    
   127   63  186 1    
   128   63  187 1    
   129   63  188 1    
   130   64   65 am   BACKBONE|DICT|INTERRES
   131   64  189 1    
   132   65   66 2    
   133   67   68 2    
   134   67   69 am   BACKBONE|DICT|INTERRES
   135   69   70 1    
   136   69  190 1    
   137   70   71 1    
   138   70   72 1    
   139   70  191 1    
   140   71  192 1    
   141   71  193 1    
   142   71  194 1    
   143   72   73 2    
   144   72   74 am   BACKBONE|DICT|INTERRES
   145   74   75 1    
   146   74  195 1    
   147   75   76 1    
   148   75   77 1    
   149   75  196 1    
   150   76  197 1    
   151   76  198 1    
   152   76  199 1    
   153   77   78 2    
   154   77   79 am   BACKBONE|DICT|INTERRES
   155   79   80 1    
   156   79  200 1    
   157   80   81 1    
   158   80   82 1    
   159   80  201 1    
   160   81  202 1    
   161   81  203 1    
   162   81  204 1    
   163   82   83 2    
   164   82   84 am   BACKBONE|DICT|INTERRES
   165   84   85 1    
   166   84  205 1    
   167   85   86 1    
   168   85   87 1    
   169   85  206 1    
   170   86  207 1    
   171   86  208 1    
   172   86  209 1    
   173   87   88 2    
   174   87   89 am   BACKBONE|DICT|INTERRES
   175   89   90 1    
   176   89  210 1    
   177   90   91 1    
   178   90   92 1    
   179   90  211 1    
   180   91  212 1    
   181   91  213 1    
   182   91  214 1    
   183   92   93 2    
   184   92   94 am   BACKBONE|DICT|INTERRES
   185   94   95 1    
   186   94  215 1    
   187   95   96 1    
   188   95   97 1    
   189   95  216 1    
   190   96  217 1    
   191   96  218 1    
   192   96  219 1    
   193   97   98 2    
   194   97   99 am   BACKBONE|DICT|INTERRES
   195   99  100 1    
   196   99  220 1    
   197  100  101 1    
   198  100  102 1    
   199  100  221 1    
   200  101  222 1    
   201  101  223 1    
   202  101  224 1    
   203  102  103 2    
   204  102  104 am   BACKBONE|DICT|INTERRES
   205  104  105 1    
   206  104  225 1    
   207  105  106 1    
   208  105  107 1    
   209  105  226 1    
   210  106  227 1    
   211  106  228 1    
   212  106  229 1    
   213  107  108 2    
   214  107  109 am   BACKBONE|DICT|INTERRES
   215  109  110 1    
   216  109  230 1    
   217  110  111 1    
   218  110  112 1    
   219  110  231 1    
   220  111  232 1    
   221  111  233 1    
   222  111  234 1    
   223  112  113 2    
   224  112  114 am   BACKBONE|DICT|INTERRES
   225  114  115 1    
   226  114  235 1    
   227  115  116 1    
   228  115  117 1    
   229  115  236 1    
   230  116  237 1    
   231  116  238 1    
   232  116  239 1    
   233  117  118 2    
   234  117  119 am   BACKBONE|DICT|INTERRES
   235  119  120 1    
   236  119  240 1    
   237  120  121 1    
   238  120  124 1    
   239  120  241 1    
   240  121  122 am   BACKBONE|DICT|INTERRES
   241  121  123 2    
   242  122  242 1    
   243  122  243 1    
   244  124  125 1    
   245  124  244 1    
   246  124  245 1    
   247  125  126 1    
   248  126  246 1    
   249  126  247 1    
@<TRIPOS>SUBSTRUCTURE
     1 UNK         1 GROUP             0       ****    0 ROOT    
