@<TRIPOS>MOLECULE
3R540
247   249    1
SMALL
USER_CHARGES


@<TRIPOS>ATOM
      1 CA         -2.9040  -15.5835  -43.3960 C.3       0 UNK        -0.1800 
      2 C          -3.3585  -14.8642  -44.6557 C.2       0 UNK         0.5000 
      3 O          -4.0917  -13.8792  -44.5699 O.2       0 UNK        -0.5000 
      4 N          -2.9143  -15.3424  -45.8260 N.am      1 UNK        -0.5000 
      5 CA         -3.1772  -14.7175  -47.1311 C.3       1 UNK         0.1400 
      6 C6         -3.0634  -15.7345  -48.2932 C.3       23 UNK        -0.0398 
      7 S7         -1.4059  -16.4727  -48.4957 S.3       23 UNK        -0.2404 
      8 C8         -1.7853  -17.7485  -49.7440 C.3       23 UNK        -0.0205 
      9 C9         -0.5639  -18.4741  -50.3047 C.ar      23 UNK        -0.0193 
     10 C10        -0.6173  -18.9625  -51.6136 C.ar      23 UNK        -0.1150 
     11 C11         0.4820  -19.6103  -52.1824 C.ar      23 UNK        -0.0193 
     12 C12         1.6439  -19.7814  -51.4281 C.ar      23 UNK        -0.1150 
     13 C13         1.7116  -19.3117  -50.1145 C.ar      23 UNK        -0.0193 
     14 C14         0.6031  -18.6697  -49.5536 C.ar      23 UNK        -0.1150 
     15 C15         3.0003  -19.4728  -49.3247 C.3       23 UNK        -0.0205 
     16 S16         3.0706  -21.0715  -48.4622 S.3       23 UNK        -0.2404 
     17 C17         2.2056  -20.6746  -46.9090 C.3       23 UNK        -0.0398 
     18 CA          1.2442  -21.7933  -46.4478 C.3       11 UNK         0.1400 
     19 N           1.0321  -21.7462  -45.0000 N.am      11 UNK        -0.5000 
     20 C           0.4154  -22.6936  -44.2813 C.2       10 UNK         0.5000 
     21 O          -0.0082  -23.7459  -44.7570 O.2       10 UNK        -0.5000 
     22 CA          0.1877  -22.3879  -42.7898 C.3       10 UNK         0.1400 
     23 CB          1.4547  -22.6702  -41.9689 C.3       10 UNK        -0.1800 
     24 N          -0.2388  -21.0064  -42.5696 N.am      10 UNK        -0.5000 
     25 C          -1.3851  -20.4831  -43.0250 C.2       9 UNK         0.5000 
     26 O          -2.2437  -21.1316  -43.6212 O.2       9 UNK        -0.5000 
     27 CA         -1.5751  -18.9699  -42.8350 C.3       9 UNK         0.1400 
     28 CB         -2.0534  -18.6409  -41.4119 C.3       9 UNK        -0.1800 
     29 N          -0.3495  -18.2280  -43.1348 N.am      9 UNK        -0.5000 
     30 C           0.1516  -18.0669  -44.3678 C.2       8 UNK         0.5000 
     31 O          -0.3820  -18.5076  -45.3832 O.2       8 UNK        -0.5000 
     32 CA          1.4804  -17.3013  -44.4895 C.3       8 UNK         0.1400 
     33 CB          1.2077  -15.7974  -44.6401 C.3       8 UNK        -0.1800 
     34 N           2.3845  -17.5362  -43.3604 N.am      8 UNK        -0.5000 
     35 C           2.9263  -18.7262  -43.0647 C.2       7 UNK         0.5000 
     36 O           2.7397  -19.7440  -43.7308 O.2       7 UNK        -0.5000 
     37 CA          3.7504  -18.8116  -41.7668 C.3       7 UNK         0.1400 
     38 CB          5.1516  -18.2116  -41.9567 C.3       7 UNK        -0.1800 
     39 N           3.0858  -18.1828  -40.6200 N.am      7 UNK        -0.5000 
     40 C           1.8923  -18.5591  -40.1374 C.2       6 UNK         0.5000 
     41 O           1.2176  -19.4570  -40.6387 O.2       6 UNK        -0.5000 
     42 CA          1.3316  -17.8171  -38.9084 C.3       6 UNK         0.1400 
     43 CB          1.2299  -18.7782  -37.7138 C.3       6 UNK        -0.1800 
     44 N           2.1240  -16.6537  -38.4994 N.am      6 UNK        -0.5000 
     45 C           2.0865  -15.4083  -38.9938 C.2       5 UNK         0.5000 
     46 O           2.7933  -14.5199  -38.5155 O.2       5 UNK        -0.5000 
     47 CA          1.1338  -15.0577  -40.1636 C.3       5 UNK         0.1400 
     48 CB         -0.2378  -14.6021  -39.6412 C.3       5 UNK        -0.1800 
     49 N           1.6951  -13.9903  -40.9913 N.am      5 UNK        -0.5000 
     50 C           2.7740  -14.1298  -41.7723 C.2       4 UNK         0.5000 
     51 O           3.3119  -15.2175  -41.9828 O.2       4 UNK        -0.5000 
     52 CA          3.3072  -12.8515  -42.4405 C.3       4 UNK         0.1400 
     53 CB          4.2795  -13.1259  -43.6040 C.3       4 UNK        -0.1800 
     54 N           2.1892  -12.0353  -42.9033 N.am      4 UNK        -0.5000 
     55 C           2.1583  -10.7024  -42.9746 C.2       3 UNK         0.5000 
     56 O           3.1062   -9.9823  -42.6553 O.2       3 UNK        -0.5000 
     57 CA          0.8443  -10.0829  -43.5045 C.3       3 UNK         0.1400 
     58 CB          0.9001   -8.5461  -43.5797 C.3       3 UNK        -0.1800 
     59 N           0.4634  -10.6024  -44.8222 N.am      3 UNK        -0.5000 
     60 C          -0.0555  -11.8112  -45.0679 C.2       2 UNK         0.5000 
     61 O          -0.2585  -12.6599  -44.1926 O.2       2 UNK        -0.5000 
     62 CA         -0.3652  -12.1367  -46.5354 C.3       2 UNK         0.1400 
     63 CB          0.9181  -12.4953  -47.3030 C.3       2 UNK        -0.1800 
     64 N          -1.2685  -13.2770  -46.5604 N.am      2 UNK        -0.5000 
     65 C          -2.3119  -13.4574  -47.3763 C.2       1 UNK         0.5000 
     66 O          -2.6104  -12.6809  -48.2852 O.2       1 UNK        -0.5000 
     67 C          -0.0906  -21.7849  -47.2254 C.2       11 UNK         0.5000 
     68 O          -0.2735  -22.6078  -48.1232 O.2       11 UNK        -0.5000 
     69 N          -1.0253  -20.9098  -46.8229 N.am      12 UNK        -0.5000 
     70 CA         -2.3858  -20.8442  -47.3580 C.3       12 UNK         0.1400 
     71 CB         -3.1292  -19.6404  -46.7576 C.3       12 UNK        -0.1800 
     72 C          -3.1812  -22.1385  -47.1190 C.2       12 UNK         0.5000 
     73 O          -3.8476  -22.6120  -48.0371 O.2       12 UNK        -0.5000 
     74 N          -3.0720  -22.7068  -45.9102 N.am      13 UNK        -0.5000 
     75 CA         -3.6889  -23.9798  -45.5350 C.3       13 UNK         0.1400 
     76 CB         -3.5426  -24.1979  -44.0217 C.3       13 UNK        -0.1800 
     77 C          -3.1217  -25.1784  -46.3187 C.2       13 UNK         0.5000 
     78 O          -3.8848  -26.0717  -46.6863 O.2       13 UNK        -0.5000 
     79 N          -1.8061  -25.1690  -46.5759 N.am      14 UNK        -0.5000 
     80 CA         -1.1117  -26.1702  -47.3855 C.3       14 UNK         0.1400 
     81 CB          0.4066  -26.0234  -47.2012 C.3       14 UNK        -0.1800 
     82 C          -1.4957  -26.0953  -48.8748 C.2       14 UNK         0.5000 
     83 O          -1.7102  -27.1375  -49.4954 O.2       14 UNK        -0.5000 
     84 N          -1.5891  -24.8723  -49.4166 N.am      15 UNK        -0.5000 
     85 CA         -2.0338  -24.6066  -50.7864 C.3       15 UNK         0.1400 
     86 CB         -1.6842  -23.1594  -51.1640 C.3       15 UNK        -0.1800 
     87 C          -3.5347  -24.8950  -50.9919 C.2       15 UNK         0.5000 
     88 O          -3.9163  -25.4002  -52.0483 O.2       15 UNK        -0.5000 
     89 N          -4.3499  -24.5994  -49.9697 N.am      16 UNK        -0.5000 
     90 CA         -5.7899  -24.8434  -49.8780 C.3       16 UNK         0.1400 
     91 CB         -6.0667  -26.3581  -49.7460 C.3       16 UNK        -0.1800 
     92 C          -6.5583  -24.1525  -51.0230 C.2       16 UNK         0.5000 
     93 O          -6.4171  -22.9419  -51.1986 O.2       16 UNK        -0.5000 
     94 N          -7.3358  -24.9177  -51.8003 N.am      17 UNK        -0.5000 
     95 CA         -8.1097  -24.4358  -52.9474 C.3       17 UNK         0.1400 
     96 CB         -9.0037  -25.5758  -53.4585 C.3       17 UNK        -0.1800 
     97 C          -7.2472  -23.8713  -54.0952 C.2       17 UNK         0.5000 
     98 O          -7.7400  -23.0503  -54.8696 O.2       17 UNK        -0.5000 
     99 N          -5.9791  -24.2984  -54.1794 N.am      18 UNK        -0.5000 
    100 CA        -5.0185  -23.8346  -55.1794 C.3       18 UNK         0.1400 
    101 CB        -3.9738  -24.9342  -55.4305 C.3       18 UNK        -0.1800 
    102 C         -4.3337  -22.5084  -54.7979 C.2       18 UNK         0.5000 
    103 O         -3.5896  -21.9798  -55.6227 O.2       18 UNK        -0.5000 
    104 N         -4.5756  -21.9824  -53.5846 N.am      19 UNK        -0.5000 
    105 CA        -3.9767  -20.7394  -53.0828 C.3       19 UNK         0.1400 
    106 CB        -4.3662  -20.5328  -51.6111 C.3       19 UNK        -0.1800 
    107 C         -4.3450  -19.4889  -53.9037 C.2       19 UNK         0.5000 
    108 O         -3.5546  -18.5466  -53.9477 O.2       19 UNK        -0.5000 
    109 N         -5.5206  -19.5084  -54.5477 N.am      20 UNK        -0.5000 
    110 CA        -6.0279  -18.4686  -55.4419 C.3       20 UNK         0.1400 
    111 CB        -7.4734  -18.8166  -55.8351 C.3       20 UNK        -0.1800 
    112 C         -5.1240  -18.2980  -56.6793 C.2       20 UNK         0.5000 
    113 O         -5.2294  -19.0772  -57.6278 O.2       20 UNK        -0.5000 
    114 N         -4.2252  -17.3053  -56.6106 N.am      21 UNK        -0.5000 
    115 CA        -3.1853  -16.9600  -57.5898 C.3       21 UNK         0.1400 
    116 CB        -3.8097  -16.5424  -58.9382 C.3       21 UNK        -0.1800 
    117 C         -2.0818  -18.0315  -57.7523 C.2       21 UNK         0.5000 
    118 O         -1.3283  -17.9751  -58.7254 O.2       21 UNK        -0.5000 
    119 N         -1.9865  -18.9577  -56.7881 N.am      22 UNK        -0.5000 
    120 CA        -1.0366  -20.0806  -56.7201 C.3       22 UNK         0.1400 
    121 C         -1.1124  -21.0203  -57.9573 C.2       22 UNK         0.5000 
    122 N         -2.1604  -21.8248  -58.0537 N.am      22 UNK        -0.7600 
    123 O         -0.2339  -21.0370  -58.8163 O.2       22 UNK        -0.5000 
    124 C124        0.4131  -19.6409  -56.3826 C.3       23 UNK        -0.0398 
    125 S125        0.5240  -18.7390  -54.8007 S.3       23 UNK        -0.2404 
    126 C126        0.4148  -20.1149  -53.6134 C.3       23 UNK        -0.0205 
    127 H127       -3.5826  -16.4035  -43.1626 H         1 UNK         0.0600 
    128 H128       -2.8884  -14.8979  -42.5485 H         1 UNK         0.0600 
    129 H129       -1.8981  -15.9806  -43.5180 H         1 UNK         0.0600 
    130 H130       -2.3230  -16.1620  -45.8491 H         1 UNK         0.3000 
    131 H131       -4.2128  -14.3703  -47.1254 H         1 UNK         0.0600 
    132 H132       -3.3501  -15.2636  -49.2353 H         1 UNK         0.0800 
    133 H133       -3.7819  -16.5402  -48.1357 H         1 UNK         0.0800 
    134 H134       -2.3239  -17.2673  -50.5622 H         1 UNK         0.0800 
    135 H135       -2.4671  -18.4828  -49.3184 H         1 UNK         0.0800 
    136 H136       -1.5110  -18.8204  -52.2046 H         1 UNK         0.1150 
    137 H137        2.5009  -20.2748  -51.8648 H         1 UNK         0.1150 
    138 H138        0.6580  -18.3084  -48.5372 H         1 UNK         0.1150 
    139 H139        3.8523  -19.4080  -50.0032 H         1 UNK         0.0800 
    140 H140        3.1231  -18.6535  -48.6145 H         1 UNK         0.0800 
    141 H141        1.6889  -19.7168  -46.9763 H         1 UNK         0.0800 
    142 H142        2.9924  -20.5331  -46.1681 H         1 UNK         0.0800 
    143 H143        1.7256  -22.7529  -46.6491 H         1 UNK         0.0600 
    144 H144        1.4035  -20.9357  -44.5131 H         1 UNK         0.3000 
    145 H145       -0.6059  -23.0461  -42.4306 H         1 UNK         0.0600 
    146 H146        1.2768  -22.5126  -40.9050 H         1 UNK         0.0600 
    147 H147        2.2816  -22.0249  -42.2667 H         1 UNK         0.0600 
    148 H148        1.7803  -23.7033  -42.0964 H         1 UNK         0.0600 
    149 H149        0.3940  -20.4113  -42.0410 H         1 UNK         0.3000 
    150 H150       -2.3484  -18.6430  -43.5333 H         1 UNK         0.0600 
    151 H151       -3.0198  -19.1061  -41.2141 H         1 UNK         0.0600 
    152 H152       -2.1753  -17.5672  -41.2704 H         1 UNK         0.0600 
    153 H153       -1.3604  -19.0012  -40.6523 H         1 UNK         0.0600 
    154 H154        0.1865  -17.8935  -42.3498 H         1 UNK         0.3000 
    155 H155        1.9792  -17.6488  -45.3965 H         1 UNK         0.0600 
    156 H156        0.5506  -15.6023  -45.4888 H         1 UNK         0.0600 
    157 H157        2.1307  -15.2477  -44.8166 H         1 UNK         0.0600 
    158 H158        0.7306  -15.3807  -43.7523 H         1 UNK         0.0600 
    159 H159        2.6398  -16.7319  -42.7909 H         1 UNK         0.3000 
    160 H160        3.8714  -19.8710  -41.5305 H         1 UNK         0.0600 
    161 H161        5.1129  -17.1427  -42.1662 H         1 UNK         0.0600 
    162 H162        5.6695  -18.6892  -42.7895 H         1 UNK         0.0600 
    163 H163        5.7657  -18.3564  -41.0678 H         1 UNK         0.0600 
    164 H164        3.5749  -17.4205  -40.1735 H         1 UNK         0.3000 
    165 H165        0.3181  -17.4998  -39.1560 H         1 UNK         0.0600 
    166 H166        0.7752  -18.2895  -36.8518 H         1 UNK         0.0600 
    167 H167        0.6108  -19.6434  -37.9560 H         1 UNK         0.0600 
    168 H168        2.2094  -19.1506  -37.4111 H         1 UNK         0.0600 
    169 H169        2.7638  -16.8284  -37.7382 H         1 UNK         0.3000 
    170 H170        0.9904  -15.9259  -40.8068 H         1 UNK         0.0600 
    171 H171       -0.7085  -15.3731  -39.0309 H         1 UNK         0.0600 
    172 H172       -0.1549  -13.7056  -39.0254 H         1 UNK         0.0600 
    173 H173       -0.9183  -14.3816  -40.4642 H         1 UNK         0.0600 
    174 H174        1.3236  -13.0632  -40.8461 H         1 UNK         0.3000 
    175 H175        3.8495  -12.3104  -41.6625 H         1 UNK         0.0600 
    176 H176        3.7882  -13.6470  -44.4250 H         1 UNK         0.0600 
    177 H177        4.6910  -12.1971  -43.9993 H         1 UNK         0.0600 
    178 H178        5.1213  -13.7382  -43.2788 H         1 UNK         0.0600 
    179 H179        1.3582  -12.5390  -43.2062 H         1 UNK         0.3000 
    180 H180        0.0607  -10.3477  -42.7914 H         1 UNK         0.0600 
    181 H181       -0.0573   -8.1318  -43.8962 H         1 UNK         0.0600 
    182 H182        1.6623   -8.2044  -44.2811 H         1 UNK         0.0600 
    183 H183        1.1311   -8.1136  -42.6053 H         1 UNK         0.0600 
    184 H184        0.6361   -9.9845  -45.6021 H         1 UNK         0.3000 
    185 H185       -0.8414  -11.2659  -46.9908 H         1 UNK         0.0600 
    186 H186        0.6970  -12.7517  -48.3393 H         1 UNK         0.0600 
    187 H187        1.6166  -11.6580  -47.3175 H         1 UNK         0.0600 
    188 H188        1.4319  -13.3454  -46.8519 H         1 UNK         0.0600 
    189 H189       -1.1510  -13.9123  -45.7826 H         1 UNK         0.3000 
    190 H190       -0.7907  -20.2235  -46.1114 H         1 UNK         0.3000 
    191 H191       -2.3055  -20.6984  -48.4369 H         1 UNK         0.0600 
    192 H192       -2.5820  -18.7134  -46.9184 H         1 UNK         0.0600 
    193 H193       -3.2785  -19.7506  -45.6838 H         1 UNK         0.0600 
    194 H194       -4.1121  -19.5225  -47.2151 H         1 UNK         0.0600 
    195 H195       -2.5513  -22.2207  -45.1851 H         1 UNK         0.3000 
    196 H196       -4.7544  -23.9115  -45.7644 H         1 UNK         0.0600 
    197 H197       -4.0111  -23.3894  -43.4601 H         1 UNK         0.0600 
    198 H198       -2.4961  -24.2505  -43.7213 H         1 UNK         0.0600 
    199 H199       -4.0205  -25.1284  -43.7130 H         1 UNK         0.0600 
    200 H200       -1.2354  -24.4317  -46.1744 H         1 UNK         0.3000 
    201 H201       -1.3998  -27.1573  -47.0179 H         1 UNK         0.0600 
    202 H202        0.6902  -26.1511  -46.1564 H         1 UNK         0.0600 
    203 H203        0.7612  -25.0450  -47.5257 H         1 UNK         0.0600 
    204 H204        0.9445  -26.7759  -47.7790 H         1 UNK         0.0600 
    205 H205       -1.3305  -24.0658  -48.8543 H         1 UNK         0.3000 
    206 H206       -1.4814  -25.2685  -51.4565 H         1 UNK         0.0600 
    207 H207       -2.1296  -22.4451  -50.4718 H         1 UNK         0.0600 
    208 H208       -0.6058  -22.9992  -51.1496 H         1 UNK         0.0600 
    209 H209       -2.0348  -22.9214  -52.1684 H         1 UNK         0.0600 
    210 H210       -3.9617  -24.0757  -49.1892 H         1 UNK         0.3000 
    211 H211       -6.1214  -24.3639  -48.9561 H         1 UNK         0.0600 
    212 H212       -5.7611  -26.9131  -50.6337 H         1 UNK         0.0600 
    213 H213       -7.1254  -26.5543  -49.5724 H         1 UNK         0.0600 
    214 H214       -5.5239  -26.7763  -48.8980 H         1 UNK         0.0600 
    215 H215       -7.3847  -25.9072  -51.6057 H         1 UNK         0.3000 
    216 H216       -8.7539  -23.6264  -52.5978 H         1 UNK         0.0600 
    217 H217       -9.6186  -25.2451  -54.2967 H         1 UNK         0.0600 
    218 H218       -9.6811  -25.9265  -52.6797 H         1 UNK         0.0600 
    219 H219       -8.4134  -26.4270  -53.8003 H         1 UNK         0.0600 
    220 H220       -5.6233  -24.9353  -53.4765 H         1 UNK         0.3000 
    221 H221       -5.5456  -23.6625  -56.1202 H         1 UNK         0.0600 
    222 H222       -3.3409  -25.1006  -54.5593 H         1 UNK         0.0600 
    223 H223       -4.4486  -25.8809  -55.6885 H         1 UNK         0.0600 
    224 H224       -3.3177  -24.6653  -56.2593 H         1 UNK         0.0600 
    225 H225       -5.2070  -22.4647  -52.9555 H         1 UNK         0.3000 
    226 H226       -2.8929  -20.8537  -53.1352 H         1 UNK         0.0600 
    227 H227       -3.8470  -19.6734  -51.1860 H         1 UNK         0.0600 
    228 H228       -4.1136  -21.3994  -51.0016 H         1 UNK         0.0600 
    229 H229       -5.4369  -20.3557  -51.5021 H         1 UNK         0.0600 
    230 H230       -6.0818  -20.3443  -54.4729 H         1 UNK         0.3000 
    231 H231       -6.0487  -17.5260  -54.8909 H         1 UNK         0.0600 
    232 H232       -7.8826  -18.0700  -56.5169 H         1 UNK         0.0600 
    233 H233       -8.1230  -18.8480  -54.9601 H         1 UNK         0.0600 
    234 H234       -7.5358  -19.7858  -56.3321 H         1 UNK         0.0600 
    235 H235       -4.1869  -16.7755  -55.7499 H         1 UNK         0.3000 
    236 H236       -2.6804  -16.0827  -57.1832 H         1 UNK         0.0600 
    237 H237       -4.2608  -17.3889  -59.4564 H         1 UNK         0.0600 
    238 H238       -4.5797  -15.7837  -58.7991 H         1 UNK         0.0600 
    239 H239       -3.0569  -16.1188  -59.6039 H         1 UNK         0.0600 
    240 H240       -2.6410  -18.8973  -56.0196 H         1 UNK         0.3000 
    241 H241       -1.3726  -20.6876  -55.8812 H         1 UNK         0.0600 
    242 H242       -2.2476  -22.4478  -58.8403 H         1 UNK         0.3800 
    243 H243       -2.8459  -21.8500  -57.3010 H         1 UNK         0.3800 
    244 H244        0.8083  -18.9995  -57.1717 H         1 UNK         0.0800 
    245 H245        1.0768  -20.5060  -56.3349 H         1 UNK         0.0800 
    246 H246        1.2186  -20.8268  -53.8075 H         1 UNK         0.0800 
    247 H247       -0.5201  -20.6574  -53.7532 H         1 UNK         0.0800 
@<TRIPOS>BOND
     1    1    2 1    
     2    1  127 1    
     3    1  128 1    
     4    1  129 1    
     5    2    3 2    
     6    2    4 am   BACKBONE|DICT|INTERRES
     7    4    5 1    
     8    4  130 1    
     9    5    6 1    
    10    5   65 1    
    11    5  131 1    
    12    6    7 1    
    13    6  132 1    
    14    6  133 1    
    15    7    8 1    
    16    8    9 1    
    17    8  134 1    
    18    8  135 1    
    19    9   10 ar   
    20    9   14 ar   
    21   10   11 ar   
    22   10  136 1    
    23   11   12 ar   
    24   11  126 1    
    25   12   13 ar   
    26   12  137 1    
    27   13   14 ar   
    28   13   15 1    
    29   14  138 1    
    30   15   16 1    
    31   15  139 1    
    32   15  140 1    
    33   16   17 1    
    34   17   18 1    
    35   17  141 1    
    36   17  142 1    
    37   18   19 1    
    38   18   67 1    
    39   18  143 1    
    40   19   20 am   BACKBONE|DICT|INTERRES
    41   19  144 1    
    42   20   21 2    
    43   20   22 1    
    44   22   23 1    
    45   22   24 1    
    46   22  145 1    
    47   23  146 1    
    48   23  147 1    
    49   23  148 1    
    50   24   25 am   BACKBONE|DICT|INTERRES
    51   24  149 1    
    52   25   26 2    
    53   25   27 1    
    54   27   28 1    
    55   27   29 1    
    56   27  150 1    
    57   28  151 1    
    58   28  152 1    
    59   28  153 1    
    60   29   30 am   BACKBONE|DICT|INTERRES
    61   29  154 1    
    62   30   31 2    
    63   30   32 1    
    64   32   33 1    
    65   32   34 1    
    66   32  155 1    
    67   33  156 1    
    68   33  157 1    
    69   33  158 1    
    70   34   35 am   BACKBONE|DICT|INTERRES
    71   34  159 1    
    72   35   36 2    
    73   35   37 1    
    74   37   38 1    
    75   37   39 1    
    76   37  160 1    
    77   38  161 1    
    78   38  162 1    
    79   38  163 1    
    80   39   40 am   BACKBONE|DICT|INTERRES
    81   39  164 1    
    82   40   41 2    
    83   40   42 1    
    84   42   43 1    
    85   42   44 1    
    86   42  165 1    
    87   43  166 1    
    88   43  167 1    
    89   43  168 1    
    90   44   45 am   BACKBONE|DICT|INTERRES
    91   44  169 1    
    92   45   46 2    
    93   45   47 1    
    94   47   48 1    
    95   47   49 1    
    96   47  170 1    
    97   48  171 1    
    98   48  172 1    
    99   48  173 1    
   100   49   50 am   BACKBONE|DICT|INTERRES
   101   49  174 1    
   102   50   51 2    
   103   50   52 1    
   104   52   53 1    
   105   52   54 1    
   106   52  175 1    
   107   53  176 1    
   108   53  177 1    
   109   53  178 1    
   110   54   55 am   BACKBONE|DICT|INTERRES
   111   54  179 1    
   112   55   56 2    
   113   55   57 1    
   114   57   58 1    
   115   57   59 1    
   116   57  180 1    
   117   58  181 1    
   118   58  182 1    
   119   58  183 1    
   120   59   60 am   BACKBONE|DICT|INTERRES
   121   59  184 1    
   122   60   61 2    
   123   60   62 1    
   124   62   63 1    
   125   62   64 1    
   126   62  185 1    
   127   63  186 1    
   128   63  187 1    
   129   63  188 1    
   130   64   65 am   BACKBONE|DICT|INTERRES
   131   64  189 1    
   132   65   66 2    
   133   67   68 2    
   134   67   69 am   BACKBONE|DICT|INTERRES
   135   69   70 1    
   136   69  190 1    
   137   70   71 1    
   138   70   72 1    
   139   70  191 1    
   140   71  192 1    
   141   71  193 1    
   142   71  194 1    
   143   72   73 2    
   144   72   74 am   BACKBONE|DICT|INTERRES
   145   74   75 1    
   146   74  195 1    
   147   75   76 1    
   148   75   77 1    
   149   75  196 1    
   150   76  197 1    
   151   76  198 1    
   152   76  199 1    
   153   77   78 2    
   154   77   79 am   BACKBONE|DICT|INTERRES
   155   79   80 1    
   156   79  200 1    
   157   80   81 1    
   158   80   82 1    
   159   80  201 1    
   160   81  202 1    
   161   81  203 1    
   162   81  204 1    
   163   82   83 2    
   164   82   84 am   BACKBONE|DICT|INTERRES
   165   84   85 1    
   166   84  205 1    
   167   85   86 1    
   168   85   87 1    
   169   85  206 1    
   170   86  207 1    
   171   86  208 1    
   172   86  209 1    
   173   87   88 2    
   174   87   89 am   BACKBONE|DICT|INTERRES
   175   89   90 1    
   176   89  210 1    
   177   90   91 1    
   178   90   92 1    
   179   90  211 1    
   180   91  212 1    
   181   91  213 1    
   182   91  214 1    
   183   92   93 2    
   184   92   94 am   BACKBONE|DICT|INTERRES
   185   94   95 1    
   186   94  215 1    
   187   95   96 1    
   188   95   97 1    
   189   95  216 1    
   190   96  217 1    
   191   96  218 1    
   192   96  219 1    
   193   97   98 2    
   194   97   99 am   BACKBONE|DICT|INTERRES
   195   99  100 1    
   196   99  220 1    
   197  100  101 1    
   198  100  102 1    
   199  100  221 1    
   200  101  222 1    
   201  101  223 1    
   202  101  224 1    
   203  102  103 2    
   204  102  104 am   BACKBONE|DICT|INTERRES
   205  104  105 1    
   206  104  225 1    
   207  105  106 1    
   208  105  107 1    
   209  105  226 1    
   210  106  227 1    
   211  106  228 1    
   212  106  229 1    
   213  107  108 2    
   214  107  109 am   BACKBONE|DICT|INTERRES
   215  109  110 1    
   216  109  230 1    
   217  110  111 1    
   218  110  112 1    
   219  110  231 1    
   220  111  232 1    
   221  111  233 1    
   222  111  234 1    
   223  112  113 2    
   224  112  114 am   BACKBONE|DICT|INTERRES
   225  114  115 1    
   226  114  235 1    
   227  115  116 1    
   228  115  117 1    
   229  115  236 1    
   230  116  237 1    
   231  116  238 1    
   232  116  239 1    
   233  117  118 2    
   234  117  119 am   BACKBONE|DICT|INTERRES
   235  119  120 1    
   236  119  240 1    
   237  120  121 1    
   238  120  124 1    
   239  120  241 1    
   240  121  122 am   BACKBONE|DICT|INTERRES
   241  121  123 2    
   242  122  242 1    
   243  122  243 1    
   244  124  125 1    
   245  124  244 1    
   246  124  245 1    
   247  125  126 1    
   248  126  246 1    
   249  126  247 1    
@<TRIPOS>SUBSTRUCTURE
     1 UNK         1 GROUP             0       ****    0 ROOT    
