@<TRIPOS>MOLECULE
3R540
247   249    1
SMALL
USER_CHARGES


@<TRIPOS>ATOM
      1 CA          7.3615  -10.1489  -46.7773 C.3       0 UNK        -0.1800 
      2 C           6.4433  -11.1676  -47.4380 C.2       0 UNK         0.5000 
      3 O           6.3926  -11.2352  -48.6658 O.2       0 UNK        -0.5000 
      4 N           5.7265  -11.9563  -46.6255 N.am      1 UNK        -0.5000 
      5 CA          4.7635  -12.9848  -47.0363 C.3       1 UNK         0.1400 
      6 C6          5.4236  -14.1781  -47.7777 C.3       23 UNK        -0.0398 
      7 S7          4.3747  -15.6761  -47.7644 S.3       23 UNK        -0.2404 
      8 C8          4.1854  -15.9502  -49.5506 C.3       23 UNK        -0.0205 
      9 C9          3.0476  -16.9057  -49.8659 C.ar      23 UNK        -0.0193 
     10 C10         1.7748  -16.4045  -50.1503 C.ar      23 UNK        -0.1150 
     11 C11         0.7398  -17.2646  -50.5281 C.ar      23 UNK        -0.0193 
     12 C12         0.9836  -18.6395  -50.6050 C.ar      23 UNK        -0.1150 
     13 C13         2.2474  -19.1553  -50.2969 C.ar      23 UNK        -0.0193 
     14 C14         3.2752  -18.2827  -49.9275 C.ar      23 UNK        -0.1150 
     15 C15         2.5174  -20.6500  -50.3920 C.3       23 UNK        -0.0205 
     16 S16         2.2565  -21.4905  -48.7991 S.3       23 UNK        -0.2404 
     17 C17         0.4426  -21.4087  -48.6723 C.3       23 UNK        -0.0398 
     18 CA         -0.1347  -22.4470  -47.6847 C.3       11 UNK         0.1400 
     19 N           0.1937  -22.1489  -46.2864 N.am      11 UNK        -0.5000 
     20 C          -0.0819  -22.9584  -45.2533 C.2       10 UNK         0.5000 
     21 O          -0.5708  -24.0808  -45.3785 O.2       10 UNK        -0.5000 
     22 CA          0.1687  -22.4040  -43.8393 C.3       10 UNK         0.1400 
     23 CB          1.6457  -22.5421  -43.4421 C.3       10 UNK        -0.1800 
     24 N          -0.2651  -21.0129  -43.6997 N.am      10 UNK        -0.5000 
     25 C          -1.5390  -20.6065  -43.8033 C.2       9 UNK         0.5000 
     26 O          -2.4859  -21.3764  -43.9603 O.2       9 UNK        -0.5000 
     27 CA         -1.8011  -19.0890  -43.7744 C.3       9 UNK         0.1400 
     28 CB         -1.8637  -18.5697  -42.3309 C.3       9 UNK        -0.1800 
     29 N          -0.8067  -18.3282  -44.5299 N.am      9 UNK        -0.5000 
     30 C          -0.6038  -18.4369  -45.8506 C.2       8 UNK         0.5000 
     31 O          -1.2758  -19.1611  -46.5841 O.2       8 UNK        -0.5000 
     32 CA          0.5913  -17.6598  -46.4329 C.3       8 UNK         0.1400 
     33 CB          0.2368  -16.1869  -46.6680 C.3       8 UNK        -0.1800 
     34 N           1.7706  -17.7373  -45.5720 N.am      8 UNK        -0.5000 
     35 C           2.4495  -18.8634  -45.3178 C.2       7 UNK         0.5000 
     36 O           2.1673  -19.9564  -45.8056 O.2       7 UNK        -0.5000 
     37 CA          3.5964  -18.7591  -44.2962 C.3       7 UNK         0.1400 
     38 CB          4.8614  -18.1730  -44.9398 C.3       7 UNK        -0.1800 
     39 N           3.2284  -17.9577  -43.1276 N.am      7 UNK        -0.5000 
     40 C           2.3093  -18.3233  -42.2229 C.2       6 UNK         0.5000 
     41 O           1.7092  -19.3965  -42.2554 O.2       6 UNK        -0.5000 
     42 CA          1.9743  -17.3013  -41.1199 C.3       6 UNK         0.1400 
     43 CB          2.9479  -17.4415  -39.9404 C.3       6 UNK        -0.1800 
     44 N           1.9734  -15.9117  -41.5880 N.am      6 UNK        -0.5000 
     45 C           1.1576  -15.4283  -42.5344 C.2       5 UNK         0.5000 
     46 O           0.3412  -16.1191  -43.1461 O.2       5 UNK        -0.5000 
     47 CA          1.3310  -13.9404  -42.8878 C.3       5 UNK         0.1400 
     48 CB          2.5355  -13.7616  -43.8260 C.3       5 UNK        -0.1800 
     49 N           0.1359  -13.3699  -43.5175 N.am      5 UNK        -0.5000 
     50 C          -1.0190  -13.1376  -42.8736 C.2       4 UNK         0.5000 
     51 O          -1.1751  -13.3696  -41.6731 O.2       4 UNK        -0.5000 
     52 CA         -2.1910  -12.5090  -43.6597 C.3       4 UNK         0.1400 
     53 CB         -2.5173  -11.1106  -43.1085 C.3       4 UNK        -0.1800 
     54 N          -1.9386  -12.3834  -45.0947 N.am      4 UNK        -0.5000 
     55 C          -2.2241  -13.3121  -46.0166 C.2       3 UNK         0.5000 
     56 O          -2.7817  -14.3789  -45.7607 O.2       3 UNK        -0.5000 
     57 CA         -1.8135  -13.0005  -47.4753 C.3       3 UNK         0.1400 
     58 CB         -3.0321  -12.5284  -48.2838 C.3       3 UNK        -0.1800 
     59 N          -0.7326  -12.0141  -47.6278 N.am      3 UNK        -0.5000 
     60 C           0.4903  -12.1313  -47.0947 C.2       2 UNK         0.5000 
     61 O           0.8067  -13.0523  -46.3415 O.2       2 UNK        -0.5000 
     62 CA          1.5073  -11.0123  -47.3964 C.3       2 UNK         0.1400 
     63 CB          1.1841   -9.7576  -46.5697 C.3       2 UNK        -0.1800 
     64 N           2.8621  -11.4540  -47.0619 N.am      2 UNK        -0.5000 
     65 C           3.5469  -12.3662  -47.7644 C.2       1 UNK         0.5000 
     66 O           3.2439  -12.7074  -48.9094 O.2       1 UNK        -0.5000 
     67 C          -1.6552  -22.5989  -47.8921 C.2       11 UNK         0.5000 
     68 O          -2.0831  -23.5761  -48.5039 O.2       11 UNK        -0.5000 
     69 N          -2.4465  -21.6640  -47.3482 N.am      12 UNK        -0.5000 
     70 CA         -3.9095  -21.6925  -47.3932 C.3       12 UNK         0.1400 
     71 CB         -4.4660  -20.3961  -46.7856 C.3       12 UNK        -0.1800 
     72 C          -4.5152  -22.9279  -46.6985 C.2       12 UNK         0.5000 
     73 O          -5.4714  -23.5039  -47.2175 O.2       12 UNK        -0.5000 
     74 N          -3.9316  -23.3273  -45.5595 N.am      13 UNK        -0.5000 
     75 CA         -4.2932  -24.5346  -44.8164 C.3       13 UNK         0.1400 
     76 CB         -3.6335  -24.5007  -43.4294 C.3       13 UNK        -0.1800 
     77 C          -3.9276  -25.8304  -45.5652 C.2       13 UNK         0.5000 
     78 O          -4.7150  -26.7776  -45.5501 O.2       13 UNK        -0.5000 
     79 N          -2.7538  -25.8492  -46.2138 N.am      14 UNK        -0.5000 
     80 CA         -2.2847  -26.9549  -47.0537 C.3       14 UNK         0.1400 
     81 CB         -0.7949  -26.7586  -47.3736 C.3       14 UNK        -0.1800 
     82 C          -3.1012  -27.1130  -48.3513 C.2       14 UNK         0.5000 
     83 O          -3.2870  -28.2396  -48.8137 O.2       14 UNK        -0.5000 
     84 N          -3.5842  -25.9857  -48.8916 N.am      15 UNK        -0.5000 
     85 CA         -4.3902  -25.8462  -50.1022 C.3       15 UNK         0.1400 
     86 CB         -5.7722  -26.5164  -49.9288 C.3       15 UNK        -0.1800 
     87 C          -3.6056  -26.2883  -51.3541 C.2       15 UNK         0.5000 
     88 O          -2.5121  -25.7665  -51.5824 O.2       15 UNK        -0.5000 
     89 N          -4.1741  -27.2020  -52.1560 N.am      16 UNK        -0.5000 
     90 CA         -3.6419  -27.7226  -53.4205 C.3       16 UNK         0.1400 
     91 CB         -2.3971  -28.6024  -53.1659 C.3       16 UNK        -0.1800 
     92 C          -3.4130  -26.5864  -54.4383 C.2       16 UNK         0.5000 
     93 O          -4.3869  -26.0385  -54.9551 O.2       16 UNK        -0.5000 
     94 N          -2.1487  -26.2136  -54.6749 N.am      17 UNK        -0.5000 
     95 CA         -1.7556  -25.0760  -55.5105 C.3       17 UNK         0.1400 
     96 CB         -0.2366  -25.1257  -55.7340 C.3       17 UNK        -0.1800 
     97 C          -2.1697  -23.7084  -54.9259 C.2       17 UNK         0.5000 
     98 O          -2.3149  -22.7496  -55.6846 O.2       17 UNK        -0.5000 
     99 N          -2.3642  -23.6445  -53.6019 N.am      18 UNK        -0.5000 
    100 CA        -2.7737  -22.4564  -52.8549 C.3       18 UNK         0.1400 
    101 CB        -1.7548  -22.2064  -51.7316 C.3       18 UNK        -0.1800 
    102 C         -4.2123  -22.5905  -52.3162 C.2       18 UNK         0.5000 
    103 O         -4.5607  -21.9305  -51.3364 O.2       18 UNK        -0.5000 
    104 N         -5.0483  -23.4140  -52.9707 N.am      19 UNK        -0.5000 
    105 CA        -6.4612  -23.6394  -52.6280 C.3       19 UNK         0.1400 
    106 CB        -7.0200  -24.7790  -53.4919 C.3       19 UNK        -0.1800 
    107 C         -7.3594  -22.3878  -52.7328 C.2       19 UNK         0.5000 
    108 O         -8.4451  -22.3725  -52.1528 O.2       19 UNK        -0.5000 
    109 N         -6.8769  -21.3477  -53.4272 N.am      20 UNK        -0.5000 
    110 CA        -7.4565  -20.0027  -53.4590 C.3       20 UNK         0.1400 
    111 CB        -6.8032  -19.2182  -54.6082 C.3       20 UNK        -0.1800 
    112 C         -7.3078  -19.2306  -52.1276 C.2       20 UNK         0.5000 
    113 O         -7.8887  -18.1520  -51.9949 O.2       20 UNK        -0.5000 
    114 N         -6.5165  -19.7666  -51.1826 N.am      21 UNK        -0.5000 
    115 CA        -6.2623  -19.2547  -49.8315 C.3       21 UNK         0.1400 
    116 CB        -7.5366  -19.3504  -48.9673 C.3       21 UNK        -0.1800 
    117 C         -5.6270  -17.8500  -49.8223 C.2       21 UNK         0.5000 
    118 O         -5.9046  -17.0484  -48.9291 O.2       21 UNK        -0.5000 
    119 N         -4.8026  -17.5823  -50.8436 N.am      22 UNK        -0.5000 
    120 CA        -4.1534  -16.2927  -51.1310 C.3       22 UNK         0.1400 
    121 C         -5.1347  -15.1541  -51.5534 C.2       22 UNK         0.5000 
    122 N         -6.3896  -15.4392  -51.8857 N.am      22 UNK        -0.7600 
    123 O         -4.7456  -13.9912  -51.6179 O.2       22 UNK        -0.5000 
    124 C124       -3.1570  -15.8424  -50.0248 C.3       23 UNK        -0.0398 
    125 S125       -1.8824  -17.0935  -49.6424 S.3       23 UNK        -0.2404 
    126 C126       -0.6240  -16.6984  -50.8940 C.3       23 UNK        -0.0205 
    127 H127        7.3121  -10.2021  -45.6894 H         1 UNK         0.0600 
    128 H128        7.0822   -9.1399  -47.0810 H         1 UNK         0.0600 
    129 H129        8.3942  -10.3232  -47.0793 H         1 UNK         0.0600 
    130 H130        5.8274  -11.8374  -45.6269 H         1 UNK         0.3000 
    131 H131        4.3707  -13.3815  -46.0991 H         1 UNK         0.0600 
    132 H132        6.3588  -14.4434  -47.2833 H         1 UNK         0.0800 
    133 H133        5.6974  -13.9014  -48.7969 H         1 UNK         0.0800 
    134 H134        5.1224  -16.3356  -49.9552 H         1 UNK         0.0800 
    135 H135        4.0055  -14.9991  -50.0536 H         1 UNK         0.0800 
    136 H136        1.5997  -15.3386  -50.1000 H         1 UNK         0.1150 
    137 H137        0.1868  -19.3055  -50.9051 H         1 UNK         0.1150 
    138 H138        4.2578  -18.6738  -49.7035 H         1 UNK         0.1150 
    139 H139        1.8898  -21.1044  -51.1601 H         1 UNK         0.0800 
    140 H140        3.5479  -20.8166  -50.7094 H         1 UNK         0.0800 
    141 H141        0.0391  -21.5742  -49.6713 H         1 UNK         0.0800 
    142 H142        0.1547  -20.3961  -48.3890 H         1 UNK         0.0800 
    143 H143        0.3106  -23.4162  -47.9197 H         1 UNK         0.0600 
    144 H144        0.6551  -21.2622  -46.1068 H         1 UNK         0.3000 
    145 H145       -0.4205  -23.0037  -43.1424 H         1 UNK         0.0600 
    146 H146        1.8084  -22.2194  -42.4137 H         1 UNK         0.0600 
    147 H147        2.2968  -21.9505  -44.0848 H         1 UNK         0.0600 
    148 H148        1.9718  -23.5804  -43.5126 H         1 UNK         0.0600 
    149 H149        0.4573  -20.3262  -43.5078 H         1 UNK         0.3000 
    150 H150       -2.7724  -18.9103  -44.2392 H         1 UNK         0.0600 
    151 H151       -2.6383  -19.0875  -41.7640 H         1 UNK         0.0600 
    152 H152       -2.0961  -17.5048  -42.3044 H         1 UNK         0.0600 
    153 H153       -0.9195  -18.7190  -41.8080 H         1 UNK         0.0600 
    154 H154       -0.2491  -17.6571  -44.0063 H         1 UNK         0.3000 
    155 H155        0.8427  -18.1066  -47.3975 H         1 UNK         0.0600 
    156 H156        1.0310  -15.6728  -47.2099 H         1 UNK         0.0600 
    157 H157       -0.6735  -16.0937  -47.2569 H         1 UNK         0.0600 
    158 H158        0.0674  -15.6539  -45.7328 H         1 UNK         0.0600 
    159 H159        2.0360  -16.8905  -45.0941 H         1 UNK         0.3000 
    160 H160        3.8280  -19.7712  -43.9572 H         1 UNK         0.0600 
    161 H161        5.7143  -18.2440  -44.2647 H         1 UNK         0.0600 
    162 H162        4.7299  -17.1232  -45.2012 H         1 UNK         0.0600 
    163 H163        5.1230  -18.7101  -45.8527 H         1 UNK         0.0600 
    164 H164        3.6766  -17.0597  -43.0253 H         1 UNK         0.3000 
    165 H165        0.9694  -17.5274  -40.7578 H         1 UNK         0.0600 
    166 H166        2.6634  -16.7899  -39.1140 H         1 UNK         0.0600 
    167 H167        2.9538  -18.4635  -39.5588 H         1 UNK         0.0600 
    168 H168        3.9700  -17.1929  -40.2287 H         1 UNK         0.0600 
    169 H169        2.6268  -15.2868  -41.1380 H         1 UNK         0.3000 
    170 H170        1.5241  -13.3863  -41.9669 H         1 UNK         0.0600 
    171 H171        2.4293  -14.3573  -44.7337 H         1 UNK         0.0600 
    172 H172        2.6551  -12.7189  -44.1200 H         1 UNK         0.0600 
    173 H173        3.4624  -14.0695  -43.3412 H         1 UNK         0.0600 
    174 H174        0.1910  -13.2144  -44.5197 H         1 UNK         0.3000 
    175 H175       -3.0637  -13.1457  -43.5000 H         1 UNK         0.0600 
    176 H176       -1.6757  -10.4264  -43.2240 H         1 UNK         0.0600 
    177 H177       -3.3765  -10.6759  -43.6197 H         1 UNK         0.0600 
    178 H178       -2.7625  -11.1532  -42.0465 H         1 UNK         0.0600 
    179 H179       -1.4736  -11.5410  -45.3985 H         1 UNK         0.3000 
    180 H180       -1.4610  -13.9357  -47.9139 H         1 UNK         0.0600 
    181 H181       -2.7903  -12.4258  -49.3420 H         1 UNK         0.0600 
    182 H182       -3.4014  -11.5662  -47.9273 H         1 UNK         0.0600 
    183 H183       -3.8540  -13.2418  -48.2097 H         1 UNK         0.0600 
    184 H184       -0.9348  -11.2183  -48.2158 H         1 UNK         0.3000 
    185 H185        1.4594  -10.7666  -48.4593 H         1 UNK         0.0600 
    186 H186        1.1956   -9.9659  -45.4988 H         1 UNK         0.0600 
    187 H187        1.9042   -8.9624  -46.7637 H         1 UNK         0.0600 
    188 H188        0.1970   -9.3652  -46.8172 H         1 UNK         0.0600 
    189 H189        3.1846  -11.2252  -46.1339 H         1 UNK         0.3000 
    190 H190       -2.0187  -20.8576  -46.8980 H         1 UNK         0.3000 
    191 H191       -4.2017  -21.7323  -48.4446 H         1 UNK         0.0600 
    192 H192       -4.1849  -20.2892  -45.7385 H         1 UNK         0.0600 
    193 H193       -5.5550  -20.3801  -46.8319 H         1 UNK         0.0600 
    194 H194       -4.0999  -19.5187  -47.3195 H         1 UNK         0.0600 
    195 H195       -3.1960  -22.7505  -45.1617 H         1 UNK         0.3000 
    196 H196       -5.3759  -24.5284  -44.6743 H         1 UNK         0.0600 
    197 H197       -3.9477  -23.6224  -42.8653 H         1 UNK         0.0600 
    198 H198       -2.5458  -24.4800  -43.5004 H         1 UNK         0.0600 
    199 H199       -3.9082  -25.3792  -42.8444 H         1 UNK         0.0600 
    200 H200       -2.1310  -25.0522  -46.1230 H         1 UNK         0.3000 
    201 H201       -2.3889  -27.8796  -46.4824 H         1 UNK         0.0600 
    202 H202       -0.1982  -26.7147  -46.4624 H         1 UNK         0.0600 
    203 H203       -0.6211  -25.8384  -47.9320 H         1 UNK         0.0600 
    204 H204       -0.4123  -27.5843  -47.9747 H         1 UNK         0.0600 
    205 H205       -3.2561  -25.1087  -48.4963 H         1 UNK         0.3000 
    206 H206       -4.5596  -24.7751  -50.2158 H         1 UNK         0.0600 
    207 H207       -5.6971  -27.5977  -49.8110 H         1 UNK         0.0600 
    208 H208       -6.2802  -26.1252  -49.0469 H         1 UNK         0.0600 
    209 H209       -6.4212  -26.3186  -50.7820 H         1 UNK         0.0600 
    210 H210       -5.0797  -27.5608  -51.8894 H         1 UNK         0.3000 
    211 H211       -4.4157  -28.3630  -53.8464 H         1 UNK         0.0600 
    212 H212       -1.5869  -28.0538  -52.6849 H         1 UNK         0.0600 
    213 H213       -2.0117  -29.0165  -54.0986 H         1 UNK         0.0600 
    214 H214       -2.6463  -29.4449  -52.5207 H         1 UNK         0.0600 
    215 H215       -1.4081  -26.6922  -54.1830 H         1 UNK         0.3000 
    216 H216       -2.2484  -25.1813  -56.4793 H         1 UNK         0.0600 
    217 H217        0.0908  -24.3088  -56.3785 H         1 UNK         0.0600 
    218 H218        0.0616  -26.0571  -56.2159 H         1 UNK         0.0600 
    219 H219        0.3109  -25.0421  -54.7943 H         1 UNK         0.0600 
    220 H220       -2.2512  -24.4896  -53.0473 H         1 UNK         0.3000 
    221 H221       -2.7719  -21.5782  -53.5029 H         1 UNK         0.0600 
    222 H222       -1.6984  -23.0584  -51.0546 H         1 UNK         0.0600 
    223 H223       -0.7576  -22.0379  -52.1382 H         1 UNK         0.0600 
    224 H224       -2.0162  -21.3270  -51.1412 H         1 UNK         0.0600 
    225 H225       -4.6945  -23.9248  -53.7692 H         1 UNK         0.3000 
    226 H226       -6.4989  -23.9566  -51.5845 H         1 UNK         0.0600 
    227 H227       -6.4919  -25.7127  -53.3028 H         1 UNK         0.0600 
    228 H228       -8.0738  -24.9590  -53.2750 H         1 UNK         0.0600 
    229 H229       -6.9364  -24.5544  -54.5559 H         1 UNK         0.0600 
    230 H230       -5.9872  -21.4636  -53.8889 H         1 UNK         0.3000 
    231 H231       -8.5248  -20.0926  -53.6655 H         1 UNK         0.0600 
    232 H232       -7.2347  -18.2203  -54.6978 H         1 UNK         0.0600 
    233 H233       -6.9529  -19.7204  -55.5642 H         1 UNK         0.0600 
    234 H234       -5.7299  -19.0985  -54.4552 H         1 UNK         0.0600 
    235 H235       -6.0267  -20.6292  -51.4006 H         1 UNK         0.3000 
    236 H236       -5.5176  -19.9217  -49.3993 H         1 UNK         0.0600 
    237 H237       -8.3218  -18.6865  -49.3301 H         1 UNK         0.0600 
    238 H238       -7.9316  -20.3663  -48.9619 H         1 UNK         0.0600 
    239 H239       -7.3327  -19.0770  -47.9316 H         1 UNK         0.0600 
    240 H240       -4.6475  -18.3107  -51.5243 H         1 UNK         0.3000 
    241 H241       -3.5619  -16.4728  -52.0290 H         1 UNK         0.0600 
    242 H242       -6.7477  -16.3858  -51.8378 H         1 UNK         0.3800 
    243 H243       -7.0038  -14.6919  -52.1676 H         1 UNK         0.3800 
    244 H244       -3.6917  -15.6166  -49.1016 H         1 UNK         0.0800 
    245 H245       -2.6580  -14.9146  -50.3077 H         1 UNK         0.0800 
    246 H246       -0.9388  -17.0989  -51.8586 H         1 UNK         0.0800 
    247 H247       -0.5553  -15.6168  -51.0177 H         1 UNK         0.0800 
@<TRIPOS>BOND
     1    1    2 1    
     2    1  127 1    
     3    1  128 1    
     4    1  129 1    
     5    2    3 2    
     6    2    4 am   BACKBONE|DICT|INTERRES
     7    4    5 1    
     8    4  130 1    
     9    5    6 1    
    10    5   65 1    
    11    5  131 1    
    12    6    7 1    
    13    6  132 1    
    14    6  133 1    
    15    7    8 1    
    16    8    9 1    
    17    8  134 1    
    18    8  135 1    
    19    9   10 ar   
    20    9   14 ar   
    21   10   11 ar   
    22   10  136 1    
    23   11   12 ar   
    24   11  126 1    
    25   12   13 ar   
    26   12  137 1    
    27   13   14 ar   
    28   13   15 1    
    29   14  138 1    
    30   15   16 1    
    31   15  139 1    
    32   15  140 1    
    33   16   17 1    
    34   17   18 1    
    35   17  141 1    
    36   17  142 1    
    37   18   19 1    
    38   18   67 1    
    39   18  143 1    
    40   19   20 am   BACKBONE|DICT|INTERRES
    41   19  144 1    
    42   20   21 2    
    43   20   22 1    
    44   22   23 1    
    45   22   24 1    
    46   22  145 1    
    47   23  146 1    
    48   23  147 1    
    49   23  148 1    
    50   24   25 am   BACKBONE|DICT|INTERRES
    51   24  149 1    
    52   25   26 2    
    53   25   27 1    
    54   27   28 1    
    55   27   29 1    
    56   27  150 1    
    57   28  151 1    
    58   28  152 1    
    59   28  153 1    
    60   29   30 am   BACKBONE|DICT|INTERRES
    61   29  154 1    
    62   30   31 2    
    63   30   32 1    
    64   32   33 1    
    65   32   34 1    
    66   32  155 1    
    67   33  156 1    
    68   33  157 1    
    69   33  158 1    
    70   34   35 am   BACKBONE|DICT|INTERRES
    71   34  159 1    
    72   35   36 2    
    73   35   37 1    
    74   37   38 1    
    75   37   39 1    
    76   37  160 1    
    77   38  161 1    
    78   38  162 1    
    79   38  163 1    
    80   39   40 am   BACKBONE|DICT|INTERRES
    81   39  164 1    
    82   40   41 2    
    83   40   42 1    
    84   42   43 1    
    85   42   44 1    
    86   42  165 1    
    87   43  166 1    
    88   43  167 1    
    89   43  168 1    
    90   44   45 am   BACKBONE|DICT|INTERRES
    91   44  169 1    
    92   45   46 2    
    93   45   47 1    
    94   47   48 1    
    95   47   49 1    
    96   47  170 1    
    97   48  171 1    
    98   48  172 1    
    99   48  173 1    
   100   49   50 am   BACKBONE|DICT|INTERRES
   101   49  174 1    
   102   50   51 2    
   103   50   52 1    
   104   52   53 1    
   105   52   54 1    
   106   52  175 1    
   107   53  176 1    
   108   53  177 1    
   109   53  178 1    
   110   54   55 am   BACKBONE|DICT|INTERRES
   111   54  179 1    
   112   55   56 2    
   113   55   57 1    
   114   57   58 1    
   115   57   59 1    
   116   57  180 1    
   117   58  181 1    
   118   58  182 1    
   119   58  183 1    
   120   59   60 am   BACKBONE|DICT|INTERRES
   121   59  184 1    
   122   60   61 2    
   123   60   62 1    
   124   62   63 1    
   125   62   64 1    
   126   62  185 1    
   127   63  186 1    
   128   63  187 1    
   129   63  188 1    
   130   64   65 am   BACKBONE|DICT|INTERRES
   131   64  189 1    
   132   65   66 2    
   133   67   68 2    
   134   67   69 am   BACKBONE|DICT|INTERRES
   135   69   70 1    
   136   69  190 1    
   137   70   71 1    
   138   70   72 1    
   139   70  191 1    
   140   71  192 1    
   141   71  193 1    
   142   71  194 1    
   143   72   73 2    
   144   72   74 am   BACKBONE|DICT|INTERRES
   145   74   75 1    
   146   74  195 1    
   147   75   76 1    
   148   75   77 1    
   149   75  196 1    
   150   76  197 1    
   151   76  198 1    
   152   76  199 1    
   153   77   78 2    
   154   77   79 am   BACKBONE|DICT|INTERRES
   155   79   80 1    
   156   79  200 1    
   157   80   81 1    
   158   80   82 1    
   159   80  201 1    
   160   81  202 1    
   161   81  203 1    
   162   81  204 1    
   163   82   83 2    
   164   82   84 am   BACKBONE|DICT|INTERRES
   165   84   85 1    
   166   84  205 1    
   167   85   86 1    
   168   85   87 1    
   169   85  206 1    
   170   86  207 1    
   171   86  208 1    
   172   86  209 1    
   173   87   88 2    
   174   87   89 am   BACKBONE|DICT|INTERRES
   175   89   90 1    
   176   89  210 1    
   177   90   91 1    
   178   90   92 1    
   179   90  211 1    
   180   91  212 1    
   181   91  213 1    
   182   91  214 1    
   183   92   93 2    
   184   92   94 am   BACKBONE|DICT|INTERRES
   185   94   95 1    
   186   94  215 1    
   187   95   96 1    
   188   95   97 1    
   189   95  216 1    
   190   96  217 1    
   191   96  218 1    
   192   96  219 1    
   193   97   98 2    
   194   97   99 am   BACKBONE|DICT|INTERRES
   195   99  100 1    
   196   99  220 1    
   197  100  101 1    
   198  100  102 1    
   199  100  221 1    
   200  101  222 1    
   201  101  223 1    
   202  101  224 1    
   203  102  103 2    
   204  102  104 am   BACKBONE|DICT|INTERRES
   205  104  105 1    
   206  104  225 1    
   207  105  106 1    
   208  105  107 1    
   209  105  226 1    
   210  106  227 1    
   211  106  228 1    
   212  106  229 1    
   213  107  108 2    
   214  107  109 am   BACKBONE|DICT|INTERRES
   215  109  110 1    
   216  109  230 1    
   217  110  111 1    
   218  110  112 1    
   219  110  231 1    
   220  111  232 1    
   221  111  233 1    
   222  111  234 1    
   223  112  113 2    
   224  112  114 am   BACKBONE|DICT|INTERRES
   225  114  115 1    
   226  114  235 1    
   227  115  116 1    
   228  115  117 1    
   229  115  236 1    
   230  116  237 1    
   231  116  238 1    
   232  116  239 1    
   233  117  118 2    
   234  117  119 am   BACKBONE|DICT|INTERRES
   235  119  120 1    
   236  119  240 1    
   237  120  121 1    
   238  120  124 1    
   239  120  241 1    
   240  121  122 am   BACKBONE|DICT|INTERRES
   241  121  123 2    
   242  122  242 1    
   243  122  243 1    
   244  124  125 1    
   245  124  244 1    
   246  124  245 1    
   247  125  126 1    
   248  126  246 1    
   249  126  247 1    
@<TRIPOS>SUBSTRUCTURE
     1 UNK         1 GROUP             0       ****    0 ROOT    
