@<TRIPOS>MOLECULE
3R540
247   249    1
SMALL
USER_CHARGES


@<TRIPOS>ATOM
      1 CA          2.5205  -11.5475  -52.4765 C.3       0 UNK        -0.1800 
      2 C           2.8496  -11.7079  -50.9994 C.2       0 UNK         0.5000 
      3 O           2.3478  -10.9454  -50.1728 O.2       0 UNK        -0.5000 
      4 N           3.6845  -12.7019  -50.6621 N.am      1 UNK        -0.5000 
      5 CA          4.1196  -13.0156  -49.2910 C.3       1 UNK         0.1400 
      6 C6          5.4065  -13.9078  -49.2859 C.3       23 UNK        -0.0398 
      7 S7          5.5104  -15.3302  -48.1341 S.3       23 UNK        -0.2404 
      8 C8          5.5823  -16.7647  -49.2529 C.3       23 UNK        -0.0205 
      9 C9          4.2455  -17.0633  -49.9166 C.ar      23 UNK        -0.0193 
     10 C10         3.9440  -16.5054  -51.1630 C.ar      23 UNK        -0.1150 
     11 C11         2.7393  -16.8057  -51.8007 C.ar      23 UNK        -0.0193 
     12 C12         1.8437  -17.6884  -51.1933 C.ar      23 UNK        -0.1150 
     13 C13         2.1245  -18.2493  -49.9456 C.ar      23 UNK        -0.0193 
     14 C14         3.3277  -17.9287  -49.3076 C.ar      23 UNK        -0.1150 
     15 C15         1.1215  -19.2006  -49.3069 C.3       23 UNK        -0.0205 
     16 S16        -0.2798  -18.2762  -48.6070 S.3       23 UNK        -0.2404 
     17 C17        -1.5710  -19.5152  -48.2412 C.3       23 UNK        -0.0398 
     18 CA         -1.1347  -20.9753  -47.9548 C.3       11 UNK         0.1400 
     19 N          -0.1818  -21.0942  -46.8464 N.am      11 UNK        -0.5000 
     20 C           0.3994  -22.2367  -46.4496 C.2       10 UNK         0.5000 
     21 O           0.2514  -23.3131  -47.0272 O.2       10 UNK        -0.5000 
     22 CA          1.2435  -22.1847  -45.1627 C.3       10 UNK         0.1400 
     23 CB          2.6880  -21.7541  -45.4611 C.3       10 UNK        -0.1800 
     24 N           0.6551  -21.3058  -44.1502 N.am      10 UNK        -0.5000 
     25 C          -0.4669  -21.5843  -43.4711 C.2       9 UNK         0.5000 
     26 O          -1.0933  -22.6364  -43.5973 O.2       9 UNK        -0.5000 
     27 CA         -1.0078  -20.4893  -42.5298 C.3       9 UNK         0.1400 
     28 CB         -0.2686  -20.5091  -41.1840 C.3       9 UNK        -0.1800 
     29 N          -0.9237  -19.1494  -43.1106 N.am      9 UNK        -0.5000 
     30 C          -1.5741  -18.7611  -44.2167 C.2       8 UNK         0.5000 
     31 O          -2.3803  -19.4701  -44.8182 O.2       8 UNK        -0.5000 
     32 CA         -1.2190  -17.3733  -44.7814 C.3       8 UNK         0.1400 
     33 CB         -2.0718  -16.2868  -44.1109 C.3       8 UNK        -0.1800 
     34 N           0.2007  -17.0384  -44.6491 N.am      8 UNK        -0.5000 
     35 C           1.2170  -17.7665  -45.1343 C.2       7 UNK         0.5000 
     36 O           1.0722  -18.8217  -45.7429 O.2       7 UNK        -0.5000 
     37 CA          2.6375  -17.2744  -44.8353 C.3       7 UNK         0.1400 
     38 CB          3.0091  -16.1077  -45.7513 C.3       7 UNK        -0.1800 
     39 N           2.7747  -16.8738  -43.4389 N.am      7 UNK        -0.5000 
     40 C           2.8319  -17.7339  -42.4133 C.2       6 UNK         0.5000 
     41 O           2.8484  -18.9579  -42.5456 O.2       6 UNK        -0.5000 
     42 CA          2.8422  -17.1189  -41.0016 C.3       6 UNK         0.1400 
     43 CB          4.2799  -16.8157  -40.5542 C.3       6 UNK        -0.1800 
     44 N           2.0415  -15.8955  -40.9158 N.am      6 UNK        -0.5000 
     45 C           0.7055  -15.8599  -41.0179 C.2       5 UNK         0.5000 
     46 O           0.0037  -16.8622  -41.1604 O.2       5 UNK        -0.5000 
     47 CA          0.0529  -14.4636  -40.9985 C.3       5 UNK         0.1400 
     48 CB         -0.1796  -13.9963  -39.5540 C.3       5 UNK        -0.1800 
     49 N           0.8196  -13.4424  -41.7239 N.am      5 UNK        -0.5000 
     50 C           1.0685  -13.4801  -43.0397 C.2       4 UNK         0.5000 
     51 O           0.7430  -14.4226  -43.7609 O.2       4 UNK        -0.5000 
     52 CA          1.8475  -12.2992  -43.6447 C.3       4 UNK         0.1400 
     53 CB          3.3442  -12.6335  -43.7346 C.3       4 UNK        -0.1800 
     54 N           1.3467  -11.9769  -44.9816 N.am      4 UNK        -0.5000 
     55 C           0.2004  -11.3200  -45.2149 C.2       3 UNK         0.5000 
     56 O          -0.4943  -10.8329  -44.3213 O.2       3 UNK        -0.5000 
     57 CA         -0.2568  -11.1675  -46.6819 C.3       3 UNK         0.1400 
     58 CB          0.1831   -9.8069  -47.2433 C.3       3 UNK        -0.1800 
     59 N           0.2375  -12.2215  -47.5662 N.am      3 UNK        -0.5000 
     60 C          -0.1027  -13.5154  -47.4890 C.2       2 UNK         0.5000 
     61 O          -0.9748  -13.9397  -46.7319 O.2       2 UNK        -0.5000 
     62 CA          0.6328  -14.5068  -48.4167 C.3       2 UNK         0.1400 
     63 CB         -0.3082  -14.9186  -49.5593 C.3       2 UNK        -0.1800 
     64 N           1.8878  -14.0309  -49.0124 N.am      2 UNK        -0.5000 
     65 C           2.9478  -13.4863  -48.3921 C.2       1 UNK         0.5000 
     66 O           2.9972  -13.2718  -47.1803 O.2       1 UNK        -0.5000 
     67 C          -2.3891  -21.8366  -47.7025 C.2       11 UNK         0.5000 
     68 O          -2.8283  -22.5461  -48.6073 O.2       11 UNK        -0.5000 
     69 N          -2.9337  -21.7644  -46.4793 N.am      12 UNK        -0.5000 
     70 CA         -4.0832  -22.5468  -46.0272 C.3       12 UNK         0.1400 
     71 CB         -4.5741  -22.0065  -44.6766 C.3       12 UNK        -0.1800 
     72 C          -3.7827  -24.0524  -45.9414 C.2       12 UNK         0.5000 
     73 O          -4.6237  -24.8569  -46.3376 O.2       12 UNK        -0.5000 
     74 N          -2.5806  -24.4131  -45.4708 N.am      13 UNK        -0.5000 
     75 CA         -2.0999  -25.7969  -45.4067 C.3       13 UNK         0.1400 
     76 CB         -0.7885  -25.8439  -44.6086 C.3       13 UNK        -0.1800 
     77 C          -1.9143  -26.4509  -46.7918 C.2       13 UNK         0.5000 
     78 O          -2.0033  -27.6742  -46.8996 O.2       13 UNK        -0.5000 
     79 N          -1.6744  -25.6308  -47.8232 N.am      14 UNK        -0.5000 
     80 CA         -1.5177  -26.0502  -49.2151 C.3       14 UNK         0.1400 
     81 CB         -0.6902  -24.9905  -49.9590 C.3       14 UNK        -0.1800 
     82 C          -2.8514  -26.3259  -49.9432 C.2       14 UNK         0.5000 
     83 O          -2.8113  -26.8081  -51.0755 O.2       14 UNK        -0.5000 
     84 N          -3.9983  -26.0287  -49.3115 N.am      15 UNK        -0.5000 
     85 CA         -5.3414  -26.3291  -49.8195 C.3       15 UNK         0.1400 
     86 CB         -6.3736  -25.7173  -48.8590 C.3       15 UNK        -0.1800 
     87 C          -5.5646  -27.8559  -49.9377 C.2       15 UNK         0.5000 
     88 O          -5.2641  -28.5580  -48.9716 O.2       15 UNK        -0.5000 
     89 N          -6.0903  -28.4212  -51.0374 N.am      16 UNK        -0.5000 
     90 CA         -6.5378  -27.8612  -52.3221 C.3       16 UNK         0.1400 
     91 CB         -5.3819  -27.2533  -53.1449 C.3       16 UNK        -0.1800 
     92 C          -7.7937  -26.9713  -52.2379 C.2       16 UNK         0.5000 
     93 O          -7.9687  -26.0791  -53.0682 O.2       16 UNK        -0.5000 
     94 N          -8.6576  -27.2592  -51.2523 N.am      17 UNK        -0.5000 
     95 CA         -9.9832  -26.6825  -50.9709 C.3       17 UNK         0.1400 
     96 CB        -10.9556  -26.9203  -52.1422 C.3       17 UNK        -0.1800 
     97 C          -9.9868  -25.2005  -50.5430 C.2       17 UNK         0.5000 
     98 O         -10.6405  -24.8620  -49.5557 O.2       17 UNK        -0.5000 
     99 N          -9.2559  -24.3549  -51.2714 N.am      18 UNK        -0.5000 
    100 CA        -9.0238  -22.9442  -50.9832 C.3       18 UNK         0.1400 
    101 CB        -9.5113  -22.1082  -52.1767 C.3       18 UNK        -0.1800 
    102 C         -7.5216  -22.7290  -50.7543 C.2       18 UNK         0.5000 
    103 O         -6.7052  -23.4835  -51.2894 O.2       18 UNK        -0.5000 
    104 N         -7.1811  -21.7015  -49.9670 N.am      19 UNK        -0.5000 
    105 CA        -5.8025  -21.3287  -49.6530 C.3       19 UNK         0.1400 
    106 CB        -5.8054  -20.2259  -48.5823 C.3       19 UNK        -0.1800 
    107 C         -5.0332  -20.8644  -50.9027 C.2       19 UNK         0.5000 
    108 O         -5.5662  -20.0861  -51.6977 O.2       19 UNK        -0.5000 
    109 N         -3.7822  -21.3163  -51.0342 N.am      20 UNK        -0.5000 
    110 CA        -2.8853  -21.0321  -52.1571 C.3       20 UNK         0.1400 
    111 CB        -1.8442  -22.1620  -52.2448 C.3       20 UNK        -0.1800 
    112 C         -2.2293  -19.6383  -52.0484 C.2       20 UNK         0.5000 
    113 O         -1.0101  -19.5179  -52.1703 O.2       20 UNK        -0.5000 
    114 N         -3.0426  -18.6051  -51.7980 N.am      21 UNK        -0.5000 
    115 CA        -2.6380  -17.2215  -51.5382 C.3       21 UNK         0.1400 
    116 CB        -3.7615  -16.5222  -50.7532 C.3       21 UNK        -0.1800 
    117 C         -2.2265  -16.4594  -52.8162 C.2       21 UNK         0.5000 
    118 O         -2.8078  -15.4228  -53.1409 O.2       21 UNK        -0.5000 
    119 N         -1.2272  -17.0043  -53.5174 N.am      22 UNK        -0.5000 
    120 CA        -0.5788  -16.4600  -54.7243 C.3       22 UNK         0.1400 
    121 C         -1.4615  -16.4585  -56.0101 C.2       22 UNK         0.5000 
    122 N         -2.6023  -17.1364  -56.0344 N.am      22 UNK        -0.7600 
    123 O         -1.0922  -15.8615  -57.0180 O.2       22 UNK        -0.5000 
    124 C124        0.1331  -15.0889  -54.4996 C.3       23 UNK        -0.0398 
    125 S125        1.0907  -14.9324  -52.9485 S.3       23 UNK        -0.2404 
    126 C126        2.3948  -16.1862  -53.1446 C.3       23 UNK        -0.0205 
    127 H127        2.8141  -10.5563  -52.8216 H         1 UNK         0.0600 
    128 H128        3.0346  -12.2882  -53.0895 H         1 UNK         0.0600 
    129 H129        1.4482  -11.6622  -52.6353 H         1 UNK         0.0600 
    130 H130        4.0541  -13.2950  -51.3905 H         1 UNK         0.3000 
    131 H131        4.4193  -12.0602  -48.8538 H         1 UNK         0.0600 
    132 H132        6.2614  -13.2702  -49.0565 H         1 UNK         0.0800 
    133 H133        5.6208  -14.2738  -50.2890 H         1 UNK         0.0800 
    134 H134        6.3556  -16.6052  -50.0060 H         1 UNK         0.0800 
    135 H135        5.9025  -17.6345  -48.6774 H         1 UNK         0.0800 
    136 H136        4.6509  -15.8459  -51.6443 H         1 UNK         0.1150 
    137 H137        0.9119  -17.9226  -51.6851 H         1 UNK         0.1150 
    138 H138        3.5549  -18.3613  -48.3434 H         1 UNK         0.1150 
    139 H139        0.7615  -19.9000  -50.0623 H         1 UNK         0.0800 
    140 H140        1.6001  -19.7910  -48.5247 H         1 UNK         0.0800 
    141 H141       -2.2553  -19.5003  -49.0899 H         1 UNK         0.0800 
    142 H142       -2.1490  -19.1224  -47.4048 H         1 UNK         0.0800 
    143 H143       -0.6497  -21.3742  -48.8473 H         1 UNK         0.0600 
    144 H144        0.0671  -20.2341  -46.3615 H         1 UNK         0.3000 
    145 H145        1.2792  -23.1941  -44.7484 H         1 UNK         0.0600 
    146 H146        3.2867  -21.7239  -44.5505 H         1 UNK         0.0600 
    147 H147        3.1670  -22.4578  -46.1428 H         1 UNK         0.0600 
    148 H148        2.7369  -20.7700  -45.9258 H         1 UNK         0.0600 
    149 H149        1.0807  -20.3948  -44.0403 H         1 UNK         0.3000 
    150 H150       -2.0617  -20.7048  -42.3422 H         1 UNK         0.0600 
    151 H151       -0.3452  -21.4890  -40.7111 H         1 UNK         0.0600 
    152 H152       -0.6898  -19.7792  -40.4923 H         1 UNK         0.0600 
    153 H153        0.7914  -20.2831  -41.3025 H         1 UNK         0.0600 
    154 H154       -0.3143  -18.4838  -42.6503 H         1 UNK         0.3000 
    155 H155       -1.4507  -17.3757  -45.8474 H         1 UNK         0.0600 
    156 H156       -1.8894  -16.2373  -43.0377 H         1 UNK         0.0600 
    157 H157       -3.1350  -16.4821  -44.2550 H         1 UNK         0.0600 
    158 H158       -1.8619  -15.3034  -44.5312 H         1 UNK         0.0600 
    159 H159        0.4118  -16.1466  -44.2047 H         1 UNK         0.3000 
    160 H160        3.3318  -18.0940  -45.0338 H         1 UNK         0.0600 
    161 H161        2.3239  -15.2697  -45.6341 H         1 UNK         0.0600 
    162 H162        2.9721  -16.4095  -46.7981 H         1 UNK         0.0600 
    163 H163        4.0175  -15.7490  -45.5474 H         1 UNK         0.0600 
    164 H164        2.7065  -15.8868  -43.2417 H         1 UNK         0.3000 
    165 H165        2.4174  -17.8550  -40.3155 H         1 UNK         0.0600 
    166 H166        4.3043  -16.4462  -39.5288 H         1 UNK         0.0600 
    167 H167        4.8967  -17.7148  -40.5892 H         1 UNK         0.0600 
    168 H168        4.7525  -16.0682  -41.1927 H         1 UNK         0.0600 
    169 H169        2.5408  -15.0264  -40.7977 H         1 UNK         0.3000 
    170 H170       -0.9206  -14.5519  -41.4849 H         1 UNK         0.0600 
    171 H171       -0.7644  -14.7290  -38.9961 H         1 UNK         0.0600 
    172 H172        0.7604  -13.8513  -39.0201 H         1 UNK         0.0600 
    173 H173       -0.7301  -13.0558  -39.5274 H         1 UNK         0.0600 
    174 H174        1.1278  -12.6444  -41.1871 H         1 UNK         0.3000 
    175 H175        1.7267  -11.4253  -43.0012 H         1 UNK         0.0600 
    176 H176        3.5285  -13.4929  -44.3795 H         1 UNK         0.0600 
    177 H177        3.9109  -11.7924  -44.1343 H         1 UNK         0.0600 
    178 H178        3.7553  -12.8651  -42.7514 H         1 UNK         0.0600 
    179 H179        1.8425  -12.3945  -45.7634 H         1 UNK         0.3000 
    180 H180       -1.3480  -11.2057  -46.6911 H         1 UNK         0.0600 
    181 H181        1.2700   -9.7227  -47.2840 H         1 UNK         0.0600 
    182 H182       -0.1881   -8.9889  -46.6246 H         1 UNK         0.0600 
    183 H183       -0.2022   -9.6526  -48.2515 H         1 UNK         0.0600 
    184 H184        0.9583  -11.9581  -48.2243 H         1 UNK         0.3000 
    185 H185        0.8682  -15.3922  -47.8237 H         1 UNK         0.0600 
    186 H186       -1.2469  -15.3158  -49.1712 H         1 UNK         0.0600 
    187 H187       -0.5497  -14.0756  -50.2078 H         1 UNK         0.0600 
    188 H188        0.1383  -15.6970  -50.1756 H         1 UNK         0.0600 
    189 H189        1.9546  -14.1383  -50.0141 H         1 UNK         0.3000 
    190 H190       -2.5483  -21.1035  -45.8093 H         1 UNK         0.3000 
    191 H191       -4.8862  -22.4161  -46.7543 H         1 UNK         0.0600 
    192 H192       -3.8028  -22.0780  -43.9093 H         1 UNK         0.0600 
    193 H193       -5.4427  -22.5642  -44.3243 H         1 UNK         0.0600 
    194 H194       -4.8693  -20.9600  -44.7563 H         1 UNK         0.0600 
    195 H195       -1.9622  -23.6979  -45.1023 H         1 UNK         0.3000 
    196 H196       -2.8462  -26.3832  -44.8666 H         1 UNK         0.0600 
    197 H197       -0.4310  -26.8691  -44.5045 H         1 UNK         0.0600 
    198 H198       -0.9222  -25.4433  -43.6036 H         1 UNK         0.0600 
    199 H199       -0.0009  -25.2707  -45.0973 H         1 UNK         0.0600 
    200 H200       -1.5745  -24.6408  -47.6373 H         1 UNK         0.3000 
    201 H201       -0.9507  -26.9832  -49.2319 H         1 UNK         0.0600 
    202 H202        0.2855  -24.8529  -49.4924 H         1 UNK         0.0600 
    203 H203       -1.1940  -24.0263  -49.9669 H         1 UNK         0.0600 
    204 H204       -0.5166  -25.2794  -50.9962 H         1 UNK         0.0600 
    205 H205       -3.9490  -25.6586  -48.3712 H         1 UNK         0.3000 
    206 H206       -5.4518  -25.8349  -50.7792 H         1 UNK         0.0600 
    207 H207       -6.1915  -24.6534  -48.7072 H         1 UNK         0.0600 
    208 H208       -7.3841  -25.8185  -49.2497 H         1 UNK         0.0600 
    209 H209       -6.3535  -26.2015  -47.8820 H         1 UNK         0.0600 
    210 H210       -6.1991  -29.4245  -50.9934 H         1 UNK         0.3000 
    211 H211       -6.8695  -28.7347  -52.8854 H         1 UNK         0.0600 
    212 H212       -5.0926  -26.2563  -52.8192 H         1 UNK         0.0600 
    213 H213       -5.6711  -27.1623  -54.1924 H         1 UNK         0.0600 
    214 H214       -4.4962  -27.8880  -53.1131 H         1 UNK         0.0600 
    215 H215       -8.3883  -28.0053  -50.6259 H         1 UNK         0.3000 
    216 H216      -10.3658  -27.2467  -50.1188 H         1 UNK         0.0600 
    217 H217      -11.9607  -26.5820  -51.8873 H         1 UNK         0.0600 
    218 H218      -11.0229  -27.9796  -52.3898 H         1 UNK         0.0600 
    219 H219      -10.6517  -26.3840  -53.0415 H         1 UNK         0.0600 
    220 H220       -8.6940  -24.7489  -52.0239 H         1 UNK         0.3000 
    221 H221       -9.5637  -22.6361  -50.0855 H         1 UNK         0.0600 
    222 H222       -8.9837  -22.3722  -53.0944 H         1 UNK         0.0600 
    223 H223      -10.5775  -22.2551  -52.3498 H         1 UNK         0.0600 
    224 H224       -9.3531  -21.0435  -52.0008 H         1 UNK         0.0600 
    225 H225       -7.9045  -21.1031  -49.5962 H         1 UNK         0.3000 
    226 H226       -5.3138  -22.2137  -49.2424 H         1 UNK         0.0600 
    227 H227       -6.3129  -20.5547  -47.6753 H         1 UNK         0.0600 
    228 H228       -4.7889  -19.9486  -48.3016 H         1 UNK         0.0600 
    229 H229       -6.3038  -19.3227  -48.9369 H         1 UNK         0.0600 
    230 H230       -3.4100  -21.9173  -50.3032 H         1 UNK         0.3000 
    231 H231       -3.4673  -21.0435  -53.0809 H         1 UNK         0.0600 
    232 H232       -1.2237  -22.0539  -53.1352 H         1 UNK         0.0600 
    233 H233       -2.3220  -23.1406  -52.2995 H         1 UNK         0.0600 
    234 H234       -1.1792  -22.1584  -51.3808 H         1 UNK         0.0600 
    235 H235       -4.0377  -18.8009  -51.7594 H         1 UNK         0.3000 
    236 H236       -1.7562  -17.2398  -50.8969 H         1 UNK         0.0600 
    237 H237       -4.6901  -16.4888  -51.3242 H         1 UNK         0.0600 
    238 H238       -3.9627  -17.0371  -49.8135 H         1 UNK         0.0600 
    239 H239       -3.4877  -15.4956  -50.5062 H         1 UNK         0.0600 
    240 H240       -0.8613  -17.8892  -53.1780 H         1 UNK         0.3000 
    241 H241        0.1956  -17.1875  -54.9620 H         1 UNK         0.0600 
    242 H242       -3.1612  -17.1391  -56.8733 H         1 UNK         0.3800 
    243 H243       -2.9213  -17.6281  -55.2157 H         1 UNK         0.3800 
    244 H244        0.8045  -14.8725  -55.3320 H         1 UNK         0.0800 
    245 H245       -0.6070  -14.2872  -54.4974 H         1 UNK         0.0800 
    246 H246        2.0833  -16.9798  -53.8215 H         1 UNK         0.0800 
    247 H247        3.2706  -15.7220  -53.6003 H         1 UNK         0.0800 
@<TRIPOS>BOND
     1    1    2 1    
     2    1  127 1    
     3    1  128 1    
     4    1  129 1    
     5    2    3 2    
     6    2    4 am   BACKBONE|DICT|INTERRES
     7    4    5 1    
     8    4  130 1    
     9    5    6 1    
    10    5   65 1    
    11    5  131 1    
    12    6    7 1    
    13    6  132 1    
    14    6  133 1    
    15    7    8 1    
    16    8    9 1    
    17    8  134 1    
    18    8  135 1    
    19    9   10 ar   
    20    9   14 ar   
    21   10   11 ar   
    22   10  136 1    
    23   11   12 ar   
    24   11  126 1    
    25   12   13 ar   
    26   12  137 1    
    27   13   14 ar   
    28   13   15 1    
    29   14  138 1    
    30   15   16 1    
    31   15  139 1    
    32   15  140 1    
    33   16   17 1    
    34   17   18 1    
    35   17  141 1    
    36   17  142 1    
    37   18   19 1    
    38   18   67 1    
    39   18  143 1    
    40   19   20 am   BACKBONE|DICT|INTERRES
    41   19  144 1    
    42   20   21 2    
    43   20   22 1    
    44   22   23 1    
    45   22   24 1    
    46   22  145 1    
    47   23  146 1    
    48   23  147 1    
    49   23  148 1    
    50   24   25 am   BACKBONE|DICT|INTERRES
    51   24  149 1    
    52   25   26 2    
    53   25   27 1    
    54   27   28 1    
    55   27   29 1    
    56   27  150 1    
    57   28  151 1    
    58   28  152 1    
    59   28  153 1    
    60   29   30 am   BACKBONE|DICT|INTERRES
    61   29  154 1    
    62   30   31 2    
    63   30   32 1    
    64   32   33 1    
    65   32   34 1    
    66   32  155 1    
    67   33  156 1    
    68   33  157 1    
    69   33  158 1    
    70   34   35 am   BACKBONE|DICT|INTERRES
    71   34  159 1    
    72   35   36 2    
    73   35   37 1    
    74   37   38 1    
    75   37   39 1    
    76   37  160 1    
    77   38  161 1    
    78   38  162 1    
    79   38  163 1    
    80   39   40 am   BACKBONE|DICT|INTERRES
    81   39  164 1    
    82   40   41 2    
    83   40   42 1    
    84   42   43 1    
    85   42   44 1    
    86   42  165 1    
    87   43  166 1    
    88   43  167 1    
    89   43  168 1    
    90   44   45 am   BACKBONE|DICT|INTERRES
    91   44  169 1    
    92   45   46 2    
    93   45   47 1    
    94   47   48 1    
    95   47   49 1    
    96   47  170 1    
    97   48  171 1    
    98   48  172 1    
    99   48  173 1    
   100   49   50 am   BACKBONE|DICT|INTERRES
   101   49  174 1    
   102   50   51 2    
   103   50   52 1    
   104   52   53 1    
   105   52   54 1    
   106   52  175 1    
   107   53  176 1    
   108   53  177 1    
   109   53  178 1    
   110   54   55 am   BACKBONE|DICT|INTERRES
   111   54  179 1    
   112   55   56 2    
   113   55   57 1    
   114   57   58 1    
   115   57   59 1    
   116   57  180 1    
   117   58  181 1    
   118   58  182 1    
   119   58  183 1    
   120   59   60 am   BACKBONE|DICT|INTERRES
   121   59  184 1    
   122   60   61 2    
   123   60   62 1    
   124   62   63 1    
   125   62   64 1    
   126   62  185 1    
   127   63  186 1    
   128   63  187 1    
   129   63  188 1    
   130   64   65 am   BACKBONE|DICT|INTERRES
   131   64  189 1    
   132   65   66 2    
   133   67   68 2    
   134   67   69 am   BACKBONE|DICT|INTERRES
   135   69   70 1    
   136   69  190 1    
   137   70   71 1    
   138   70   72 1    
   139   70  191 1    
   140   71  192 1    
   141   71  193 1    
   142   71  194 1    
   143   72   73 2    
   144   72   74 am   BACKBONE|DICT|INTERRES
   145   74   75 1    
   146   74  195 1    
   147   75   76 1    
   148   75   77 1    
   149   75  196 1    
   150   76  197 1    
   151   76  198 1    
   152   76  199 1    
   153   77   78 2    
   154   77   79 am   BACKBONE|DICT|INTERRES
   155   79   80 1    
   156   79  200 1    
   157   80   81 1    
   158   80   82 1    
   159   80  201 1    
   160   81  202 1    
   161   81  203 1    
   162   81  204 1    
   163   82   83 2    
   164   82   84 am   BACKBONE|DICT|INTERRES
   165   84   85 1    
   166   84  205 1    
   167   85   86 1    
   168   85   87 1    
   169   85  206 1    
   170   86  207 1    
   171   86  208 1    
   172   86  209 1    
   173   87   88 2    
   174   87   89 am   BACKBONE|DICT|INTERRES
   175   89   90 1    
   176   89  210 1    
   177   90   91 1    
   178   90   92 1    
   179   90  211 1    
   180   91  212 1    
   181   91  213 1    
   182   91  214 1    
   183   92   93 2    
   184   92   94 am   BACKBONE|DICT|INTERRES
   185   94   95 1    
   186   94  215 1    
   187   95   96 1    
   188   95   97 1    
   189   95  216 1    
   190   96  217 1    
   191   96  218 1    
   192   96  219 1    
   193   97   98 2    
   194   97   99 am   BACKBONE|DICT|INTERRES
   195   99  100 1    
   196   99  220 1    
   197  100  101 1    
   198  100  102 1    
   199  100  221 1    
   200  101  222 1    
   201  101  223 1    
   202  101  224 1    
   203  102  103 2    
   204  102  104 am   BACKBONE|DICT|INTERRES
   205  104  105 1    
   206  104  225 1    
   207  105  106 1    
   208  105  107 1    
   209  105  226 1    
   210  106  227 1    
   211  106  228 1    
   212  106  229 1    
   213  107  108 2    
   214  107  109 am   BACKBONE|DICT|INTERRES
   215  109  110 1    
   216  109  230 1    
   217  110  111 1    
   218  110  112 1    
   219  110  231 1    
   220  111  232 1    
   221  111  233 1    
   222  111  234 1    
   223  112  113 2    
   224  112  114 am   BACKBONE|DICT|INTERRES
   225  114  115 1    
   226  114  235 1    
   227  115  116 1    
   228  115  117 1    
   229  115  236 1    
   230  116  237 1    
   231  116  238 1    
   232  116  239 1    
   233  117  118 2    
   234  117  119 am   BACKBONE|DICT|INTERRES
   235  119  120 1    
   236  119  240 1    
   237  120  121 1    
   238  120  124 1    
   239  120  241 1    
   240  121  122 am   BACKBONE|DICT|INTERRES
   241  121  123 2    
   242  122  242 1    
   243  122  243 1    
   244  124  125 1    
   245  124  244 1    
   246  124  245 1    
   247  125  126 1    
   248  126  246 1    
   249  126  247 1    
@<TRIPOS>SUBSTRUCTURE
     1 UNK         1 GROUP             0       ****    0 ROOT    
