@<TRIPOS>MOLECULE
3R540
247   249    1
SMALL
USER_CHARGES


@<TRIPOS>ATOM
      1 CA         -4.6047  -11.8833  -46.9876 C.3       0 UNK        -0.1800 
      2 C          -4.2858  -13.2222  -46.3252 C.2       0 UNK         0.5000 
      3 O          -4.5910  -13.4003  -45.1485 O.2       0 UNK        -0.5000 
      4 N          -3.6828  -14.1943  -47.0253 N.am      1 UNK        -0.5000 
      5 CA         -3.2496  -14.1547  -48.4323 C.3       1 UNK         0.1400 
      6 C6         -2.9634  -15.5727  -48.9898 C.3       23 UNK        -0.0398 
      7 S7         -4.3635  -16.7257  -48.7859 S.3       23 UNK        -0.2404 
      8 C8         -3.6637  -17.8992  -47.5812 C.3       23 UNK        -0.0205 
      9 C9         -4.6293  -19.0170  -47.2119 C.ar      23 UNK        -0.0193 
     10 C10        -5.2285  -19.8065  -48.1988 C.ar      23 UNK        -0.1150 
     11 C11        -6.0714  -20.8661  -47.8541 C.ar      23 UNK        -0.0193 
     12 C12        -6.3196  -21.1337  -46.5053 C.ar      23 UNK        -0.1150 
     13 C13        -5.7314  -20.3498  -45.5087 C.ar      23 UNK        -0.0193 
     14 C14        -4.8922  -19.2914  -45.8683 C.ar      23 UNK        -0.1150 
     15 C15        -5.9827  -20.6598  -44.0415 C.3       23 UNK        -0.0205 
     16 S16        -5.0237  -22.1032  -43.4828 S.3       23 UNK        -0.2404 
     17 C17        -3.3108  -21.5633  -43.8116 C.3       23 UNK        -0.0398 
     18 CA         -2.7239  -22.1957  -45.1015 C.3       11 UNK         0.1400 
     19 N          -1.6014  -21.4232  -45.6397 N.am      11 UNK        -0.5000 
     20 C          -1.0271  -21.6251  -46.8336 C.2       10 UNK         0.5000 
     21 O          -1.4500  -22.4147  -47.6758 O.2       10 UNK        -0.5000 
     22 CA          0.2594  -20.8423  -47.1466 C.3       10 UNK         0.1400 
     23 CB         -0.0679  -19.5210  -47.8525 C.3       10 UNK        -0.1800 
     24 N           1.0845  -20.5859  -45.9689 N.am      10 UNK        -0.5000 
     25 C           1.6876  -21.5354  -45.2408 C.2       9 UNK         0.5000 
     26 O           1.6416  -22.7351  -45.5121 O.2       9 UNK        -0.5000 
     27 CA          2.4093  -21.0713  -43.9629 C.3       9 UNK         0.1400 
     28 CB          3.7874  -20.4792  -44.2921 C.3       9 UNK        -0.1800 
     29 N           1.6208  -20.1007  -43.2013 N.am      9 UNK        -0.5000 
     30 C           0.4278  -20.3669  -42.6495 C.2       8 UNK         0.5000 
     31 O          -0.1066  -21.4767  -42.6809 O.2       8 UNK        -0.5000 
     32 CA         -0.3174  -19.1856  -42.0022 C.3       8 UNK         0.1400 
     33 CB          0.2415  -18.8856  -40.6037 C.3       8 UNK        -0.1800 
     34 N          -0.2743  -17.9753  -42.8256 N.am      8 UNK        -0.5000 
     35 C          -0.8432  -17.8637  -44.0352 C.2       7 UNK         0.5000 
     36 O          -1.5089  -18.7530  -44.5609 O.2       7 UNK        -0.5000 
     37 CA         -0.5894  -16.5637  -44.8161 C.3       7 UNK         0.1400 
     38 CB         -1.5264  -15.4445  -44.3398 C.3       7 UNK        -0.1800 
     39 N           0.7972  -16.1179  -44.7173 N.am      7 UNK        -0.5000 
     40 C           1.8616  -16.7885  -45.1754 C.2       6 UNK         0.5000 
     41 O           1.7880  -17.8505  -45.7896 O.2       6 UNK        -0.5000 
     42 CA          3.2425  -16.1988  -44.8460 C.3       6 UNK         0.1400 
     43 CB          3.6223  -15.0847  -45.8328 C.3       6 UNK        -0.1800 
     44 N           3.3055  -15.6850  -43.4785 N.am      6 UNK        -0.5000 
     45 C           3.2870  -16.4497  -42.3787 C.2       5 UNK         0.5000 
     46 O           3.2370  -17.6800  -42.4011 O.2       5 UNK        -0.5000 
     47 CA          3.2946  -15.7087  -41.0288 C.3       5 UNK         0.1400 
     48 CB          4.7247  -15.3059  -40.6394 C.3       5 UNK        -0.1800 
     49 N           2.4380  -14.5202  -41.0307 N.am      5 UNK        -0.5000 
     50 C           1.1001  -14.5632  -41.0890 C.2       4 UNK         0.5000 
     51 O           0.4529  -15.6091  -41.1436 O.2       4 UNK        -0.5000 
     52 CA          0.3606  -13.2107  -41.1388 C.3       4 UNK         0.1400 
     53 CB          0.2472  -12.6064  -39.7309 C.3       4 UNK        -0.1800 
     54 N           0.9352  -12.2129  -42.0523 N.am      4 UNK        -0.5000 
     55 C           1.2078  -12.4214  -43.3470 C.2       3 UNK         0.5000 
     56 O           1.1680  -13.5302  -43.8791 O.2       3 UNK        -0.5000 
     57 CA          1.6074  -11.2002  -44.1981 C.3       3 UNK         0.1400 
     58 CB          3.1140  -10.9309  -44.0663 C.3       3 UNK        -0.1800 
     59 N           1.2898  -11.4223  -45.6131 N.am      3 UNK        -0.5000 
     60 C           0.0498  -11.5804  -46.0971 C.2       2 UNK         0.5000 
     61 O          -0.9684  -11.3536  -45.4375 O.2       2 UNK        -0.5000 
     62 CA         -0.0911  -12.1132  -47.5359 C.3       2 UNK         0.1400 
     63 CB          1.1294  -12.9191  -48.0326 C.3       2 UNK        -0.1800 
     64 N          -1.2839  -12.9514  -47.5787 N.am      2 UNK        -0.5000 
     65 C          -2.0143  -13.2520  -48.6570 C.2       1 UNK         0.5000 
     66 O          -1.7526  -12.8540  -49.7920 O.2       1 UNK        -0.5000 
     67 C          -2.3189  -23.6630  -44.8629 C.2       11 UNK         0.5000 
     68 O          -3.0122  -24.5706  -45.3224 O.2       11 UNK        -0.5000 
     69 N          -1.1838  -23.8619  -44.1760 N.am      12 UNK        -0.5000 
     70 CA         -0.6206  -25.1747  -43.8557 C.3       12 UNK         0.1400 
     71 CB          0.5672  -24.9975  -42.8976 C.3       12 UNK        -0.1800 
     72 C          -0.2060  -25.9737  -45.1053 C.2       12 UNK         0.5000 
     73 O          -0.4538  -27.1784  -45.1686 O.2       12 UNK        -0.5000 
     74 N           0.3931  -25.2833  -46.0837 N.am      13 UNK        -0.5000 
     75 CA          0.7900  -25.8451  -47.3750 C.3       13 UNK         0.1400 
     76 CB          1.8380  -24.9166  -48.0087 C.3       13 UNK        -0.1800 
     77 C          -0.3883  -26.0518  -48.3483 C.2       13 UNK         0.5000 
     78 O          -0.2402  -26.8100  -49.3072 O.2       13 UNK        -0.5000 
     79 N          -1.5088  -25.3517  -48.1096 N.am      14 UNK        -0.5000 
     80 CA         -2.6721  -25.1931  -48.9924 C.3       14 UNK         0.1400 
     81 CB         -3.4523  -26.5157  -49.1310 C.3       14 UNK        -0.1800 
     82 C          -2.2727  -24.5690  -50.3480 C.2       14 UNK         0.5000 
     83 O          -2.6700  -25.0536  -51.4082 O.2       14 UNK        -0.5000 
     84 N          -1.4347  -23.5285  -50.2746 N.am      15 UNK        -0.5000 
     85 CA         -0.7719  -22.9073  -51.4175 C.3       15 UNK         0.1400 
     86 CB          0.6855  -22.6088  -51.0332 C.3       15 UNK        -0.1800 
     87 C          -1.4651  -21.6180  -51.8792 C.2       15 UNK         0.5000 
     88 O          -1.3710  -21.2878  -53.0616 O.2       15 UNK        -0.5000 
     89 N          -2.1141  -20.8965  -50.9508 N.am      16 UNK        -0.5000 
     90 CA         -2.7550  -19.5875  -51.1491 C.3       16 UNK         0.1400 
     91 CB         -4.0711  -19.7489  -51.9279 C.3       16 UNK        -0.1800 
     92 C          -1.8035  -18.5603  -51.7984 C.2       16 UNK         0.5000 
     93 O          -2.0139  -18.1493  -52.9422 O.2       16 UNK        -0.5000 
     94 N          -0.7111  -18.2591  -51.0778 N.am      17 UNK        -0.5000 
     95 CA          0.4283  -17.4217  -51.4882 C.3       17 UNK         0.1400 
     96 CB         -0.0032  -15.9495  -51.6533 C.3       17 UNK        -0.1800 
     97 C           1.1869  -17.9639  -52.7227 C.2       17 UNK         0.5000 
     98 O           1.8581  -17.1999  -53.4171 O.2       17 UNK        -0.5000 
     99 N           1.0469  -19.2755  -52.9728 N.am      18 UNK        -0.5000 
    100 CA         1.5201  -20.0324  -54.1375 C.3       18 UNK         0.1400 
    101 CB         3.0615  -20.0437  -54.2036 C.3       18 UNK        -0.1800 
    102 C          0.8617  -19.5938  -55.4641 C.2       18 UNK         0.5000 
    103 O          1.4175  -19.8583  -56.5318 O.2       18 UNK        -0.5000 
    104 N         -0.3032  -18.9365  -55.3800 N.am      19 UNK        -0.5000 
    105 CA        -1.0354  -18.3976  -56.5192 C.3       19 UNK         0.1400 
    106 CB        -1.4339  -16.9403  -56.2254 C.3       19 UNK        -0.1800 
    107 C         -2.2595  -19.2671  -56.8336 C.2       19 UNK         0.5000 
    108 O         -2.3242  -19.8510  -57.9162 O.2       19 UNK        -0.5000 
    109 N         -3.2184  -19.3208  -55.8991 N.am      20 UNK        -0.5000 
    110 CA        -4.5388  -19.9112  -56.1380 C.3       20 UNK         0.1400 
    111 CB        -5.5990  -19.0845  -55.3917 C.3       20 UNK        -0.1800 
    112 C         -4.6437  -21.4007  -55.7635 C.2       20 UNK         0.5000 
    113 O         -5.6381  -22.0291  -56.1313 O.2       20 UNK        -0.5000 
    114 N         -3.6665  -21.9378  -55.0125 N.am      21 UNK        -0.5000 
    115 CA        -3.6066  -23.3249  -54.5153 C.3       21 UNK         0.1400 
    116 CB        -3.3455  -24.2985  -55.6828 C.3       21 UNK        -0.1800 
    117 C         -4.8303  -23.7348  -53.6602 C.2       21 UNK         0.5000 
    118 O         -5.2038  -24.9088  -53.6360 O.2       21 UNK        -0.5000 
    119 N         -5.4571  -22.7397  -53.0160 N.am      22 UNK        -0.5000 
    120 CA        -6.7395  -22.8261  -52.2972 C.3       22 UNK         0.1400 
    121 C         -7.9565  -23.2438  -53.1841 C.2       22 UNK         0.5000 
    122 N         -7.8949  -23.1104  -54.5049 N.am      22 UNK        -0.7600 
    123 O         -8.9919  -23.6603  -52.6716 O.2       22 UNK        -0.5000 
    124 C124       -6.6385  -23.6268  -50.9674 C.3       23 UNK        -0.0398 
    125 S125       -5.5398  -22.8198  -49.7524 S.3       23 UNK        -0.2404 
    126 C126       -6.7277  -21.7036  -48.9404 C.3       23 UNK        -0.0205 
    127 H127       -3.6942  -11.3076  -47.1526 H         1 UNK         0.0600 
    128 H128       -5.2587  -11.2909  -46.3475 H         1 UNK         0.0600 
    129 H129       -5.1165  -12.0191  -47.9397 H         1 UNK         0.0600 
    130 H130       -3.5345  -15.0781  -46.5638 H         1 UNK         0.3000 
    131 H131       -4.0644  -13.7354  -49.0248 H         1 UNK         0.0600 
    132 H132       -2.7530  -15.5172  -50.0593 H         1 UNK         0.0800 
    133 H133       -2.0691  -15.9967  -48.5289 H         1 UNK         0.0800 
    134 H134       -3.3579  -17.3508  -46.6892 H         1 UNK         0.0800 
    135 H135       -2.7600  -18.3456  -47.9918 H         1 UNK         0.0800 
    136 H136       -5.0446  -19.5968  -49.2403 H         1 UNK         0.1150 
    137 H137       -6.9646  -21.9554  -46.2272 H         1 UNK         0.1150 
    138 H138       -4.4244  -18.6936  -45.0984 H         1 UNK         0.1150 
    139 H139       -5.7385  -19.7993  -43.4165 H         1 UNK         0.0800 
    140 H140       -7.0445  -20.8572  -43.8879 H         1 UNK         0.0800 
    141 H141       -2.7024  -21.7964  -42.9370 H         1 UNK         0.0800 
    142 H142       -3.3011  -20.4770  -43.8810 H         1 UNK         0.0800 
    143 H143       -3.4980  -22.1883  -45.8721 H         1 UNK         0.0600 
    144 H144       -1.2439  -20.6770  -45.0531 H         1 UNK         0.3000 
    145 H145        0.8495  -21.4533  -47.8319 H         1 UNK         0.0600 
    146 H146        0.8370  -19.0392  -48.2236 H         1 UNK         0.0600 
    147 H147       -0.7272  -19.6910  -48.7016 H         1 UNK         0.0600 
    148 H148       -0.5652  -18.8234  -47.1795 H         1 UNK         0.0600 
    149 H149        1.2201  -19.6100  -45.7143 H         1 UNK         0.3000 
    150 H150        2.5595  -21.9486  -43.3303 H         1 UNK         0.0600 
    151 H151        4.4003  -21.1975  -44.8378 H         1 UNK         0.0600 
    152 H152        4.3281  -20.2128  -43.3837 H         1 UNK         0.0600 
    153 H153        3.7064  -19.5825  -44.9065 H         1 UNK         0.0600 
    154 H154        2.0140  -19.1706  -43.1005 H         1 UNK         0.3000 
    155 H155       -1.3641  -19.4767  -41.8919 H         1 UNK         0.0600 
    156 H156        1.2756  -18.5428  -40.6464 H         1 UNK         0.0600 
    157 H157        0.2149  -19.7749  -39.9728 H         1 UNK         0.0600 
    158 H158       -0.3449  -18.1148  -40.1035 H         1 UNK         0.0600 
    159 H159        0.2147  -17.1762  -42.4360 H         1 UNK         0.3000 
    160 H160       -0.8010  -16.7580  -45.8692 H         1 UNK         0.0600 
    161 H161       -1.3514  -15.1929  -43.2935 H         1 UNK         0.0600 
    162 H162       -2.5720  -15.7397  -44.4356 H         1 UNK         0.0600 
    163 H163       -1.3863  -14.5357  -44.9246 H         1 UNK         0.0600 
    164 H164        0.9542  -15.2175  -44.2648 H         1 UNK         0.3000 
    165 H165        3.9763  -17.0016  -44.9440 H         1 UNK         0.0600 
    166 H166        4.6479  -14.7523  -45.6725 H         1 UNK         0.0600 
    167 H167        3.5507  -15.4331  -46.8640 H         1 UNK         0.0600 
    168 H168        2.9725  -14.2159  -45.7324 H         1 UNK         0.0600 
    169 H169        3.2633  -14.6825  -43.3697 H         1 UNK         0.3000 
    170 H170        2.9185  -16.3990  -40.2705 H         1 UNK         0.0600 
    171 H171        5.3819  -16.1763  -40.6152 H         1 UNK         0.0600 
    172 H172        5.1507  -14.5923  -41.3458 H         1 UNK         0.0600 
    173 H173        4.7503  -14.8533  -39.6480 H         1 UNK         0.0600 
    174 H174        2.8941  -13.6202  -41.0025 H         1 UNK         0.3000 
    175 H175       -0.6506  -13.4169  -41.4953 H         1 UNK         0.0600 
    176 H176        1.2222  -12.3174  -39.3367 H         1 UNK         0.0600 
    177 H177       -0.3908  -11.7225  -39.7307 H         1 UNK         0.0600 
    178 H178       -0.1910  -13.3207  -39.0324 H         1 UNK         0.0600 
    179 H179        1.0197  -11.2755  -41.6865 H         1 UNK         0.3000 
    180 H180        1.0526  -10.3273  -43.8482 H         1 UNK         0.0600 
    181 H181        3.7066  -11.7819  -44.4053 H         1 UNK         0.0600 
    182 H182        3.3883  -10.7322  -43.0295 H         1 UNK         0.0600 
    183 H183        3.4116  -10.0606  -44.6515 H         1 UNK         0.0600 
    184 H184        2.0685  -11.6533  -46.2112 H         1 UNK         0.3000 
    185 H185       -0.2381  -11.2481  -48.1853 H         1 UNK         0.0600 
    186 H186        2.0341  -12.3111  -48.0545 H         1 UNK         0.0600 
    187 H187        1.3171  -13.7861  -47.3987 H         1 UNK         0.0600 
    188 H188        0.9736  -13.2841  -49.0479 H         1 UNK         0.0600 
    189 H189       -1.6181  -13.2469  -46.6711 H         1 UNK         0.3000 
    190 H190       -0.6804  -23.0538  -43.8224 H         1 UNK         0.3000 
    191 H191       -1.3920  -25.7480  -43.3375 H         1 UNK         0.0600 
    192 H192        1.3668  -24.4103  -43.3499 H         1 UNK         0.0600 
    193 H193        0.9879  -25.9630  -42.6143 H         1 UNK         0.0600 
    194 H194        0.2617  -24.4931  -41.9806 H         1 UNK         0.0600 
    195 H195        0.6330  -24.3091  -45.9164 H         1 UNK         0.3000 
    196 H196        1.2541  -26.8189  -47.2053 H         1 UNK         0.0600 
    197 H197        2.1862  -25.3099  -48.9646 H         1 UNK         0.0600 
    198 H198        2.7105  -24.8087  -47.3641 H         1 UNK         0.0600 
    199 H199        1.4320  -23.9208  -48.1899 H         1 UNK         0.0600 
    200 H200       -1.5137  -24.7502  -47.2964 H         1 UNK         0.3000 
    201 H201       -3.3277  -24.4733  -48.5008 H         1 UNK         0.0600 
    202 H202       -3.7265  -26.9135  -48.1539 H         1 UNK         0.0600 
    203 H203       -2.8744  -27.2772  -49.6549 H         1 UNK         0.0600 
    204 H204       -4.3757  -26.3626  -49.6909 H         1 UNK         0.0600 
    205 H205       -1.2118  -23.1742  -49.3477 H         1 UNK         0.3000 
    206 H206       -0.7594  -23.5985  -52.2628 H         1 UNK         0.0600 
    207 H207        1.2040  -23.5186  -50.7306 H         1 UNK         0.0600 
    208 H208        1.2389  -22.1922  -51.8747 H         1 UNK         0.0600 
    209 H209        0.7516  -21.8961  -50.2110 H         1 UNK         0.0600 
    210 H210       -2.1720  -21.2812  -50.0181 H         1 UNK         0.3000 
    211 H211       -2.9979  -19.2010  -50.1617 H         1 UNK         0.0600 
    212 H212       -3.8921  -20.1305  -52.9304 H         1 UNK         0.0600 
    213 H213       -4.5865  -18.7922  -52.0214 H         1 UNK         0.0600 
    214 H214       -4.7481  -20.4339  -51.4208 H         1 UNK         0.0600 
    215 H215       -0.6176  -18.6834  -50.1673 H         1 UNK         0.3000 
    216 H216        1.1444  -17.4592  -50.6659 H         1 UNK         0.0600 
    217 H217        0.8524  -15.3090  -51.8700 H         1 UNK         0.0600 
    218 H218       -0.4578  -15.5685  -50.7399 H         1 UNK         0.0600 
    219 H219       -0.7186  -15.8235  -52.4664 H         1 UNK         0.0600 
    220 H220        0.4302  -19.7894  -52.3619 H         1 UNK         0.3000 
    221 H221        1.1967  -21.0618  -53.9823 H         1 UNK         0.0600 
    222 H222        3.4652  -19.0614  -54.4495 H         1 UNK         0.0600 
    223 H223        3.4943  -20.3576  -53.2538 H         1 UNK         0.0600 
    224 H224        3.4153  -20.7401  -54.9647 H         1 UNK         0.0600 
    225 H225       -0.7171  -18.7872  -54.4664 H         1 UNK         0.3000 
    226 H226       -0.4038  -18.3855  -57.4100 H         1 UNK         0.0600 
    227 H227       -0.5506  -16.3158  -56.0900 H         1 UNK         0.0600 
    228 H228       -2.0068  -16.5180  -57.0519 H         1 UNK         0.0600 
    229 H229       -2.0409  -16.8501  -55.3243 H         1 UNK         0.0600 
    230 H230       -3.0788  -18.8354  -55.0223 H         1 UNK         0.3000 
    231 H231       -4.7761  -19.8435  -57.2021 H         1 UNK         0.0600 
    232 H232       -5.5894  -18.0458  -55.7225 H         1 UNK         0.0600 
    233 H233       -5.4448  -19.0911  -54.3147 H         1 UNK         0.0600 
    234 H234       -6.6016  -19.4715  -55.5792 H         1 UNK         0.0600 
    235 H235       -2.8909  -21.3478  -54.7350 H         1 UNK         0.3000 
    236 H236       -2.7469  -23.3873  -53.8505 H         1 UNK         0.0600 
    237 H237       -4.1953  -24.3512  -56.3639 H         1 UNK         0.0600 
    238 H238       -2.4712  -23.9961  -56.2591 H         1 UNK         0.0600 
    239 H239       -3.1566  -25.3080  -55.3159 H         1 UNK         0.0600 
    240 H240       -5.0719  -21.8131  -53.1081 H         1 UNK         0.3000 
    241 H241       -6.9764  -21.7969  -52.0273 H         1 UNK         0.0600 
    242 H242       -8.6924  -23.3726  -55.0619 H         1 UNK         0.3800 
    243 H243       -7.0584  -22.7659  -54.9657 H         1 UNK         0.3800 
    244 H244       -6.2692  -24.6355  -51.1556 H         1 UNK         0.0800 
    245 H245       -7.6179  -23.7511  -50.5031 H         1 UNK         0.0800 
    246 H246       -7.5469  -22.2913  -48.5231 H         1 UNK         0.0800 
    247 H247       -7.1711  -21.0395  -49.6834 H         1 UNK         0.0800 
@<TRIPOS>BOND
     1    1    2 1    
     2    1  127 1    
     3    1  128 1    
     4    1  129 1    
     5    2    3 2    
     6    2    4 am   BACKBONE|DICT|INTERRES
     7    4    5 1    
     8    4  130 1    
     9    5    6 1    
    10    5   65 1    
    11    5  131 1    
    12    6    7 1    
    13    6  132 1    
    14    6  133 1    
    15    7    8 1    
    16    8    9 1    
    17    8  134 1    
    18    8  135 1    
    19    9   10 ar   
    20    9   14 ar   
    21   10   11 ar   
    22   10  136 1    
    23   11   12 ar   
    24   11  126 1    
    25   12   13 ar   
    26   12  137 1    
    27   13   14 ar   
    28   13   15 1    
    29   14  138 1    
    30   15   16 1    
    31   15  139 1    
    32   15  140 1    
    33   16   17 1    
    34   17   18 1    
    35   17  141 1    
    36   17  142 1    
    37   18   19 1    
    38   18   67 1    
    39   18  143 1    
    40   19   20 am   BACKBONE|DICT|INTERRES
    41   19  144 1    
    42   20   21 2    
    43   20   22 1    
    44   22   23 1    
    45   22   24 1    
    46   22  145 1    
    47   23  146 1    
    48   23  147 1    
    49   23  148 1    
    50   24   25 am   BACKBONE|DICT|INTERRES
    51   24  149 1    
    52   25   26 2    
    53   25   27 1    
    54   27   28 1    
    55   27   29 1    
    56   27  150 1    
    57   28  151 1    
    58   28  152 1    
    59   28  153 1    
    60   29   30 am   BACKBONE|DICT|INTERRES
    61   29  154 1    
    62   30   31 2    
    63   30   32 1    
    64   32   33 1    
    65   32   34 1    
    66   32  155 1    
    67   33  156 1    
    68   33  157 1    
    69   33  158 1    
    70   34   35 am   BACKBONE|DICT|INTERRES
    71   34  159 1    
    72   35   36 2    
    73   35   37 1    
    74   37   38 1    
    75   37   39 1    
    76   37  160 1    
    77   38  161 1    
    78   38  162 1    
    79   38  163 1    
    80   39   40 am   BACKBONE|DICT|INTERRES
    81   39  164 1    
    82   40   41 2    
    83   40   42 1    
    84   42   43 1    
    85   42   44 1    
    86   42  165 1    
    87   43  166 1    
    88   43  167 1    
    89   43  168 1    
    90   44   45 am   BACKBONE|DICT|INTERRES
    91   44  169 1    
    92   45   46 2    
    93   45   47 1    
    94   47   48 1    
    95   47   49 1    
    96   47  170 1    
    97   48  171 1    
    98   48  172 1    
    99   48  173 1    
   100   49   50 am   BACKBONE|DICT|INTERRES
   101   49  174 1    
   102   50   51 2    
   103   50   52 1    
   104   52   53 1    
   105   52   54 1    
   106   52  175 1    
   107   53  176 1    
   108   53  177 1    
   109   53  178 1    
   110   54   55 am   BACKBONE|DICT|INTERRES
   111   54  179 1    
   112   55   56 2    
   113   55   57 1    
   114   57   58 1    
   115   57   59 1    
   116   57  180 1    
   117   58  181 1    
   118   58  182 1    
   119   58  183 1    
   120   59   60 am   BACKBONE|DICT|INTERRES
   121   59  184 1    
   122   60   61 2    
   123   60   62 1    
   124   62   63 1    
   125   62   64 1    
   126   62  185 1    
   127   63  186 1    
   128   63  187 1    
   129   63  188 1    
   130   64   65 am   BACKBONE|DICT|INTERRES
   131   64  189 1    
   132   65   66 2    
   133   67   68 2    
   134   67   69 am   BACKBONE|DICT|INTERRES
   135   69   70 1    
   136   69  190 1    
   137   70   71 1    
   138   70   72 1    
   139   70  191 1    
   140   71  192 1    
   141   71  193 1    
   142   71  194 1    
   143   72   73 2    
   144   72   74 am   BACKBONE|DICT|INTERRES
   145   74   75 1    
   146   74  195 1    
   147   75   76 1    
   148   75   77 1    
   149   75  196 1    
   150   76  197 1    
   151   76  198 1    
   152   76  199 1    
   153   77   78 2    
   154   77   79 am   BACKBONE|DICT|INTERRES
   155   79   80 1    
   156   79  200 1    
   157   80   81 1    
   158   80   82 1    
   159   80  201 1    
   160   81  202 1    
   161   81  203 1    
   162   81  204 1    
   163   82   83 2    
   164   82   84 am   BACKBONE|DICT|INTERRES
   165   84   85 1    
   166   84  205 1    
   167   85   86 1    
   168   85   87 1    
   169   85  206 1    
   170   86  207 1    
   171   86  208 1    
   172   86  209 1    
   173   87   88 2    
   174   87   89 am   BACKBONE|DICT|INTERRES
   175   89   90 1    
   176   89  210 1    
   177   90   91 1    
   178   90   92 1    
   179   90  211 1    
   180   91  212 1    
   181   91  213 1    
   182   91  214 1    
   183   92   93 2    
   184   92   94 am   BACKBONE|DICT|INTERRES
   185   94   95 1    
   186   94  215 1    
   187   95   96 1    
   188   95   97 1    
   189   95  216 1    
   190   96  217 1    
   191   96  218 1    
   192   96  219 1    
   193   97   98 2    
   194   97   99 am   BACKBONE|DICT|INTERRES
   195   99  100 1    
   196   99  220 1    
   197  100  101 1    
   198  100  102 1    
   199  100  221 1    
   200  101  222 1    
   201  101  223 1    
   202  101  224 1    
   203  102  103 2    
   204  102  104 am   BACKBONE|DICT|INTERRES
   205  104  105 1    
   206  104  225 1    
   207  105  106 1    
   208  105  107 1    
   209  105  226 1    
   210  106  227 1    
   211  106  228 1    
   212  106  229 1    
   213  107  108 2    
   214  107  109 am   BACKBONE|DICT|INTERRES
   215  109  110 1    
   216  109  230 1    
   217  110  111 1    
   218  110  112 1    
   219  110  231 1    
   220  111  232 1    
   221  111  233 1    
   222  111  234 1    
   223  112  113 2    
   224  112  114 am   BACKBONE|DICT|INTERRES
   225  114  115 1    
   226  114  235 1    
   227  115  116 1    
   228  115  117 1    
   229  115  236 1    
   230  116  237 1    
   231  116  238 1    
   232  116  239 1    
   233  117  118 2    
   234  117  119 am   BACKBONE|DICT|INTERRES
   235  119  120 1    
   236  119  240 1    
   237  120  121 1    
   238  120  124 1    
   239  120  241 1    
   240  121  122 am   BACKBONE|DICT|INTERRES
   241  121  123 2    
   242  122  242 1    
   243  122  243 1    
   244  124  125 1    
   245  124  244 1    
   246  124  245 1    
   247  125  126 1    
   248  126  246 1    
   249  126  247 1    
@<TRIPOS>SUBSTRUCTURE
     1 UNK         1 GROUP             0       ****    0 ROOT    
