@<TRIPOS>MOLECULE
3R540
247   249    1
SMALL
USER_CHARGES


@<TRIPOS>ATOM
      1 CA         -4.8841  -16.2565  -48.5820 C.3       0 UNK        -0.1800 
      2 C          -3.8339  -15.5868  -47.7080 C.2       0 UNK         0.5000 
      3 O          -4.1752  -14.7852  -46.8376 O.2       0 UNK        -0.5000 
      4 N          -2.5551  -15.9325  -47.9149 N.am      1 UNK        -0.5000 
      5 CA         -1.3902  -15.3581  -47.2192 C.3       1 UNK         0.1400 
      6 C6         -0.0450  -15.7243  -47.8942 C.3       23 UNK        -0.0398 
      7 S7         -0.0055  -15.2268  -49.6517 S.3       23 UNK        -0.2404 
      8 C8         -0.1456  -16.8262  -50.5083 C.3       23 UNK        -0.0205 
      9 C9          1.1848  -17.2729  -51.0898 C.ar      23 UNK        -0.0193 
     10 C10         1.4090  -17.1943  -52.4677 C.ar      23 UNK        -0.1150 
     11 C11         2.6297  -17.6015  -53.0134 C.ar      23 UNK        -0.0193 
     12 C12         3.6291  -18.0898  -52.1668 C.ar      23 UNK        -0.1150 
     13 C13         3.4177  -18.1724  -50.7867 C.ar      23 UNK        -0.0193 
     14 C14         2.1914  -17.7641  -50.2540 C.ar      23 UNK        -0.1150 
     15 C15         4.5288  -18.6753  -49.8775 C.3       23 UNK        -0.0205 
     16 S16         4.3511  -20.4468  -49.5001 S.3       23 UNK        -0.2404 
     17 C17         3.4075  -20.3906  -47.9410 C.3       23 UNK        -0.0398 
     18 CA          2.4750  -21.6124  -47.7529 C.3       11 UNK         0.1400 
     19 N           2.2485  -21.8827  -46.3333 N.am      11 UNK        -0.5000 
     20 C           1.9088  -23.0702  -45.8153 C.2       10 UNK         0.5000 
     21 O           1.8028  -24.1034  -46.4755 O.2       10 UNK        -0.5000 
     22 CA          1.6254  -23.1013  -44.2999 C.3       10 UNK         0.1400 
     23 CB          2.8998  -23.4568  -43.5198 C.3       10 UNK        -0.1800 
     24 N           1.0990  -21.8301  -43.7985 N.am      10 UNK        -0.5000 
     25 C          -0.1104  -21.3402  -44.1050 C.2       9 UNK         0.5000 
     26 O          -0.9347  -21.9418  -44.7913 O.2       9 UNK        -0.5000 
     27 CA         -0.4268  -19.9151  -43.6193 C.3       9 UNK         0.1400 
     28 CB         -1.0871  -19.9549  -42.2335 C.3       9 UNK        -0.1800 
     29 N           0.7520  -19.0462  -43.5904 N.am      9 UNK        -0.5000 
     30 C           1.4550  -18.6872  -44.6757 C.2       8 UNK         0.5000 
     31 O           1.1472  -19.0291  -45.8175 O.2       8 UNK        -0.5000 
     32 CA          2.7375  -17.8605  -44.4700 C.3       8 UNK         0.1400 
     33 CB          2.5778  -16.4402  -45.0280 C.3       8 UNK        -0.1800 
     34 N           3.1549  -17.7876  -43.0709 N.am      8 UNK        -0.5000 
     35 C           3.8069  -18.7593  -42.4172 C.2       7 UNK         0.5000 
     36 O           4.1344  -19.8278  -42.9337 O.2       7 UNK        -0.5000 
     37 CA          4.1100  -18.5022  -40.9283 C.3       7 UNK         0.1400 
     38 CB          5.4663  -17.7991  -40.7692 C.3       7 UNK        -0.1800 
     39 N           3.0725  -17.6994  -40.2759 N.am      7 UNK        -0.5000 
     40 C           1.8290  -18.1329  -40.0241 C.2       6 UNK         0.5000 
     41 O           1.4514  -19.2797  -40.2574 O.2       6 UNK        -0.5000 
     42 CA          0.8300  -17.1037  -39.4614 C.3       6 UNK         0.1400 
     43 CB          0.8385  -17.1269  -37.9258 C.3       6 UNK        -0.1800 
     44 N           1.0896  -15.7384  -39.9276 N.am      6 UNK        -0.5000 
     45 C           0.9532  -15.3342  -41.1970 C.2       5 UNK         0.5000 
     46 O           0.5955  -16.0721  -42.1162 O.2       5 UNK        -0.5000 
     47 CA          1.3572  -13.8872  -41.4963 C.3       5 UNK         0.1400 
     48 CB          2.8417  -13.8180  -41.9013 C.3       5 UNK        -0.1800 
     49 N           0.5176  -13.3497  -42.5622 N.am      5 UNK        -0.5000 
     50 C           0.3198  -12.0437  -42.7844 C.2       4 UNK         0.5000 
     51 O           0.8525  -11.1501  -42.1245 O.2       4 UNK        -0.5000 
     52 CA         -0.6512  -11.6625  -43.9131 C.3       4 UNK         0.1400 
     53 CB          0.0432  -11.7242  -45.2837 C.3       4 UNK        -0.1800 
     54 N          -1.8353  -12.5202  -43.9140 N.am      4 UNK        -0.5000 
     55 C          -2.9145  -12.3173  -43.1437 C.2       3 UNK         0.5000 
     56 O          -3.0280  -11.3652  -42.3706 O.2       3 UNK        -0.5000 
     57 CA         -4.0725  -13.3293  -43.2556 C.3       3 UNK         0.1400 
     58 CB         -5.1832  -12.7737  -44.1599 C.3       3 UNK        -0.1800 
     59 N          -3.6471  -14.6284  -43.7739 N.am      3 UNK        -0.5000 
     60 C          -2.9897  -15.5514  -43.0558 C.2       2 UNK         0.5000 
     61 O          -2.7484  -15.4352  -41.8544 O.2       2 UNK        -0.5000 
     62 CA         -2.5092  -16.8086  -43.8114 C.3       2 UNK         0.1400 
     63 CB         -3.5783  -17.9096  -43.7093 C.3       2 UNK        -0.1800 
     64 N          -2.2177  -16.5681  -45.2272 N.am      2 UNK        -0.5000 
     65 C          -1.3556  -15.6571  -45.7029 C.2       1 UNK         0.5000 
     66 O          -0.6078  -14.9992  -44.9816 O.2       1 UNK        -0.5000 
     67 C           1.1356  -21.4466  -48.5026 C.2       11 UNK         0.5000 
     68 O           1.0085  -21.9268  -49.6275 O.2       11 UNK        -0.5000 
     69 N           0.1572  -20.7920  -47.8575 N.am      12 UNK        -0.5000 
     70 CA         -1.1976  -20.5929  -48.3739 C.3       12 UNK         0.1400 
     71 CB         -1.9037  -19.5112  -47.5415 C.3       12 UNK        -0.1800 
     72 C          -2.0429  -21.8796  -48.3980 C.2       12 UNK         0.5000 
     73 O          -2.8455  -22.0543  -49.3176 O.2       12 UNK        -0.5000 
     74 N          -1.8274  -22.7464  -47.3991 N.am      13 UNK        -0.5000 
     75 CA         -2.4827  -24.0326  -47.1511 C.3       13 UNK         0.1400 
     76 CB         -2.2591  -25.0038  -48.3296 C.3       13 UNK        -0.1800 
     77 C          -3.9739  -23.9064  -46.7749 C.2       13 UNK         0.5000 
     78 O          -4.5234  -22.8030  -46.6986 O.2       13 UNK        -0.5000 
     79 N          -4.6000  -25.0623  -46.5129 N.am      14 UNK        -0.5000 
     80 CA         -6.0137  -25.2013  -46.1636 C.3       14 UNK         0.1400 
     81 CB         -6.3234  -26.6808  -45.8909 C.3       14 UNK        -0.1800 
     82 C          -6.9314  -24.6505  -47.2685 C.2       14 UNK         0.5000 
     83 O          -6.7037  -24.9328  -48.4472 O.2       14 UNK        -0.5000 
     84 N          -7.9212  -23.8429  -46.8629 N.am      15 UNK        -0.5000 
     85 CA         -8.8948  -23.1416  -47.7120 C.3       15 UNK         0.1400 
     86 CB         -9.8503  -24.1539  -48.3783 C.3       15 UNK        -0.1800 
     87 C          -8.2616  -22.1725  -48.7389 C.2       15 UNK         0.5000 
     88 O          -8.9191  -21.8178  -49.7184 O.2       15 UNK        -0.5000 
     89 N          -6.9997  -21.7731  -48.5046 N.am      16 UNK        -0.5000 
     90 CA         -6.1454  -20.9667  -49.3826 C.3       16 UNK         0.1400 
     91 CB         -6.7087  -19.5361  -49.5241 C.3       16 UNK        -0.1800 
     92 C          -5.8624  -21.6455  -50.7438 C.2       16 UNK         0.5000 
     93 O          -5.6488  -20.9549  -51.7414 O.2       16 UNK        -0.5000 
     94 N          -5.8717  -22.9873  -50.7742 N.am      17 UNK        -0.5000 
     95 CA         -5.7311  -23.7887  -51.9909 C.3       17 UNK         0.1400 
     96 CB         -5.9918  -25.2656  -51.6616 C.3       17 UNK        -0.1800 
     97 C          -4.3712  -23.6227  -52.6909 C.2       17 UNK         0.5000 
     98 O          -4.3291  -23.5195  -53.9181 O.2       17 UNK        -0.5000 
     99 N          -3.2857  -23.5731  -51.9075 N.am      18 UNK        -0.5000 
    100 CA        -1.9357  -23.3736  -52.4319 C.3       18 UNK         0.1400 
    101 CB        -0.8922  -23.9407  -51.4631 C.3       18 UNK        -0.1800 
    102 C         -1.6676  -21.8988  -52.7729 C.2       18 UNK         0.5000 
    103 O         -0.9544  -21.6367  -53.7386 O.2       18 UNK        -0.5000 
    104 N         -2.2927  -20.9638  -52.0391 N.am      19 UNK        -0.5000 
    105 CA        -2.2971  -19.5326  -52.3607 C.3       19 UNK         0.1400 
    106 CB        -3.0190  -18.7344  -51.2640 C.3       19 UNK        -0.1800 
    107 C         -2.9467  -19.2469  -53.7254 C.2       19 UNK         0.5000 
    108 O         -2.4014  -18.4648  -54.5031 O.2       19 UNK        -0.5000 
    109 N         -4.0778  -19.9146  -53.9966 N.am      20 UNK        -0.5000 
    110 CA        -4.7831  -19.8729  -55.2758 C.3       20 UNK         0.1400 
    111 CB        -6.1376  -20.5855  -55.1428 C.3       20 UNK        -0.1800 
    112 C         -3.9490  -20.4715  -56.4228 C.2       20 UNK         0.5000 
    113 O         -3.8409  -19.8468  -57.4788 O.2       20 UNK        -0.5000 
    114 N         -3.3354  -21.6410  -56.1837 N.am      21 UNK        -0.5000 
    115 CA        -2.4460  -22.3219  -57.1321 C.3       21 UNK         0.1400 
    116 CB        -2.0649  -23.7027  -56.5785 C.3       21 UNK        -0.1800 
    117 C         -1.1824  -21.5074  -57.4781 C.2       21 UNK         0.5000 
    118 O         -0.7396  -21.5292  -58.6271 O.2       21 UNK        -0.5000 
    119 N         -0.6504  -20.7827  -56.4870 N.am      22 UNK        -0.5000 
    120 CA         0.4528  -19.8195  -56.6219 C.3       22 UNK         0.1400 
    121 C          0.0694  -18.4894  -57.3461 C.2       22 UNK         0.5000 
    122 N         -1.1930  -18.2346  -57.6710 N.am      22 UNK        -0.7600 
    123 O          0.9376  -17.6749  -57.6458 O.2       22 UNK        -0.5000 
    124 C124        1.1197  -19.5721  -55.2417 C.3       23 UNK        -0.0398 
    125 S125        2.8829  -19.1118  -55.3363 S.3       23 UNK        -0.2404 
    126 C126        2.8819  -17.4885  -54.5116 C.3       23 UNK        -0.0205 
    127 H127       -5.5956  -16.8015  -47.9618 H         1 UNK         0.0600 
    128 H128       -4.4383  -16.9592  -49.2856 H         1 UNK         0.0600 
    129 H129       -5.4316  -15.5057  -49.1515 H         1 UNK         0.0600 
    130 H130       -2.3390  -16.5755  -48.6605 H         1 UNK         0.3000 
    131 H131       -1.4959  -14.2734  -47.2942 H         1 UNK         0.0600 
    132 H132        0.7729  -15.1973  -47.4002 H         1 UNK         0.0800 
    133 H133        0.1777  -16.7868  -47.7886 H         1 UNK         0.0800 
    134 H134       -0.8820  -16.7173  -51.3049 H         1 UNK         0.0800 
    135 H135       -0.5273  -17.5968  -49.8392 H         1 UNK         0.0800 
    136 H136        0.6344  -16.8095  -53.1165 H         1 UNK         0.1150 
    137 H137        4.5757  -18.4017  -52.5857 H         1 UNK         0.1150 
    138 H138        2.0205  -17.8132  -49.1888 H         1 UNK         0.1150 
    139 H139        4.5593  -18.0908  -48.9567 H         1 UNK         0.0800 
    140 H140        5.4961  -18.5216  -50.3583 H         1 UNK         0.0800 
    141 H141        2.8544  -19.4552  -47.8567 H         1 UNK         0.0800 
    142 H142        4.1492  -20.3629  -47.1412 H         1 UNK         0.0800 
    143 H143        2.9762  -22.4879  -48.1725 H         1 UNK         0.0600 
    144 H144        2.2710  -21.0832  -45.7179 H         1 UNK         0.3000 
    145 H145        0.8805  -23.8785  -44.1161 H         1 UNK         0.0600 
    146 H146        2.6961  -23.5495  -42.4529 H         1 UNK         0.0600 
    147 H147        3.3108  -24.4097  -43.8557 H         1 UNK         0.0600 
    148 H148        3.6751  -22.7001  -43.6486 H         1 UNK         0.0600 
    149 H149        1.7200  -21.2703  -43.2308 H         1 UNK         0.3000 
    150 H150       -1.1285  -19.4768  -44.3279 H         1 UNK         0.0600 
    151 H151       -0.4837  -20.5117  -41.5164 H         1 UNK         0.0600 
    152 H152       -2.0606  -20.4439  -42.2845 H         1 UNK         0.0600 
    153 H153       -1.2445  -18.9545  -41.8309 H         1 UNK         0.0600 
    154 H154        1.0554  -18.7155  -42.6853 H         1 UNK         0.3000 
    155 H155        3.5265  -18.3523  -45.0428 H         1 UNK         0.0600 
    156 H156        1.8037  -15.8840  -44.5011 H         1 UNK         0.0600 
    157 H157        2.3080  -16.4663  -46.0836 H         1 UNK         0.0600 
    158 H158        3.5079  -15.8778  -44.9469 H         1 UNK         0.0600 
    159 H159        2.8669  -16.9656  -42.5607 H         1 UNK         0.3000 
    160 H160        4.1642  -19.4708  -40.4265 H         1 UNK         0.0600 
    161 H161        5.4682  -16.8140  -41.2377 H         1 UNK         0.0600 
    162 H162        6.2647  -18.3831  -41.2290 H         1 UNK         0.0600 
    163 H163        5.7233  -17.6717  -39.7174 H         1 UNK         0.0600 
    164 H164        3.3098  -16.7477  -40.0389 H         1 UNK         0.3000 
    165 H165       -0.1667  -17.3927  -39.8025 H         1 UNK         0.0600 
    166 H166        0.0797  -16.4593  -37.5171 H         1 UNK         0.0600 
    167 H167        1.8058  -16.8243  -37.5227 H         1 UNK         0.0600 
    168 H168        0.6247  -18.1283  -37.5496 H         1 UNK         0.0600 
    169 H169        1.3987  -15.0766  -39.2299 H         1 UNK         0.3000 
    170 H170        1.2016  -13.2960  -40.5913 H         1 UNK         0.0600 
    171 H171        3.4818  -14.2483  -41.1302 H         1 UNK         0.0600 
    172 H172        3.0305  -14.3611  -42.8276 H         1 UNK         0.0600 
    173 H173        3.1658  -12.7879  -42.0487 H         1 UNK         0.0600 
    174 H174        0.0569  -14.0434  -43.1444 H         1 UNK         0.3000 
    175 H175       -0.9641  -10.6284  -43.7521 H         1 UNK         0.0600 
    176 H176        0.4614  -12.7090  -45.4902 H         1 UNK         0.0600 
    177 H177       -0.6483  -11.4768  -46.0892 H         1 UNK         0.0600 
    178 H178        0.8656  -11.0094  -45.3305 H         1 UNK         0.0600 
    179 H179       -1.7745  -13.3678  -44.4632 H         1 UNK         0.3000 
    180 H180       -4.4879  -13.4698  -42.2554 H         1 UNK         0.0600 
    181 H181       -4.8258  -12.6021  -45.1761 H         1 UNK         0.0600 
    182 H182       -5.5591  -11.8232  -43.7790 H         1 UNK         0.0600 
    183 H183       -6.0288  -13.4596  -44.2137 H         1 UNK         0.0600 
    184 H184       -3.8169  -14.7975  -44.7600 H         1 UNK         0.3000 
    185 H185       -1.5882  -17.1507  -43.3381 H         1 UNK         0.0600 
    186 H186       -3.2917  -18.8106  -44.2497 H         1 UNK         0.0600 
    187 H187       -3.7457  -18.1927  -42.6694 H         1 UNK         0.0600 
    188 H188       -4.5346  -17.5763  -44.1149 H         1 UNK         0.0600 
    189 H189       -2.8150  -17.0351  -45.8923 H         1 UNK         0.3000 
    190 H190        0.3748  -20.3555  -46.9671 H         1 UNK         0.3000 
    191 H191       -1.0995  -20.2434  -49.4017 H         1 UNK         0.0600 
    192 H192       -2.8908  -19.2844  -47.9463 H         1 UNK         0.0600 
    193 H193       -1.3298  -18.5867  -47.5271 H         1 UNK         0.0600 
    194 H194       -2.0441  -19.8316  -46.5091 H         1 UNK         0.0600 
    195 H195       -1.2292  -22.4347  -46.6401 H         1 UNK         0.3000 
    196 H196       -1.9788  -24.4472  -46.2769 H         1 UNK         0.0600 
    197 H197       -2.8417  -24.7206  -49.2059 H         1 UNK         0.0600 
    198 H198       -1.2079  -25.0360  -48.6161 H         1 UNK         0.0600 
    199 H199       -2.5457  -26.0222  -48.0672 H         1 UNK         0.0600 
    200 H200       -4.0850  -25.9241  -46.6138 H         1 UNK         0.3000 
    201 H201       -6.1834  -24.6372  -45.2442 H         1 UNK         0.0600 
    202 H202       -6.1418  -27.2985  -46.7716 H         1 UNK         0.0600 
    203 H203       -7.3680  -26.8148  -45.6065 H         1 UNK         0.0600 
    204 H204       -5.7132  -27.0694  -45.0755 H         1 UNK         0.0600 
    205 H205       -8.0072  -23.6568  -45.8730 H         1 UNK         0.3000 
    206 H206       -9.4893  -22.5191  -47.0419 H         1 UNK         0.0600 
    207 H207      -10.2917  -24.8245  -47.6410 H         1 UNK         0.0600 
    208 H208      -10.6724  -23.6456  -48.8834 H         1 UNK         0.0600 
    209 H209       -9.3379  -24.7642  -49.1228 H         1 UNK         0.0600 
    210 H210       -6.5340  -22.1404  -47.6836 H         1 UNK         0.3000 
    211 H211       -5.1832  -20.8887  -48.8762 H         1 UNK         0.0600 
    212 H212       -6.0077  -18.8803  -50.0375 H         1 UNK         0.0600 
    213 H213       -6.9058  -19.0925  -48.5483 H         1 UNK         0.0600 
    214 H214       -7.6378  -19.5199  -50.0939 H         1 UNK         0.0600 
    215 H215       -6.0679  -23.4951  -49.9188 H         1 UNK         0.3000 
    216 H216       -6.5006  -23.4585  -52.6918 H         1 UNK         0.0600 
    217 H217       -5.2839  -25.6439  -50.9229 H         1 UNK         0.0600 
    218 H218       -5.9037  -25.8881  -52.5529 H         1 UNK         0.0600 
    219 H219       -6.9968  -25.4081  -51.2636 H         1 UNK         0.0600 
    220 H220       -3.3970  -23.5586  -50.9017 H         1 UNK         0.3000 
    221 H221       -1.8405  -23.9416  -53.3591 H         1 UNK         0.0600 
    222 H222       -1.0406  -25.0087  -51.3046 H         1 UNK         0.0600 
    223 H223       -0.9307  -23.4500  -50.4945 H         1 UNK         0.0600 
    224 H224        0.1168  -23.8054  -51.8547 H         1 UNK         0.0600 
    225 H225       -2.8442  -21.2687  -51.2455 H         1 UNK         0.3000 
    226 H226       -1.2590  -19.1963  -52.4065 H         1 UNK         0.0600 
    227 H227       -4.0399  -19.0782  -51.1253 H         1 UNK         0.0600 
    228 H228       -2.5142  -18.8072  -50.3063 H         1 UNK         0.0600 
    229 H229       -3.0721  -17.6760  -51.5213 H         1 UNK         0.0600 
    230 H230       -4.4935  -20.4847  -53.2654 H         1 UNK         0.3000 
    231 H231       -4.9751  -18.8251  -55.5156 H         1 UNK         0.0600 
    232 H232       -6.0192  -21.6351  -54.8738 H         1 UNK         0.0600 
    233 H233       -6.6930  -20.5466  -56.0806 H         1 UNK         0.0600 
    234 H234       -6.7556  -20.1147  -54.3779 H         1 UNK         0.0600 
    235 H235       -3.5043  -22.1091  -55.3004 H         1 UNK         0.3000 
    236 H236       -3.0063  -22.4709  -58.0573 H         1 UNK         0.0600 
    237 H237       -2.9497  -24.2976  -56.3510 H         1 UNK         0.0600 
    238 H238       -1.4733  -24.2624  -57.3040 H         1 UNK         0.0600 
    239 H239       -1.4711  -23.6197  -55.6687 H         1 UNK         0.0600 
    240 H240       -1.0395  -20.8819  -55.5545 H         1 UNK         0.3000 
    241 H241        1.1950  -20.2986  -57.2631 H         1 UNK         0.0600 
    242 H242       -1.4144  -17.3733  -58.1441 H         1 UNK         0.3800 
    243 H243       -1.9349  -18.8850  -57.4463 H         1 UNK         0.3800 
    244 H244        1.1058  -20.4884  -54.6525 H         1 UNK         0.0800 
    245 H245        0.5496  -18.8442  -54.6631 H         1 UNK         0.0800 
    246 H246        2.1414  -16.8423  -54.9861 H         1 UNK         0.0800 
    247 H247        3.8494  -17.0117  -54.6749 H         1 UNK         0.0800 
@<TRIPOS>BOND
     1    1    2 1    
     2    1  127 1    
     3    1  128 1    
     4    1  129 1    
     5    2    3 2    
     6    2    4 am   BACKBONE|DICT|INTERRES
     7    4    5 1    
     8    4  130 1    
     9    5    6 1    
    10    5   65 1    
    11    5  131 1    
    12    6    7 1    
    13    6  132 1    
    14    6  133 1    
    15    7    8 1    
    16    8    9 1    
    17    8  134 1    
    18    8  135 1    
    19    9   10 ar   
    20    9   14 ar   
    21   10   11 ar   
    22   10  136 1    
    23   11   12 ar   
    24   11  126 1    
    25   12   13 ar   
    26   12  137 1    
    27   13   14 ar   
    28   13   15 1    
    29   14  138 1    
    30   15   16 1    
    31   15  139 1    
    32   15  140 1    
    33   16   17 1    
    34   17   18 1    
    35   17  141 1    
    36   17  142 1    
    37   18   19 1    
    38   18   67 1    
    39   18  143 1    
    40   19   20 am   BACKBONE|DICT|INTERRES
    41   19  144 1    
    42   20   21 2    
    43   20   22 1    
    44   22   23 1    
    45   22   24 1    
    46   22  145 1    
    47   23  146 1    
    48   23  147 1    
    49   23  148 1    
    50   24   25 am   BACKBONE|DICT|INTERRES
    51   24  149 1    
    52   25   26 2    
    53   25   27 1    
    54   27   28 1    
    55   27   29 1    
    56   27  150 1    
    57   28  151 1    
    58   28  152 1    
    59   28  153 1    
    60   29   30 am   BACKBONE|DICT|INTERRES
    61   29  154 1    
    62   30   31 2    
    63   30   32 1    
    64   32   33 1    
    65   32   34 1    
    66   32  155 1    
    67   33  156 1    
    68   33  157 1    
    69   33  158 1    
    70   34   35 am   BACKBONE|DICT|INTERRES
    71   34  159 1    
    72   35   36 2    
    73   35   37 1    
    74   37   38 1    
    75   37   39 1    
    76   37  160 1    
    77   38  161 1    
    78   38  162 1    
    79   38  163 1    
    80   39   40 am   BACKBONE|DICT|INTERRES
    81   39  164 1    
    82   40   41 2    
    83   40   42 1    
    84   42   43 1    
    85   42   44 1    
    86   42  165 1    
    87   43  166 1    
    88   43  167 1    
    89   43  168 1    
    90   44   45 am   BACKBONE|DICT|INTERRES
    91   44  169 1    
    92   45   46 2    
    93   45   47 1    
    94   47   48 1    
    95   47   49 1    
    96   47  170 1    
    97   48  171 1    
    98   48  172 1    
    99   48  173 1    
   100   49   50 am   BACKBONE|DICT|INTERRES
   101   49  174 1    
   102   50   51 2    
   103   50   52 1    
   104   52   53 1    
   105   52   54 1    
   106   52  175 1    
   107   53  176 1    
   108   53  177 1    
   109   53  178 1    
   110   54   55 am   BACKBONE|DICT|INTERRES
   111   54  179 1    
   112   55   56 2    
   113   55   57 1    
   114   57   58 1    
   115   57   59 1    
   116   57  180 1    
   117   58  181 1    
   118   58  182 1    
   119   58  183 1    
   120   59   60 am   BACKBONE|DICT|INTERRES
   121   59  184 1    
   122   60   61 2    
   123   60   62 1    
   124   62   63 1    
   125   62   64 1    
   126   62  185 1    
   127   63  186 1    
   128   63  187 1    
   129   63  188 1    
   130   64   65 am   BACKBONE|DICT|INTERRES
   131   64  189 1    
   132   65   66 2    
   133   67   68 2    
   134   67   69 am   BACKBONE|DICT|INTERRES
   135   69   70 1    
   136   69  190 1    
   137   70   71 1    
   138   70   72 1    
   139   70  191 1    
   140   71  192 1    
   141   71  193 1    
   142   71  194 1    
   143   72   73 2    
   144   72   74 am   BACKBONE|DICT|INTERRES
   145   74   75 1    
   146   74  195 1    
   147   75   76 1    
   148   75   77 1    
   149   75  196 1    
   150   76  197 1    
   151   76  198 1    
   152   76  199 1    
   153   77   78 2    
   154   77   79 am   BACKBONE|DICT|INTERRES
   155   79   80 1    
   156   79  200 1    
   157   80   81 1    
   158   80   82 1    
   159   80  201 1    
   160   81  202 1    
   161   81  203 1    
   162   81  204 1    
   163   82   83 2    
   164   82   84 am   BACKBONE|DICT|INTERRES
   165   84   85 1    
   166   84  205 1    
   167   85   86 1    
   168   85   87 1    
   169   85  206 1    
   170   86  207 1    
   171   86  208 1    
   172   86  209 1    
   173   87   88 2    
   174   87   89 am   BACKBONE|DICT|INTERRES
   175   89   90 1    
   176   89  210 1    
   177   90   91 1    
   178   90   92 1    
   179   90  211 1    
   180   91  212 1    
   181   91  213 1    
   182   91  214 1    
   183   92   93 2    
   184   92   94 am   BACKBONE|DICT|INTERRES
   185   94   95 1    
   186   94  215 1    
   187   95   96 1    
   188   95   97 1    
   189   95  216 1    
   190   96  217 1    
   191   96  218 1    
   192   96  219 1    
   193   97   98 2    
   194   97   99 am   BACKBONE|DICT|INTERRES
   195   99  100 1    
   196   99  220 1    
   197  100  101 1    
   198  100  102 1    
   199  100  221 1    
   200  101  222 1    
   201  101  223 1    
   202  101  224 1    
   203  102  103 2    
   204  102  104 am   BACKBONE|DICT|INTERRES
   205  104  105 1    
   206  104  225 1    
   207  105  106 1    
   208  105  107 1    
   209  105  226 1    
   210  106  227 1    
   211  106  228 1    
   212  106  229 1    
   213  107  108 2    
   214  107  109 am   BACKBONE|DICT|INTERRES
   215  109  110 1    
   216  109  230 1    
   217  110  111 1    
   218  110  112 1    
   219  110  231 1    
   220  111  232 1    
   221  111  233 1    
   222  111  234 1    
   223  112  113 2    
   224  112  114 am   BACKBONE|DICT|INTERRES
   225  114  115 1    
   226  114  235 1    
   227  115  116 1    
   228  115  117 1    
   229  115  236 1    
   230  116  237 1    
   231  116  238 1    
   232  116  239 1    
   233  117  118 2    
   234  117  119 am   BACKBONE|DICT|INTERRES
   235  119  120 1    
   236  119  240 1    
   237  120  121 1    
   238  120  124 1    
   239  120  241 1    
   240  121  122 am   BACKBONE|DICT|INTERRES
   241  121  123 2    
   242  122  242 1    
   243  122  243 1    
   244  124  125 1    
   245  124  244 1    
   246  124  245 1    
   247  125  126 1    
   248  126  246 1    
   249  126  247 1    
@<TRIPOS>SUBSTRUCTURE
     1 UNK         1 GROUP             0       ****    0 ROOT    
