@<TRIPOS>MOLECULE
3R540
247   249    1
SMALL
USER_CHARGES


@<TRIPOS>ATOM
      1 CA          7.0687  -11.6481  -46.8069 C.3       0 UNK        -0.1800 
      2 C           5.8589  -12.4744  -47.2188 C.2       0 UNK         0.5000 
      3 O           5.1237  -12.0603  -48.1144 O.2       0 UNK        -0.5000 
      4 N           5.6569  -13.6201  -46.5504 N.am      1 UNK        -0.5000 
      5 CA          4.6033  -14.6447  -46.6805 C.3       1 UNK         0.1400 
      6 C6          4.7820  -15.6725  -47.8386 C.3       23 UNK        -0.0398 
      7 S7          5.2568  -15.0615  -49.4932 S.3       23 UNK        -0.2404 
      8 C8          3.6594  -14.7210  -50.3088 C.3       23 UNK        -0.0205 
      9 C9          2.6916  -15.8981  -50.4347 C.ar      23 UNK        -0.0193 
     10 C10         1.3250  -15.6211  -50.5216 C.ar      23 UNK        -0.1150 
     11 C11         0.3917  -16.6490  -50.6657 C.ar      23 UNK        -0.0193 
     12 C12         0.8322  -17.9717  -50.7395 C.ar      23 UNK        -0.1150 
     13 C13         2.1945  -18.2736  -50.6398 C.ar      23 UNK        -0.0193 
     14 C14         3.1187  -17.2316  -50.4984 C.ar      23 UNK        -0.1150 
     15 C15         2.6732  -19.7198  -50.7014 C.3       23 UNK        -0.0205 
     16 S16         2.4367  -20.6040  -49.1210 S.3       23 UNK        -0.2404 
     17 C17         0.6608  -21.0004  -49.2090 C.3       23 UNK        -0.0398 
     18 CA          0.2256  -22.2005  -48.3336 C.3       11 UNK         0.1400 
     19 N           0.3148  -21.9234  -46.8950 N.am      11 UNK        -0.5000 
     20 C          -0.0020  -22.7841  -45.9147 C.2       10 UNK         0.5000 
     21 O          -0.3327  -23.9530  -46.1067 O.2       10 UNK        -0.5000 
     22 CA         -0.0161  -22.2361  -44.4777 C.3       10 UNK         0.1400 
     23 CB          1.3952  -22.2160  -43.8706 C.3       10 UNK        -0.1800 
     24 N          -0.6179  -20.9049  -44.4044 N.am      10 UNK        -0.5000 
     25 C          -1.9204  -20.6512  -44.5984 C.2       9 UNK         0.5000 
     26 O          -2.7593  -21.5218  -44.8283 O.2       9 UNK        -0.5000 
     27 CA         -2.3508  -19.1726  -44.5682 C.3       9 UNK         0.1400 
     28 CB         -2.5950  -18.7057  -43.1258 C.3       9 UNK        -0.1800 
     29 N          -1.3701  -18.2932  -45.2038 N.am      9 UNK        -0.5000 
     30 C          -1.0850  -18.3182  -46.5143 C.2       8 UNK         0.5000 
     31 O          -1.6663  -19.0379  -47.3271 O.2       8 UNK        -0.5000 
     32 CA          0.0792  -17.4276  -46.9854 C.3       8 UNK         0.1400 
     33 CB         -0.4204  -16.0038  -47.2539 C.3       8 UNK        -0.1800 
     34 N           1.1981  -17.3774  -46.0407 N.am      8 UNK        -0.5000 
     35 C           1.8880  -18.4496  -45.6234 C.2       7 UNK         0.5000 
     36 O           1.6603  -19.5881  -46.0229 O.2       7 UNK        -0.5000 
     37 CA          2.9668  -18.2570  -44.5481 C.3       7 UNK         0.1400 
     38 CB          4.3769  -18.3275  -45.1468 C.3       7 UNK        -0.1800 
     39 N           2.7885  -17.0040  -43.8126 N.am      7 UNK        -0.5000 
     40 C           2.6595  -16.9385  -42.4822 C.2       6 UNK         0.5000 
     41 O           2.8117  -17.9001  -41.7270 O.2       6 UNK        -0.5000 
     42 CA          2.2739  -15.5762  -41.8799 C.3       6 UNK         0.1400 
     43 CB          3.5366  -14.7656  -41.5516 C.3       6 UNK        -0.1800 
     44 N           1.3662  -14.7537  -42.6866 N.am      6 UNK        -0.5000 
     45 C           0.1701  -15.1257  -43.1750 C.2       5 UNK         0.5000 
     46 O          -0.2411  -16.2880  -43.1743 O.2       5 UNK        -0.5000 
     47 CA         -0.7210  -14.0098  -43.7689 C.3       5 UNK         0.1400 
     48 CB         -2.2222  -14.3584  -43.7239 C.3       5 UNK        -0.1800 
     49 N          -0.4796  -12.6823  -43.1972 N.am      5 UNK        -0.5000 
     50 C          -0.5324  -12.3080  -41.9088 C.2       4 UNK         0.5000 
     51 O          -0.9421  -13.0346  -41.0023 O.2       4 UNK        -0.5000 
     52 CA         -0.0055  -10.8889  -41.5798 C.3       4 UNK         0.1400 
     53 CB          0.6738  -10.8257  -40.1958 C.3       4 UNK        -0.1800 
     54 N           0.8823  -10.3293  -42.6126 N.am      4 UNK        -0.5000 
     55 C           2.0343  -10.8531  -43.0590 C.2       3 UNK         0.5000 
     56 O           2.5445  -11.8826  -42.6150 O.2       3 UNK        -0.5000 
     57 CA          2.6622  -10.1726  -44.2886 C.3       3 UNK         0.1400 
     58 CB          4.1534   -9.8756  -44.0622 C.3       3 UNK        -0.1800 
     59 N           2.5243  -11.0186  -45.4750 N.am      3 UNK        -0.5000 
     60 C           1.3717  -11.4573  -46.0031 C.2       2 UNK         0.5000 
     61 O           0.2607  -11.1354  -45.5812 O.2       2 UNK        -0.5000 
     62 CA          1.4678  -12.4388  -47.1838 C.3       2 UNK         0.1400 
     63 CB          1.2088  -11.7134  -48.5121 C.3       2 UNK        -0.1800 
     64 N           2.7689  -13.1005  -47.2493 N.am      2 UNK        -0.5000 
     65 C           3.1434  -14.1613  -46.5307 C.2       1 UNK         0.5000 
     66 O           2.3934  -14.7573  -45.7526 O.2       1 UNK        -0.5000 
     67 C          -1.1994  -22.6319  -48.7330 C.2       11 UNK         0.5000 
     68 O          -1.3630  -23.6863  -49.3485 O.2       11 UNK        -0.5000 
     69 N          -2.1973  -21.8252  -48.3410 N.am      12 UNK        -0.5000 
     70 CA         -3.6143  -22.0795  -48.5927 C.3       12 UNK         0.1400 
     71 CB         -4.4467  -20.8841  -48.1047 C.3       12 UNK        -0.1800 
     72 C          -4.1062  -23.3862  -47.9473 C.2       12 UNK         0.5000 
     73 O          -4.8061  -24.1541  -48.6060 O.2       12 UNK        -0.5000 
     74 N          -3.7081  -23.6297  -46.6900 N.am      13 UNK        -0.5000 
     75 CA         -4.0296  -24.8425  -45.9383 C.3       13 UNK         0.1400 
     76 CB         -3.5994  -24.6771  -44.4732 C.3       13 UNK        -0.1800 
     77 C          -3.4087  -26.1106  -46.5498 C.2       13 UNK         0.5000 
     78 O          -4.1149  -27.1057  -46.7144 O.2       13 UNK        -0.5000 
     79 N          -2.1171  -26.0491  -46.9052 N.am      14 UNK        -0.5000 
     80 CA         -1.3676  -27.1496  -47.5190 C.3       14 UNK         0.1400 
     81 CB          0.1193  -26.7740  -47.6060 C.3       14 UNK        -0.1800 
     82 C          -1.9048  -27.5467  -48.9055 C.2       14 UNK         0.5000 
     83 O          -1.9491  -28.7348  -49.2260 O.2       14 UNK        -0.5000 
     84 N          -2.3332  -26.5471  -49.6851 N.am      15 UNK        -0.5000 
     85 CA         -2.9637  -26.7169  -50.9935 C.3       15 UNK         0.1400 
     86 CB         -2.6849  -25.4574  -51.8226 C.3       15 UNK        -0.1800 
     87 C          -4.4795  -26.9994  -50.9129 C.2       15 UNK         0.5000 
     88 O          -5.1130  -27.1514  -51.9582 O.2       15 UNK        -0.5000 
     89 N          -5.0467  -27.0356  -49.6959 N.am      16 UNK        -0.5000 
     90 CA         -6.4623  -27.2616  -49.3717 C.3       16 UNK         0.1400 
     91 CB         -6.8416  -28.7305  -49.6491 C.3       16 UNK        -0.1800 
     92 C          -7.4204  -26.2588  -50.0545 C.2       16 UNK         0.5000 
     93 O          -8.5463  -26.6166  -50.4045 O.2       16 UNK        -0.5000 
     94 N          -6.9303  -25.0280  -50.2606 N.am      17 UNK        -0.5000 
     95 CA         -7.5459  -23.9055  -50.9749 C.3       17 UNK         0.1400 
     96 CB         -8.7804  -23.3870  -50.2107 C.3       17 UNK        -0.1800 
     97 C          -7.8464  -24.1656  -52.4702 C.2       17 UNK         0.5000 
     98 O          -8.5303  -23.3512  -53.0922 O.2       17 UNK        -0.5000 
     99 N          -7.3195  -25.2590  -53.0441 N.am      18 UNK        -0.5000 
    100 CA        -7.4342  -25.5795  -54.4716 C.3       18 UNK         0.1400 
    101 CB        -7.1781  -27.0803  -54.6756 C.3       18 UNK        -0.1800 
    102 C         -6.4691  -24.7415  -55.3332 C.2       18 UNK         0.5000 
    103 O         -6.7094  -24.5567  -56.5268 O.2       18 UNK        -0.5000 
    104 N         -5.4092  -24.2375  -54.6981 N.am      19 UNK        -0.5000 
    105 CA        -4.4317  -23.2912  -55.2096 C.3       19 UNK         0.1400 
    106 CB        -3.2933  -24.0517  -55.9114 C.3       19 UNK        -0.1800 
    107 C         -3.9175  -22.4868  -54.0061 C.2       19 UNK         0.5000 
    108 O         -4.1905  -22.8648  -52.8633 O.2       19 UNK        -0.5000 
    109 N         -3.1922  -21.3928  -54.2790 N.am      20 UNK        -0.5000 
    110 CA        -2.5017  -20.5336  -53.3031 C.3       20 UNK         0.1400 
    111 CB        -1.2791  -21.2733  -52.7252 C.3       20 UNK        -0.1800 
    112 C         -3.4153  -19.9629  -52.1937 C.2       20 UNK         0.5000 
    113 O         -2.9547  -19.7053  -51.0818 O.2       20 UNK        -0.5000 
    114 N         -4.6986  -19.7619  -52.5237 N.am      21 UNK        -0.5000 
    115 CA        -5.7746  -19.3622  -51.6118 C.3       21 UNK         0.1400 
    116 CB        -7.1185  -19.7656  -52.2421 C.3       21 UNK        -0.1800 
    117 C         -5.7542  -17.8693  -51.2139 C.2       21 UNK         0.5000 
    118 O         -6.7146  -17.3876  -50.6120 O.2       21 UNK        -0.5000 
    119 N         -4.6701  -17.1632  -51.5522 N.am      22 UNK        -0.5000 
    120 CA        -4.3894  -15.7655  -51.1999 C.3       22 UNK         0.1400 
    121 C         -4.1727  -15.4827  -49.6811 C.2       22 UNK         0.5000 
    122 N         -4.0247  -16.4867  -48.8246 N.am      22 UNK        -0.7600 
    123 O         -4.1466  -14.3255  -49.2727 O.2       22 UNK        -0.5000 
    124 C124       -3.2528  -15.1723  -52.0837 C.3       23 UNK        -0.0398 
    125 S125       -1.7844  -16.2399  -52.3527 S.3       23 UNK        -0.2404 
    126 C126       -1.0928  -16.3270  -50.6768 C.3       23 UNK        -0.0205 
    127 H127        7.6361  -12.1259  -46.0079 H         1 UNK         0.0600 
    128 H128        7.7337  -11.5083  -47.6592 H         1 UNK         0.0600 
    129 H129        6.7498  -10.6662  -46.4571 H         1 UNK         0.0600 
    130 H130        6.3265  -13.8365  -45.8252 H         1 UNK         0.3000 
    131 H131        4.7549  -15.2241  -45.7687 H         1 UNK         0.0600 
    132 H132        5.5907  -16.3482  -47.5585 H         1 UNK         0.0800 
    133 H133        3.9051  -16.3163  -47.9267 H         1 UNK         0.0800 
    134 H134        3.1786  -13.8967  -49.7841 H         1 UNK         0.0800 
    135 H135        3.8688  -14.3522  -51.3135 H         1 UNK         0.0800 
    136 H136        0.9822  -14.5974  -50.4704 H         1 UNK         0.1150 
    137 H137        0.1061  -18.7625  -50.8557 H         1 UNK         0.1150 
    138 H138        4.1722  -17.4642  -50.4412 H         1 UNK         0.1150 
    139 H139        2.1644  -20.2467  -51.5098 H         1 UNK         0.0800 
    140 H140        3.7346  -19.7480  -50.9519 H         1 UNK         0.0800 
    141 H141        0.4309  -21.2107  -50.2533 H         1 UNK         0.0800 
    142 H142        0.0942  -20.1089  -48.9423 H         1 UNK         0.0800 
    143 H143        0.8906  -23.0405  -48.5448 H         1 UNK         0.0600 
    144 H144        0.6510  -20.9986  -46.6345 H         1 UNK         0.3000 
    145 H145       -0.6262  -22.9099  -43.8724 H         1 UNK         0.0600 
    146 H146        1.3804  -21.8397  -42.8476 H         1 UNK         0.0600 
    147 H147        1.8152  -23.2221  -43.8404 H         1 UNK         0.0600 
    148 H148        2.0824  -21.5971  -44.4464 H         1 UNK         0.0600 
    149 H149        0.0138  -20.1268  -44.2899 H         1 UNK         0.3000 
    150 H150       -3.2904  -19.0876  -45.1183 H         1 UNK         0.0600 
    151 H151       -3.3391  -19.3324  -42.6326 H         1 UNK         0.0600 
    152 H152       -2.9643  -17.6802  -43.1012 H         1 UNK         0.0600 
    153 H153       -1.6824  -18.7451  -42.5297 H         1 UNK         0.0600 
    154 H154       -0.8557  -17.6657  -44.5938 H         1 UNK         0.3000 
    155 H155        0.4557  -17.8455  -47.9200 H         1 UNK         0.0600 
    156 H156        0.3459  -15.4063  -47.7460 H         1 UNK         0.0600 
    157 H157       -0.7079  -15.5043  -46.3324 H         1 UNK         0.0600 
    158 H158       -1.2992  -16.0087  -47.8965 H         1 UNK         0.0600 
    159 H159        1.4629  -16.4558  -45.7142 H         1 UNK         0.3000 
    160 H160        2.8593  -19.1091  -43.8739 H         1 UNK         0.0600 
    161 H161        4.5413  -17.5396  -45.8738 H         1 UNK         0.0600 
    162 H162        4.5364  -19.2792  -45.6556 H         1 UNK         0.0600 
    163 H163        5.1394  -18.2388  -44.3729 H         1 UNK         0.0600 
    164 H164        2.6423  -16.1583  -44.3530 H         1 UNK         0.3000 
    165 H165        1.7551  -15.7823  -40.9417 H         1 UNK         0.0600 
    166 H166        4.0440  -14.4304  -42.4572 H         1 UNK         0.0600 
    167 H167        3.2942  -13.8850  -40.9567 H         1 UNK         0.0600 
    168 H168        4.2478  -15.3574  -40.9738 H         1 UNK         0.0600 
    169 H169        1.6260  -13.7762  -42.7629 H         1 UNK         0.3000 
    170 H170       -0.4296  -13.9208  -44.8141 H         1 UNK         0.0600 
    171 H171       -2.5696  -14.5088  -42.7013 H         1 UNK         0.0600 
    172 H172       -2.4311  -15.2740  -44.2787 H         1 UNK         0.0600 
    173 H173       -2.8239  -13.5671  -44.1706 H         1 UNK         0.0600 
    174 H174       -0.1612  -11.9885  -43.8675 H         1 UNK         0.3000 
    175 H175       -0.8834  -10.2423  -41.5481 H         1 UNK         0.0600 
    176 H176        1.0367   -9.8209  -39.9799 H         1 UNK         0.0600 
    177 H177       -0.0251  -11.0931  -39.4025 H         1 UNK         0.0600 
    178 H178        1.5203  -11.5100  -40.1288 H         1 UNK         0.0600 
    179 H179        0.5218   -9.5121  -43.0862 H         1 UNK         0.3000 
    180 H180        2.1482   -9.2286  -44.4801 H         1 UNK         0.0600 
    181 H181        4.7296  -10.7894  -43.9104 H         1 UNK         0.0600 
    182 H182        4.2961   -9.2474  -43.1820 H         1 UNK         0.0600 
    183 H183        4.5840   -9.3463  -44.9125 H         1 UNK         0.0600 
    184 H184        3.3820  -11.3586  -45.8819 H         1 UNK         0.3000 
    185 H185        0.6889  -13.1901  -47.0472 H         1 UNK         0.0600 
    186 H186        1.1922  -12.4132  -49.3470 H         1 UNK         0.0600 
    187 H187        0.2443  -11.2040  -48.4988 H         1 UNK         0.0600 
    188 H188        1.9748  -10.9644  -48.7172 H         1 UNK         0.0600 
    189 H189        3.4895  -12.6522  -47.8149 H         1 UNK         0.3000 
    190 H190       -1.9737  -20.9575  -47.8631 H         1 UNK         0.3000 
    191 H191       -3.7463  -22.1700  -49.6734 H         1 UNK         0.0600 
    192 H192       -4.1431  -19.9639  -48.6036 H         1 UNK         0.0600 
    193 H193       -5.5067  -21.0351  -48.3123 H         1 UNK         0.0600 
    194 H194       -4.3388  -20.7292  -47.0308 H         1 UNK         0.0600 
    195 H195       -3.1652  -22.9245  -46.2013 H         1 UNK         0.3000 
    196 H196       -5.1145  -24.9647  -45.9578 H         1 UNK         0.0600 
    197 H197       -3.8368  -25.5691  -43.8922 H         1 UNK         0.0600 
    198 H198       -4.1139  -23.8381  -44.0046 H         1 UNK         0.0600 
    199 H199       -2.5268  -24.5026  -44.3853 H         1 UNK         0.0600 
    200 H200       -1.5920  -25.1976  -46.7169 H         1 UNK         0.3000 
    201 H201       -1.4610  -28.0202  -46.8668 H         1 UNK         0.0600 
    202 H202        0.5365  -26.5872  -46.6164 H         1 UNK         0.0600 
    203 H203        0.2717  -25.8769  -48.2078 H         1 UNK         0.0600 
    204 H204        0.7017  -27.5779  -48.0579 H         1 UNK         0.0600 
    205 H205       -2.2165  -25.5912  -49.3627 H         1 UNK         0.3000 
    206 H206       -2.5068  -27.5654  -51.5066 H         1 UNK         0.0600 
    207 H207       -1.6149  -25.3036  -51.9626 H         1 UNK         0.0600 
    208 H208       -3.1371  -25.5214  -52.8127 H         1 UNK         0.0600 
    209 H209       -3.0845  -24.5719  -51.3280 H         1 UNK         0.0600 
    210 H210       -4.4491  -26.8698  -48.8959 H         1 UNK         0.3000 
    211 H211       -6.5593  -27.0895  -48.2990 H         1 UNK         0.0600 
    212 H212       -6.8163  -28.9593  -50.7151 H         1 UNK         0.0600 
    213 H213       -7.8473  -28.9514  -49.2898 H         1 UNK         0.0600 
    214 H214       -6.1607  -29.4146  -49.1427 H         1 UNK         0.0600 
    215 H215       -6.0146  -24.8289  -49.8617 H         1 UNK         0.3000 
    216 H216       -6.7981  -23.1108  -50.9629 H         1 UNK         0.0600 
    217 H217       -8.5383  -23.1772  -49.1688 H         1 UNK         0.0600 
    218 H218       -9.5984  -24.1076  -50.2277 H         1 UNK         0.0600 
    219 H219       -9.1524  -22.4596  -50.6477 H         1 UNK         0.0600 
    220 H220       -6.7522  -25.8865  -52.4844 H         1 UNK         0.3000 
    221 H221       -8.4524  -25.3613  -54.8006 H         1 UNK         0.0600 
    222 H222       -6.1543  -27.3534  -54.4181 H         1 UNK         0.0600 
    223 H223       -7.8503  -27.6831  -54.0646 H         1 UNK         0.0600 
    224 H224       -7.3396  -27.3643  -55.7161 H         1 UNK         0.0600 
    225 H225       -5.3255  -24.3923  -53.7005 H         1 UNK         0.3000 
    226 H226       -4.9138  -22.6051  -55.9088 H         1 UNK         0.0600 
    227 H227       -3.6704  -24.6451  -56.7444 H         1 UNK         0.0600 
    228 H228       -2.5495  -23.3639  -56.3149 H         1 UNK         0.0600 
    229 H229       -2.7796  -24.7270  -55.2261 H         1 UNK         0.0600 
    230 H230       -3.0452  -21.1475  -55.2485 H         1 UNK         0.3000 
    231 H231       -2.1322  -19.6720  -53.8610 H         1 UNK         0.0600 
    232 H232       -0.6440  -20.5845  -52.1705 H         1 UNK         0.0600 
    233 H233       -0.6671  -21.7084  -53.5151 H         1 UNK         0.0600 
    234 H234       -1.5749  -22.0756  -52.0474 H         1 UNK         0.0600 
    235 H235       -4.9772  -19.9773  -53.4693 H         1 UNK         0.3000 
    236 H236       -5.6586  -19.9324  -50.6885 H         1 UNK         0.0600 
    237 H237       -7.9488  -19.5725  -51.5616 H         1 UNK         0.0600 
    238 H238       -7.3116  -19.2135  -53.1625 H         1 UNK         0.0600 
    239 H239       -7.1399  -20.8300  -52.4778 H         1 UNK         0.0600 
    240 H240       -3.9137  -17.6529  -52.0075 H         1 UNK         0.3000 
    241 H241       -5.2945  -15.2072  -51.4468 H         1 UNK         0.0600 
    242 H242       -4.0312  -17.4414  -49.1454 H         1 UNK         0.3800 
    243 H243       -3.9129  -16.2854  -47.8449 H         1 UNK         0.3800 
    244 H244       -3.6631  -14.9660  -53.0730 H         1 UNK         0.0800 
    245 H245       -2.9232  -14.2008  -51.7108 H         1 UNK         0.0800 
    246 H246       -1.6299  -17.0894  -50.1108 H         1 UNK         0.0800 
    247 H247       -1.2620  -15.3768  -50.1688 H         1 UNK         0.0800 
@<TRIPOS>BOND
     1    1    2 1    
     2    1  127 1    
     3    1  128 1    
     4    1  129 1    
     5    2    3 2    
     6    2    4 am   BACKBONE|DICT|INTERRES
     7    4    5 1    
     8    4  130 1    
     9    5    6 1    
    10    5   65 1    
    11    5  131 1    
    12    6    7 1    
    13    6  132 1    
    14    6  133 1    
    15    7    8 1    
    16    8    9 1    
    17    8  134 1    
    18    8  135 1    
    19    9   10 ar   
    20    9   14 ar   
    21   10   11 ar   
    22   10  136 1    
    23   11   12 ar   
    24   11  126 1    
    25   12   13 ar   
    26   12  137 1    
    27   13   14 ar   
    28   13   15 1    
    29   14  138 1    
    30   15   16 1    
    31   15  139 1    
    32   15  140 1    
    33   16   17 1    
    34   17   18 1    
    35   17  141 1    
    36   17  142 1    
    37   18   19 1    
    38   18   67 1    
    39   18  143 1    
    40   19   20 am   BACKBONE|DICT|INTERRES
    41   19  144 1    
    42   20   21 2    
    43   20   22 1    
    44   22   23 1    
    45   22   24 1    
    46   22  145 1    
    47   23  146 1    
    48   23  147 1    
    49   23  148 1    
    50   24   25 am   BACKBONE|DICT|INTERRES
    51   24  149 1    
    52   25   26 2    
    53   25   27 1    
    54   27   28 1    
    55   27   29 1    
    56   27  150 1    
    57   28  151 1    
    58   28  152 1    
    59   28  153 1    
    60   29   30 am   BACKBONE|DICT|INTERRES
    61   29  154 1    
    62   30   31 2    
    63   30   32 1    
    64   32   33 1    
    65   32   34 1    
    66   32  155 1    
    67   33  156 1    
    68   33  157 1    
    69   33  158 1    
    70   34   35 am   BACKBONE|DICT|INTERRES
    71   34  159 1    
    72   35   36 2    
    73   35   37 1    
    74   37   38 1    
    75   37   39 1    
    76   37  160 1    
    77   38  161 1    
    78   38  162 1    
    79   38  163 1    
    80   39   40 am   BACKBONE|DICT|INTERRES
    81   39  164 1    
    82   40   41 2    
    83   40   42 1    
    84   42   43 1    
    85   42   44 1    
    86   42  165 1    
    87   43  166 1    
    88   43  167 1    
    89   43  168 1    
    90   44   45 am   BACKBONE|DICT|INTERRES
    91   44  169 1    
    92   45   46 2    
    93   45   47 1    
    94   47   48 1    
    95   47   49 1    
    96   47  170 1    
    97   48  171 1    
    98   48  172 1    
    99   48  173 1    
   100   49   50 am   BACKBONE|DICT|INTERRES
   101   49  174 1    
   102   50   51 2    
   103   50   52 1    
   104   52   53 1    
   105   52   54 1    
   106   52  175 1    
   107   53  176 1    
   108   53  177 1    
   109   53  178 1    
   110   54   55 am   BACKBONE|DICT|INTERRES
   111   54  179 1    
   112   55   56 2    
   113   55   57 1    
   114   57   58 1    
   115   57   59 1    
   116   57  180 1    
   117   58  181 1    
   118   58  182 1    
   119   58  183 1    
   120   59   60 am   BACKBONE|DICT|INTERRES
   121   59  184 1    
   122   60   61 2    
   123   60   62 1    
   124   62   63 1    
   125   62   64 1    
   126   62  185 1    
   127   63  186 1    
   128   63  187 1    
   129   63  188 1    
   130   64   65 am   BACKBONE|DICT|INTERRES
   131   64  189 1    
   132   65   66 2    
   133   67   68 2    
   134   67   69 am   BACKBONE|DICT|INTERRES
   135   69   70 1    
   136   69  190 1    
   137   70   71 1    
   138   70   72 1    
   139   70  191 1    
   140   71  192 1    
   141   71  193 1    
   142   71  194 1    
   143   72   73 2    
   144   72   74 am   BACKBONE|DICT|INTERRES
   145   74   75 1    
   146   74  195 1    
   147   75   76 1    
   148   75   77 1    
   149   75  196 1    
   150   76  197 1    
   151   76  198 1    
   152   76  199 1    
   153   77   78 2    
   154   77   79 am   BACKBONE|DICT|INTERRES
   155   79   80 1    
   156   79  200 1    
   157   80   81 1    
   158   80   82 1    
   159   80  201 1    
   160   81  202 1    
   161   81  203 1    
   162   81  204 1    
   163   82   83 2    
   164   82   84 am   BACKBONE|DICT|INTERRES
   165   84   85 1    
   166   84  205 1    
   167   85   86 1    
   168   85   87 1    
   169   85  206 1    
   170   86  207 1    
   171   86  208 1    
   172   86  209 1    
   173   87   88 2    
   174   87   89 am   BACKBONE|DICT|INTERRES
   175   89   90 1    
   176   89  210 1    
   177   90   91 1    
   178   90   92 1    
   179   90  211 1    
   180   91  212 1    
   181   91  213 1    
   182   91  214 1    
   183   92   93 2    
   184   92   94 am   BACKBONE|DICT|INTERRES
   185   94   95 1    
   186   94  215 1    
   187   95   96 1    
   188   95   97 1    
   189   95  216 1    
   190   96  217 1    
   191   96  218 1    
   192   96  219 1    
   193   97   98 2    
   194   97   99 am   BACKBONE|DICT|INTERRES
   195   99  100 1    
   196   99  220 1    
   197  100  101 1    
   198  100  102 1    
   199  100  221 1    
   200  101  222 1    
   201  101  223 1    
   202  101  224 1    
   203  102  103 2    
   204  102  104 am   BACKBONE|DICT|INTERRES
   205  104  105 1    
   206  104  225 1    
   207  105  106 1    
   208  105  107 1    
   209  105  226 1    
   210  106  227 1    
   211  106  228 1    
   212  106  229 1    
   213  107  108 2    
   214  107  109 am   BACKBONE|DICT|INTERRES
   215  109  110 1    
   216  109  230 1    
   217  110  111 1    
   218  110  112 1    
   219  110  231 1    
   220  111  232 1    
   221  111  233 1    
   222  111  234 1    
   223  112  113 2    
   224  112  114 am   BACKBONE|DICT|INTERRES
   225  114  115 1    
   226  114  235 1    
   227  115  116 1    
   228  115  117 1    
   229  115  236 1    
   230  116  237 1    
   231  116  238 1    
   232  116  239 1    
   233  117  118 2    
   234  117  119 am   BACKBONE|DICT|INTERRES
   235  119  120 1    
   236  119  240 1    
   237  120  121 1    
   238  120  124 1    
   239  120  241 1    
   240  121  122 am   BACKBONE|DICT|INTERRES
   241  121  123 2    
   242  122  242 1    
   243  122  243 1    
   244  124  125 1    
   245  124  244 1    
   246  124  245 1    
   247  125  126 1    
   248  126  246 1    
   249  126  247 1    
@<TRIPOS>SUBSTRUCTURE
     1 UNK         1 GROUP             0       ****    0 ROOT    
