@<TRIPOS>MOLECULE
3R540
247   249    1
SMALL
USER_CHARGES


@<TRIPOS>ATOM
      1 CA          4.4805  -16.4625  -46.5629 C.3       0 UNK        -0.1800 
      2 C           5.0700  -15.8844  -47.8454 C.2       0 UNK         0.5000 
      3 O           6.0484  -16.4235  -48.3571 O.2       0 UNK        -0.5000 
      4 N           4.5291  -14.7885  -48.3943 N.am      1 UNK        -0.5000 
      5 CA          3.3637  -14.0286  -47.9156 C.3       1 UNK         0.1400 
      6 C6          2.4073  -13.6311  -49.0745 C.3       23 UNK        -0.0398 
      7 S7          1.9474  -14.9818  -50.2191 S.3       23 UNK        -0.2404 
      8 C8          1.0053  -16.1100  -49.1432 C.3       23 UNK        -0.0205 
      9 C9         -0.0510  -16.9019  -49.9057 C.ar      23 UNK        -0.0193 
     10 C10         0.2971  -17.6857  -51.0115 C.ar      23 UNK        -0.1150 
     11 C11        -0.6823  -18.3815  -51.7273 C.ar      23 UNK        -0.0193 
     12 C12        -2.0158  -18.3119  -51.3142 C.ar      23 UNK        -0.1150 
     13 C13        -2.3749  -17.5555  -50.1962 C.ar      23 UNK        -0.0193 
     14 C14        -1.3883  -16.8514  -49.4988 C.ar      23 UNK        -0.1150 
     15 C15        -3.8321  -17.4765  -49.7588 C.3       23 UNK        -0.0205 
     16 S16        -4.4396  -19.0351  -49.0348 S.3       23 UNK        -0.2404 
     17 C17        -3.3442  -19.2468  -47.5925 C.3       23 UNK        -0.0398 
     18 CA         -2.4015  -20.4615  -47.7723 C.3       11 UNK         0.1400 
     19 N          -1.0993  -20.2668  -47.1343 N.am      11 UNK        -0.5000 
     20 C          -0.0415  -21.0659  -47.3304 C.2       10 UNK         0.5000 
     21 O          -0.0534  -22.0430  -48.0779 O.2       10 UNK        -0.5000 
     22 CA          1.2287  -20.7567  -46.5227 C.3       10 UNK         0.1400 
     23 CB          2.0129  -19.6033  -47.1654 C.3       10 UNK        -0.1800 
     24 N           0.9427  -20.4471  -45.1220 N.am      10 UNK        -0.5000 
     25 C           0.3759  -21.2956  -44.2526 C.2       9 UNK         0.5000 
     26 O           0.0643  -22.4528  -44.5318 O.2       9 UNK        -0.5000 
     27 CA          0.0551  -20.7467  -42.8510 C.3       9 UNK         0.1400 
     28 CB          1.3178  -20.6913  -41.9784 C.3       9 UNK        -0.1800 
     29 N          -0.5769  -19.4278  -42.8932 N.am      9 UNK        -0.5000 
     30 C          -1.7651  -19.1740  -43.4618 C.2       8 UNK         0.5000 
     31 O          -2.4748  -20.0337  -43.9855 O.2       8 UNK        -0.5000 
     32 CA         -2.2112  -17.7017  -43.5003 C.3       8 UNK         0.1400 
     33 CB         -2.7507  -17.2541  -42.1337 C.3       8 UNK        -0.1800 
     34 N          -1.1389  -16.8026  -43.9273 N.am      8 UNK        -0.5000 
     35 C          -0.5382  -16.8589  -45.1243 C.2       7 UNK         0.5000 
     36 O          -0.8501  -17.6480  -46.0132 O.2       7 UNK        -0.5000 
     37 CA          0.6453  -15.9097  -45.3541 C.3       7 UNK         0.1400 
     38 CB          0.1512  -14.4841  -45.6468 C.3       7 UNK        -0.1800 
     39 N           1.5760  -15.8952  -44.2297 N.am      7 UNK        -0.5000 
     40 C           2.2667  -16.9524  -43.7814 C.2       6 UNK         0.5000 
     41 O           2.2373  -18.0625  -44.3074 O.2       6 UNK        -0.5000 
     42 CA          3.0964  -16.7438  -42.5046 C.3       6 UNK         0.1400 
     43 CB          4.4432  -16.0755  -42.8207 C.3       6 UNK        -0.1800 
     44 N           2.3730  -15.9514  -41.5120 N.am      6 UNK        -0.5000 
     45 C           1.2775  -16.3694  -40.8622 C.2       5 UNK         0.5000 
     46 O           0.7774  -17.4857  -41.0050 O.2       5 UNK        -0.5000 
     47 CA          0.6082  -15.3455  -39.9285 C.3       5 UNK         0.1400 
     48 CB          1.3198  -15.3025  -38.5680 C.3       5 UNK        -0.1800 
     49 N           0.5811  -14.0008  -40.5080 N.am      5 UNK        -0.5000 
     50 C          -0.1544  -13.6596  -41.5750 C.2       4 UNK         0.5000 
     51 O          -0.9018  -14.4384  -42.1670 O.2       4 UNK        -0.5000 
     52 CA          0.0054  -12.2177  -42.0922 C.3       4 UNK         0.1400 
     53 CB         -0.8669  -11.2511  -41.2772 C.3       4 UNK        -0.1800 
     54 N           1.3919  -11.7370  -42.0994 N.am      4 UNK        -0.5000 
     55 C           2.3856  -12.2969  -42.8007 C.2       3 UNK         0.5000 
     56 O           2.2660  -13.3408  -43.4434 O.2       3 UNK        -0.5000 
     57 CA          3.7484  -11.5993  -42.7678 C.3       3 UNK         0.1400 
     58 CB          4.5809  -12.0804  -41.5684 C.3       3 UNK        -0.1800 
     59 N           4.4469  -11.9250  -44.0076 N.am      3 UNK        -0.5000 
     60 C           5.1834  -11.0764  -44.7297 C.2       2 UNK         0.5000 
     61 O           5.4326   -9.9229  -44.3756 O.2       2 UNK        -0.5000 
     62 CA          5.7500  -11.5853  -46.0723 C.3       2 UNK         0.1400 
     63 CB          7.2406  -11.9280  -45.9208 C.3       2 UNK        -0.1800 
     64 N           5.0677  -12.7417  -46.6671 N.am      2 UNK        -0.5000 
     65 C           3.8001  -12.7787  -47.1072 C.2       1 UNK         0.5000 
     66 O           2.9995  -11.8611  -46.9277 O.2       1 UNK        -0.5000 
     67 C          -3.0783  -21.7741  -47.3234 C.2       11 UNK         0.5000 
     68 O          -3.6524  -22.4803  -48.1524 O.2       11 UNK        -0.5000 
     69 N          -2.9782  -22.1028  -46.0289 N.am      12 UNK        -0.5000 
     70 CA         -3.4656  -23.3619  -45.4689 C.3       12 UNK         0.1400 
     71 CB         -3.4112  -23.3008  -43.9351 C.3       12 UNK        -0.1800 
     72 C          -2.6933  -24.5831  -46.0023 C.2       12 UNK         0.5000 
     73 O          -3.3175  -25.5752  -46.3778 O.2       12 UNK        -0.5000 
     74 N          -1.3580  -24.4856  -46.0280 N.am      13 UNK        -0.5000 
     75 CA         -0.4588  -25.5682  -46.4175 C.3       13 UNK         0.1400 
     76 CB          0.9485  -25.2863  -45.8657 C.3       13 UNK        -0.1800 
     77 C          -0.4105  -25.8105  -47.9358 C.2       13 UNK         0.5000 
     78 O          -0.6665  -26.9312  -48.3778 O.2       13 UNK        -0.5000 
     79 N          -0.0389  -24.7780  -48.7030 N.am      14 UNK        -0.5000 
     80 CA          0.2879  -24.8962  -50.1241 C.3       14 UNK         0.1400 
     81 CB          1.3596  -23.8578  -50.4941 C.3       14 UNK        -0.1800 
     82 C          -0.9447  -24.7398  -51.0232 C.2       14 UNK         0.5000 
     83 O          -1.0936  -25.5013  -51.9795 O.2       14 UNK        -0.5000 
     84 N          -1.8046  -23.7630  -50.7051 N.am      15 UNK        -0.5000 
     85 CA         -3.0046  -23.4524  -51.4869 C.3       15 UNK         0.1400 
     86 CB         -3.2677  -21.9402  -51.4524 C.3       15 UNK        -0.1800 
     87 C          -4.2471  -24.2393  -51.0374 C.2       15 UNK         0.5000 
     88 O          -5.3072  -24.0634  -51.6393 O.2       15 UNK        -0.5000 
     89 N          -4.1078  -25.0708  -49.9940 N.am      16 UNK        -0.5000 
     90 CA         -5.1425  -25.9193  -49.3950 C.3       16 UNK         0.1400 
     91 CB         -5.5238  -27.0636  -50.3566 C.3       16 UNK        -0.1800 
     92 C          -6.3556  -25.1088  -48.8915 C.2       16 UNK         0.5000 
     93 O          -7.5014  -25.4735  -49.1587 O.2       16 UNK        -0.5000 
     94 N          -6.0608  -24.0052  -48.1893 N.am      17 UNK        -0.5000 
     95 CA         -6.9932  -23.0084  -47.6563 C.3       17 UNK         0.1400 
     96 CB         -7.9651  -23.6279  -46.6303 C.3       17 UNK        -0.1800 
     97 C          -7.6904  -22.2243  -48.7843 C.2       17 UNK         0.5000 
     98 O          -8.9172  -22.1129  -48.8065 O.2       17 UNK        -0.5000 
     99 N          -6.8653  -21.6962  -49.7000 N.am      18 UNK        -0.5000 
    100 CA        -7.2227  -20.8504  -50.8458 C.3       18 UNK         0.1400 
    101 CB        -7.8945  -19.5393  -50.3826 C.3       18 UNK        -0.1800 
    102 C         -8.0414  -21.5660  -51.9418 C.2       18 UNK         0.5000 
    103 O         -8.6855  -20.8969  -52.7514 O.2       18 UNK        -0.5000 
    104 N         -7.9857  -22.9033  -51.9817 N.am      19 UNK        -0.5000 
    105 CA        -8.5918  -23.7218  -53.0331 C.3       19 UNK         0.1400 
    106 CB        -8.7022  -25.1727  -52.5440 C.3       19 UNK        -0.1800 
    107 C         -7.7906  -23.6481  -54.3468 C.2       19 UNK         0.5000 
    108 O         -8.3833  -23.6554  -55.4262 O.2       19 UNK        -0.5000 
    109 N         -6.4624  -23.5526  -54.2221 N.am      20 UNK        -0.5000 
    110 CA        -5.5036  -23.3920  -55.3087 C.3       20 UNK         0.1400 
    111 CB        -4.7352  -24.7131  -55.4952 C.3       20 UNK        -0.1800 
    112 C         -4.5877  -22.2092  -54.9594 C.2       20 UNK         0.5000 
    113 O         -3.3908  -22.3940  -54.7351 O.2       20 UNK        -0.5000 
    114 N         -5.1823  -21.0121  -54.8631 N.am      21 UNK        -0.5000 
    115 CA        -4.5748  -19.7586  -54.3966 C.3       21 UNK         0.1400 
    116 CB        -5.7032  -18.7746  -54.0359 C.3       21 UNK        -0.1800 
    117 C         -3.5207  -19.1352  -55.3438 C.2       21 UNK         0.5000 
    118 O         -3.5796  -17.9329  -55.6064 O.2       21 UNK        -0.5000 
    119 N         -2.5702  -19.9622  -55.8008 N.am      22 UNK        -0.5000 
    120 CA        -1.3739  -19.6512  -56.6042 C.3       22 UNK         0.1400 
    121 C         -1.5823  -18.6191  -57.7559 C.2       22 UNK         0.5000 
    122 N         -0.7847  -17.5628  -57.8513 N.am      22 UNK        -0.7600 
    123 O         -2.4422  -18.8120  -58.6126 O.2       22 UNK        -0.5000 
    124 C124       -0.0932  -19.4622  -55.7351 C.3       23 UNK        -0.0398 
    125 S125       -0.2037  -18.1716  -54.4444 S.3       23 UNK        -0.2404 
    126 C126       -0.3032  -19.2042  -52.9483 C.3       23 UNK        -0.0205 
    127 H127        4.3548  -15.6904  -45.8049 H         1 UNK         0.0600 
    128 H128        5.1357  -17.2293  -46.1493 H         1 UNK         0.0600 
    129 H129        3.5139  -16.9233  -46.7628 H         1 UNK         0.0600 
    130 H130        4.9428  -14.4305  -49.2439 H         1 UNK         0.3000 
    131 H131        2.7813  -14.6420  -47.2299 H         1 UNK         0.0600 
    132 H132        1.4858  -13.2023  -48.6762 H         1 UNK         0.0800 
    133 H133        2.8615  -12.8459  -49.6818 H         1 UNK         0.0800 
    134 H134        0.5294  -15.5250  -48.3581 H         1 UNK         0.0800 
    135 H135        1.6947  -16.7994  -48.6558 H         1 UNK         0.0800 
    136 H136        1.3288  -17.7334  -51.3308 H         1 UNK         0.1150 
    137 H137       -2.7789  -18.8452  -51.8608 H         1 UNK         0.1150 
    138 H138       -1.6643  -16.2593  -48.6375 H         1 UNK         0.1150 
    139 H139       -3.9775  -16.6692  -49.0394 H         1 UNK         0.0800 
    140 H140       -4.4505  -17.2281  -50.6226 H         1 UNK         0.0800 
    141 H141       -3.9449  -19.3264  -46.6844 H         1 UNK         0.0800 
    142 H142       -2.7698  -18.3305  -47.4750 H         1 UNK         0.0800 
    143 H143       -2.1779  -20.5603  -48.8360 H         1 UNK         0.0600 
    144 H144       -0.9975  -19.4475  -46.5401 H         1 UNK         0.3000 
    145 H145        1.8584  -21.6484  -46.5436 H         1 UNK         0.0600 
    146 H146        2.9689  -19.4512  -46.6644 H         1 UNK         0.0600 
    147 H147        2.2235  -19.8076  -48.2160 H         1 UNK         0.0600 
    148 H148        1.4571  -18.6673  -47.1171 H         1 UNK         0.0600 
    149 H149        1.2143  -19.5208  -44.7999 H         1 UNK         0.3000 
    150 H150       -0.6498  -21.4354  -42.3808 H         1 UNK         0.0600 
    151 H151        1.7923  -21.6713  -41.9159 H         1 UNK         0.0600 
    152 H152        1.0797  -20.3791  -40.9614 H         1 UNK         0.0600 
    153 H153        2.0547  -19.9940  -42.3770 H         1 UNK         0.0600 
    154 H154       -0.0661  -18.6645  -42.4617 H         1 UNK         0.3000 
    155 H155       -3.0212  -17.6207  -44.2282 H         1 UNK         0.0600 
    156 H156       -1.9746  -17.2700  -41.3680 H         1 UNK         0.0600 
    157 H157       -3.5578  -17.9067  -41.7989 H         1 UNK         0.0600 
    158 H158       -3.1500  -16.2408  -42.1818 H         1 UNK         0.0600 
    159 H159       -0.8497  -16.0898  -43.2641 H         1 UNK         0.3000 
    160 H160        1.1941  -16.2735  -46.2224 H         1 UNK         0.0600 
    161 H161       -0.3852  -14.0632  -44.7970 H         1 UNK         0.0600 
    162 H162       -0.5307  -14.4696  -46.4975 H         1 UNK         0.0600 
    163 H163        0.9773  -13.8127  -45.8774 H         1 UNK         0.0600 
    164 H164        1.7085  -14.9967  -43.7687 H         1 UNK         0.3000 
    165 H165        3.2983  -17.7262  -42.0724 H         1 UNK         0.0600 
    166 H166        5.0420  -15.9494  -41.9187 H         1 UNK         0.0600 
    167 H167        5.0256  -16.6859  -43.5117 H         1 UNK         0.0600 
    168 H168        4.3151  -15.0942  -43.2773 H         1 UNK         0.0600 
    169 H169        2.6847  -15.0027  -41.3713 H         1 UNK         0.3000 
    170 H170       -0.4223  -15.6683  -39.7644 H         1 UNK         0.0600 
    171 H171        1.3416  -16.2916  -38.1084 H         1 UNK         0.0600 
    172 H172        2.3514  -14.9607  -38.6610 H         1 UNK         0.0600 
    173 H173        0.8060  -14.6352  -37.8759 H         1 UNK         0.0600 
    174 H174        1.1715  -13.3017  -40.0821 H         1 UNK         0.3000 
    175 H175       -0.3505  -12.2023  -43.1244 H         1 UNK         0.0600 
    176 H176       -0.5356  -11.1845  -40.2402 H         1 UNK         0.0600 
    177 H177       -0.8461  -10.2473  -41.7019 H         1 UNK         0.0600 
    178 H178       -1.9080  -11.5769  -41.2691 H         1 UNK         0.0600 
    179 H179        1.5748  -10.8889  -41.5824 H         1 UNK         0.3000 
    180 H180        3.5828  -10.5224  -42.6937 H         1 UNK         0.0600 
    181 H181        4.7548  -13.1565  -41.6029 H         1 UNK         0.0600 
    182 H182        4.0788  -11.8569  -40.6264 H         1 UNK         0.0600 
    183 H183        5.5526  -11.5869  -41.5431 H         1 UNK         0.0600 
    184 H184        4.2131  -12.8280  -44.3971 H         1 UNK         0.3000 
    185 H185        5.6641  -10.7600  -46.7821 H         1 UNK         0.0600 
    186 H186        7.7993  -11.0832  -45.5157 H         1 UNK         0.0600 
    187 H187        7.3908  -12.7734  -45.2480 H         1 UNK         0.0600 
    188 H188        7.6891  -12.1787  -46.8823 H         1 UNK         0.0600 
    189 H189        5.6547  -13.5357  -46.8773 H         1 UNK         0.3000 
    190 H190       -2.5328  -21.4558  -45.3849 H         1 UNK         0.3000 
    191 H191       -4.5116  -23.4780  -45.7582 H         1 UNK         0.0600 
    192 H192       -2.3943  -23.1522  -43.5713 H         1 UNK         0.0600 
    193 H193       -3.7872  -24.2245  -43.4937 H         1 UNK         0.0600 
    194 H194       -4.0236  -22.4841  -43.5527 H         1 UNK         0.0600 
    195 H195       -0.9208  -23.6423  -45.6654 H         1 UNK         0.3000 
    196 H196       -0.8146  -26.4888  -45.9496 H         1 UNK         0.0600 
    197 H197        1.6445  -26.0796  -46.1413 H         1 UNK         0.0600 
    198 H198        0.9381  -25.2266  -44.7773 H         1 UNK         0.0600 
    199 H199        1.3521  -24.3467  -46.2453 H         1 UNK         0.0600 
    200 H200        0.0769  -23.8550  -48.2889 H         1 UNK         0.3000 
    201 H201        0.7140  -25.8847  -50.3108 H         1 UNK         0.0600 
    202 H202        2.2467  -23.9668  -49.8700 H         1 UNK         0.0600 
    203 H203        0.9947  -22.8364  -50.3820 H         1 UNK         0.0600 
    204 H204        1.6746  -23.9781  -51.5313 H         1 UNK         0.0600 
    205 H205       -1.6242  -23.1941  -49.8888 H         1 UNK         0.3000 
    206 H206       -2.8327  -23.7258  -52.5293 H         1 UNK         0.0600 
    207 H207       -2.4346  -21.3896  -51.8849 H         1 UNK         0.0600 
    208 H208       -4.1596  -21.6917  -52.0244 H         1 UNK         0.0600 
    209 H209       -3.4298  -21.5683  -50.4465 H         1 UNK         0.0600 
    210 H210       -3.2008  -25.1064  -49.5517 H         1 UNK         0.3000 
    211 H211       -4.6965  -26.3761  -48.5114 H         1 UNK         0.0600 
    212 H212       -5.9708  -26.6906  -51.2770 H         1 UNK         0.0600 
    213 H213       -6.2409  -27.7428  -49.8943 H         1 UNK         0.0600 
    214 H214       -4.6486  -27.6537  -50.6282 H         1 UNK         0.0600 
    215 H215       -5.0795  -23.7498  -48.1120 H         1 UNK         0.3000 
    216 H216       -6.3824  -22.2814  -47.1189 H         1 UNK         0.0600 
    217 H217       -8.5587  -22.8533  -46.1436 H         1 UNK         0.0600 
    218 H218       -7.4245  -24.1618  -45.8488 H         1 UNK         0.0600 
    219 H219       -8.6625  -24.3258  -47.0939 H         1 UNK         0.0600 
    220 H220       -5.8764  -21.8726  -49.5865 H         1 UNK         0.3000 
    221 H221       -6.2744  -20.5811  -51.3116 H         1 UNK         0.0600 
    222 H222       -8.9091  -19.7103  -50.0222 H         1 UNK         0.0600 
    223 H223       -7.3336  -19.0620  -49.5803 H         1 UNK         0.0600 
    224 H224       -7.9576  -18.8221  -51.2017 H         1 UNK         0.0600 
    225 H225       -7.3850  -23.3831  -51.3230 H         1 UNK         0.3000 
    226 H226       -9.5999  -23.3508  -53.2292 H         1 UNK         0.0600 
    227 H227       -9.2903  -25.2373  -51.6282 H         1 UNK         0.0600 
    228 H228       -9.1882  -25.8014  -53.2909 H         1 UNK         0.0600 
    229 H229       -7.7211  -25.6012  -52.3410 H         1 UNK         0.0600 
    230 H230       -6.0672  -23.5849  -53.2844 H         1 UNK         0.3000 
    231 H231       -6.0097  -23.1477  -56.2448 H         1 UNK         0.0600 
    232 H232       -5.4105  -25.5238  -55.7689 H         1 UNK         0.0600 
    233 H233       -4.2133  -25.0076  -54.5835 H         1 UNK         0.0600 
    234 H234       -3.9922  -24.6254  -56.2888 H         1 UNK         0.0600 
    235 H235       -6.1670  -20.9616  -55.0820 H         1 UNK         0.3000 
    236 H236       -4.0392  -19.9771  -53.4740 H         1 UNK         0.0600 
    237 H237       -6.2728  -18.4787  -54.9175 H         1 UNK         0.0600 
    238 H238       -6.3995  -19.2101  -53.3209 H         1 UNK         0.0600 
    239 H239       -5.3041  -17.8675  -53.5799 H         1 UNK         0.0600 
    240 H240       -2.6581  -20.9345  -55.5142 H         1 UNK         0.3000 
    241 H241       -1.1972  -20.5763  -57.1545 H         1 UNK         0.0600 
    242 H242       -0.9157  -16.9134  -58.6111 H         1 UNK         0.3800 
    243 H243       -0.0957  -17.3673  -57.1415 H         1 UNK         0.3800 
    244 H244        0.7723  -19.2514  -56.3648 H         1 UNK         0.0800 
    245 H245        0.1451  -20.4121  -55.2547 H         1 UNK         0.0800 
    246 H246        0.6550  -19.6987  -52.7820 H         1 UNK         0.0800 
    247 H247       -1.0360  -19.9955  -53.1082 H         1 UNK         0.0800 
@<TRIPOS>BOND
     1    1    2 1    
     2    1  127 1    
     3    1  128 1    
     4    1  129 1    
     5    2    3 2    
     6    2    4 am   BACKBONE|DICT|INTERRES
     7    4    5 1    
     8    4  130 1    
     9    5    6 1    
    10    5   65 1    
    11    5  131 1    
    12    6    7 1    
    13    6  132 1    
    14    6  133 1    
    15    7    8 1    
    16    8    9 1    
    17    8  134 1    
    18    8  135 1    
    19    9   10 ar   
    20    9   14 ar   
    21   10   11 ar   
    22   10  136 1    
    23   11   12 ar   
    24   11  126 1    
    25   12   13 ar   
    26   12  137 1    
    27   13   14 ar   
    28   13   15 1    
    29   14  138 1    
    30   15   16 1    
    31   15  139 1    
    32   15  140 1    
    33   16   17 1    
    34   17   18 1    
    35   17  141 1    
    36   17  142 1    
    37   18   19 1    
    38   18   67 1    
    39   18  143 1    
    40   19   20 am   BACKBONE|DICT|INTERRES
    41   19  144 1    
    42   20   21 2    
    43   20   22 1    
    44   22   23 1    
    45   22   24 1    
    46   22  145 1    
    47   23  146 1    
    48   23  147 1    
    49   23  148 1    
    50   24   25 am   BACKBONE|DICT|INTERRES
    51   24  149 1    
    52   25   26 2    
    53   25   27 1    
    54   27   28 1    
    55   27   29 1    
    56   27  150 1    
    57   28  151 1    
    58   28  152 1    
    59   28  153 1    
    60   29   30 am   BACKBONE|DICT|INTERRES
    61   29  154 1    
    62   30   31 2    
    63   30   32 1    
    64   32   33 1    
    65   32   34 1    
    66   32  155 1    
    67   33  156 1    
    68   33  157 1    
    69   33  158 1    
    70   34   35 am   BACKBONE|DICT|INTERRES
    71   34  159 1    
    72   35   36 2    
    73   35   37 1    
    74   37   38 1    
    75   37   39 1    
    76   37  160 1    
    77   38  161 1    
    78   38  162 1    
    79   38  163 1    
    80   39   40 am   BACKBONE|DICT|INTERRES
    81   39  164 1    
    82   40   41 2    
    83   40   42 1    
    84   42   43 1    
    85   42   44 1    
    86   42  165 1    
    87   43  166 1    
    88   43  167 1    
    89   43  168 1    
    90   44   45 am   BACKBONE|DICT|INTERRES
    91   44  169 1    
    92   45   46 2    
    93   45   47 1    
    94   47   48 1    
    95   47   49 1    
    96   47  170 1    
    97   48  171 1    
    98   48  172 1    
    99   48  173 1    
   100   49   50 am   BACKBONE|DICT|INTERRES
   101   49  174 1    
   102   50   51 2    
   103   50   52 1    
   104   52   53 1    
   105   52   54 1    
   106   52  175 1    
   107   53  176 1    
   108   53  177 1    
   109   53  178 1    
   110   54   55 am   BACKBONE|DICT|INTERRES
   111   54  179 1    
   112   55   56 2    
   113   55   57 1    
   114   57   58 1    
   115   57   59 1    
   116   57  180 1    
   117   58  181 1    
   118   58  182 1    
   119   58  183 1    
   120   59   60 am   BACKBONE|DICT|INTERRES
   121   59  184 1    
   122   60   61 2    
   123   60   62 1    
   124   62   63 1    
   125   62   64 1    
   126   62  185 1    
   127   63  186 1    
   128   63  187 1    
   129   63  188 1    
   130   64   65 am   BACKBONE|DICT|INTERRES
   131   64  189 1    
   132   65   66 2    
   133   67   68 2    
   134   67   69 am   BACKBONE|DICT|INTERRES
   135   69   70 1    
   136   69  190 1    
   137   70   71 1    
   138   70   72 1    
   139   70  191 1    
   140   71  192 1    
   141   71  193 1    
   142   71  194 1    
   143   72   73 2    
   144   72   74 am   BACKBONE|DICT|INTERRES
   145   74   75 1    
   146   74  195 1    
   147   75   76 1    
   148   75   77 1    
   149   75  196 1    
   150   76  197 1    
   151   76  198 1    
   152   76  199 1    
   153   77   78 2    
   154   77   79 am   BACKBONE|DICT|INTERRES
   155   79   80 1    
   156   79  200 1    
   157   80   81 1    
   158   80   82 1    
   159   80  201 1    
   160   81  202 1    
   161   81  203 1    
   162   81  204 1    
   163   82   83 2    
   164   82   84 am   BACKBONE|DICT|INTERRES
   165   84   85 1    
   166   84  205 1    
   167   85   86 1    
   168   85   87 1    
   169   85  206 1    
   170   86  207 1    
   171   86  208 1    
   172   86  209 1    
   173   87   88 2    
   174   87   89 am   BACKBONE|DICT|INTERRES
   175   89   90 1    
   176   89  210 1    
   177   90   91 1    
   178   90   92 1    
   179   90  211 1    
   180   91  212 1    
   181   91  213 1    
   182   91  214 1    
   183   92   93 2    
   184   92   94 am   BACKBONE|DICT|INTERRES
   185   94   95 1    
   186   94  215 1    
   187   95   96 1    
   188   95   97 1    
   189   95  216 1    
   190   96  217 1    
   191   96  218 1    
   192   96  219 1    
   193   97   98 2    
   194   97   99 am   BACKBONE|DICT|INTERRES
   195   99  100 1    
   196   99  220 1    
   197  100  101 1    
   198  100  102 1    
   199  100  221 1    
   200  101  222 1    
   201  101  223 1    
   202  101  224 1    
   203  102  103 2    
   204  102  104 am   BACKBONE|DICT|INTERRES
   205  104  105 1    
   206  104  225 1    
   207  105  106 1    
   208  105  107 1    
   209  105  226 1    
   210  106  227 1    
   211  106  228 1    
   212  106  229 1    
   213  107  108 2    
   214  107  109 am   BACKBONE|DICT|INTERRES
   215  109  110 1    
   216  109  230 1    
   217  110  111 1    
   218  110  112 1    
   219  110  231 1    
   220  111  232 1    
   221  111  233 1    
   222  111  234 1    
   223  112  113 2    
   224  112  114 am   BACKBONE|DICT|INTERRES
   225  114  115 1    
   226  114  235 1    
   227  115  116 1    
   228  115  117 1    
   229  115  236 1    
   230  116  237 1    
   231  116  238 1    
   232  116  239 1    
   233  117  118 2    
   234  117  119 am   BACKBONE|DICT|INTERRES
   235  119  120 1    
   236  119  240 1    
   237  120  121 1    
   238  120  124 1    
   239  120  241 1    
   240  121  122 am   BACKBONE|DICT|INTERRES
   241  121  123 2    
   242  122  242 1    
   243  122  243 1    
   244  124  125 1    
   245  124  244 1    
   246  124  245 1    
   247  125  126 1    
   248  126  246 1    
   249  126  247 1    
@<TRIPOS>SUBSTRUCTURE
     1 UNK         1 GROUP             0       ****    0 ROOT    
