@<TRIPOS>MOLECULE
3R540
247   249    1
SMALL
USER_CHARGES


@<TRIPOS>ATOM
      1 CA          3.3946   -9.2499  -46.7804 C.3       0 UNK        -0.1800 
      2 C           2.6706  -10.5574  -46.4975 C.2       0 UNK         0.5000 
      3 O           2.7967  -11.1001  -45.4013 O.2       0 UNK        -0.5000 
      4 N           1.8954  -11.0555  -47.4698 N.am      1 UNK        -0.5000 
      5 CA          1.1357  -12.3138  -47.4003 C.3       1 UNK         0.1400 
      6 C6          0.4974  -12.6503  -48.7743 C.3       23 UNK        -0.0398 
      7 S7          0.3868  -14.4411  -49.1100 S.3       23 UNK        -0.2404 
      8 C8          1.7728  -14.6636  -50.2687 C.3       23 UNK        -0.0205 
      9 C9          1.7067  -16.0078  -50.9764 C.ar      23 UNK        -0.0193 
     10 C10         0.8107  -16.1887  -52.0353 C.ar      23 UNK        -0.1150 
     11 C11         0.7628  -17.4033  -52.7231 C.ar      23 UNK        -0.0193 
     12 C12         1.6246  -18.4358  -52.3514 C.ar      23 UNK        -0.1150 
     13 C13         2.5204  -18.2738  -51.2916 C.ar      23 UNK        -0.0193 
     14 C14         2.5554  -17.0564  -50.6031 C.ar      23 UNK        -0.1150 
     15 C15         3.4572  -19.4145  -50.9134 C.3       23 UNK        -0.0205 
     16 S16         2.9365  -20.2828  -49.3985 S.3       23 UNK        -0.2404 
     17 C17         1.2086  -20.7284  -49.7775 C.3       23 UNK        -0.0398 
     18 CA          0.7951  -22.1459  -49.3095 C.3       11 UNK         0.1400 
     19 N           0.9351  -22.3119  -47.8567 N.am      11 UNK        -0.5000 
     20 C           0.9365  -23.4815  -47.2025 C.2       10 UNK         0.5000 
     21 O           0.9243  -24.5768  -47.7643 O.2       10 UNK        -0.5000 
     22 CA          0.8759  -23.4164  -45.6621 C.3       10 UNK         0.1400 
     23 CB          2.2838  -23.3542  -45.0503 C.3       10 UNK        -0.1800 
     24 N           0.0678  -22.2933  -45.1734 N.am      10 UNK        -0.5000 
     25 C          -1.2596  -22.1933  -45.3395 C.2       9 UNK         0.5000 
     26 O          -1.9399  -23.0613  -45.8834 O.2       9 UNK        -0.5000 
     27 CA         -1.9383  -20.8911  -44.8781 C.3       9 UNK         0.1400 
     28 CB         -2.2466  -20.9342  -43.3750 C.3       9 UNK        -0.1800 
     29 N          -1.1436  -19.7021  -45.1866 N.am      9 UNK        -0.5000 
     30 C          -0.8918  -19.2570  -46.4249 C.2       8 UNK         0.5000 
     31 O          -1.3956  -19.7476  -47.4345 O.2       8 UNK        -0.5000 
     32 CA          0.1142  -18.0993  -46.5712 C.3       8 UNK         0.1400 
     33 CB         -0.5888  -16.7456  -46.4319 C.3       8 UNK        -0.1800 
     34 N           1.2201  -18.1718  -45.6159 N.am      8 UNK        -0.5000 
     35 C           2.0921  -19.1864  -45.5425 C.2       7 UNK         0.5000 
     36 O           2.0565  -20.1685  -46.2782 O.2       7 UNK        -0.5000 
     37 CA          3.1293  -19.1319  -44.4119 C.3       7 UNK         0.1400 
     38 CB          4.2826  -18.1795  -44.7614 C.3       7 UNK        -0.1800 
     39 N           2.5071  -18.7335  -43.1507 N.am      7 UNK        -0.5000 
     40 C           1.6869  -19.5215  -42.4405 C.2       6 UNK         0.5000 
     41 O           1.4257  -20.6860  -42.7445 O.2       6 UNK        -0.5000 
     42 CA          1.0170  -18.8886  -41.2067 C.3       6 UNK         0.1400 
     43 CB          1.9431  -18.9712  -39.9843 C.3       6 UNK        -0.1800 
     44 N           0.6291  -17.4942  -41.4287 N.am      6 UNK        -0.5000 
     45 C          -0.3285  -17.1039  -42.2817 C.2       5 UNK         0.5000 
     46 O          -1.0102  -17.8845  -42.9437 O.2       5 UNK        -0.5000 
     47 CA         -0.5322  -15.5882  -42.4561 C.3       5 UNK         0.1400 
     48 CB         -1.5382  -15.0554  -41.4259 C.3       5 UNK        -0.1800 
     49 N           0.7043  -14.8096  -42.3698 N.am      5 UNK        -0.5000 
     50 C           1.7638  -14.9376  -43.1797 C.2       4 UNK         0.5000 
     51 O           1.8554  -15.8167  -44.0381 O.2       4 UNK        -0.5000 
     52 CA          2.9014  -13.9115  -42.9910 C.3       4 UNK         0.1400 
     53 CB          3.9837  -14.0234  -44.0794 C.3       4 UNK        -0.1800 
     54 N           2.3921  -12.5405  -42.9817 N.am      4 UNK        -0.5000 
     55 C           1.8321  -11.9157  -41.9384 C.2       3 UNK         0.5000 
     56 O           1.7022  -12.4290  -40.8265 O.2       3 UNK        -0.5000 
     57 CA          1.2651  -10.5130  -42.2065 C.3       3 UNK         0.1400 
     58 CB          2.3876   -9.4681  -42.3088 C.3       3 UNK        -0.1800 
     59 N           0.4663  -10.5040  -43.4318 N.am      3 UNK        -0.5000 
     60 C          -0.8023  -10.9315  -43.5083 C.2       2 UNK         0.5000 
     61 O          -1.4540  -11.3116  -42.5353 O.2       2 UNK        -0.5000 
     62 CA         -1.4605  -10.9325  -44.9018 C.3       2 UNK         0.1400 
     63 CB         -2.2089   -9.6126  -45.1430 C.3       2 UNK        -0.1800 
     64 N          -0.5025  -11.1426  -45.9880 N.am      2 UNK        -0.5000 
     65 C           0.0802  -12.3176  -46.2687 C.2       1 UNK         0.5000 
     66 O          -0.1641  -13.3574  -45.6590 O.2       1 UNK        -0.5000 
     67 C          -0.6414  -22.4304  -49.8114 C.2       11 UNK         0.5000 
     68 O          -0.8480  -22.4613  -51.0266 O.2       11 UNK        -0.5000 
     69 N          -1.6101  -22.5623  -48.8886 N.am      12 UNK        -0.5000 
     70 CA         -3.0566  -22.6768  -49.1128 C.3       12 UNK         0.1400 
     71 CB         -3.3838  -23.9853  -49.8565 C.3       12 UNK        -0.1800 
     72 C          -3.6708  -21.4269  -49.7858 C.2       12 UNK         0.5000 
     73 O          -4.7419  -21.5076  -50.3869 O.2       12 UNK        -0.5000 
     74 N          -2.9711  -20.2908  -49.6818 N.am      13 UNK        -0.5000 
     75 CA         -3.3144  -19.0149  -50.2984 C.3       13 UNK         0.1400 
     76 CB         -2.0144  -18.2562  -50.6076 C.3       13 UNK        -0.1800 
     77 C          -4.2338  -18.1739  -49.4002 C.2       13 UNK         0.5000 
     78 O          -5.0585  -17.4246  -49.9240 O.2       13 UNK        -0.5000 
     79 N          -4.0838  -18.3107  -48.0737 N.am      14 UNK        -0.5000 
     80 CA         -4.9370  -17.6556  -47.0813 C.3       14 UNK         0.1400 
     81 CB         -4.2684  -17.6942  -45.6961 C.3       14 UNK        -0.1800 
     82 C          -6.3364  -18.2924  -47.0512 C.2       14 UNK         0.5000 
     83 O          -7.3190  -17.6299  -47.3862 O.2       14 UNK        -0.5000 
     84 N          -6.3847  -19.5748  -46.6761 N.am      15 UNK        -0.5000 
     85 CA         -7.5707  -20.4196  -46.5940 C.3       15 UNK         0.1400 
     86 CB         -8.5465  -19.9013  -45.5161 C.3       15 UNK        -0.1800 
     87 C          -7.1196  -21.8447  -46.2461 C.2       15 UNK         0.5000 
     88 O          -6.0465  -22.0150  -45.6591 O.2       15 UNK        -0.5000 
     89 N          -7.9763  -22.8217  -46.5739 N.am      16 UNK        -0.5000 
     90 CA         -7.8608  -24.2499  -46.2569 C.3       16 UNK         0.1400 
     91 CB         -8.0354  -24.4634  -44.7355 C.3       16 UNK        -0.1800 
     92 C          -6.5868  -24.9176  -46.8255 C.2       16 UNK         0.5000 
     93 O          -6.0174  -24.4282  -47.8018 O.2       16 UNK        -0.5000 
     94 N          -6.1920  -26.0463  -46.2202 N.am      17 UNK        -0.5000 
     95 CA         -5.0335  -26.8995  -46.5089 C.3       17 UNK         0.1400 
     96 CB         -3.7056  -26.1278  -46.3728 C.3       17 UNK        -0.1800 
     97 C          -5.1159  -27.6711  -47.8408 C.2       17 UNK         0.5000 
     98 O          -4.9948  -28.8970  -47.8266 O.2       17 UNK        -0.5000 
     99 N          -5.3207  -26.9642  -48.9563 N.am      18 UNK        -0.5000 
    100 CA        -5.3575  -27.4944  -50.3197 C.3       18 UNK         0.1400 
    101 CB        -3.9486  -27.9746  -50.7451 C.3       18 UNK        -0.1800 
    102 C         -5.9149  -26.4148  -51.2676 C.2       18 UNK         0.5000 
    103 O         -6.5748  -25.4782  -50.8126 O.2       18 UNK        -0.5000 
    104 N         -5.6216  -26.5441  -52.5670 N.am      19 UNK        -0.5000 
    105 CA        -5.7094  -25.4530  -53.5369 C.3       19 UNK         0.1400 
    106 CB        -5.8778  -26.0433  -54.9453 C.3       19 UNK        -0.1800 
    107 C         -4.4245  -24.6084  -53.4502 C.2       19 UNK         0.5000 
    108 O         -3.3541  -25.1678  -53.1970 O.2       19 UNK        -0.5000 
    109 N         -4.5511  -23.2909  -53.6541 N.am      20 UNK        -0.5000 
    110 CA        -3.4662  -22.3146  -53.5244 C.3       20 UNK         0.1400 
    111 CB        -4.0225  -20.9029  -53.7683 C.3       20 UNK        -0.1800 
    112 C         -2.2846  -22.5867  -54.4709 C.2       20 UNK         0.5000 
    113 O         -2.5001  -22.8413  -55.6586 O.2       20 UNK        -0.5000 
    114 N         -1.0602  -22.4720  -53.9393 N.am      21 UNK        -0.5000 
    115 CA         0.2019  -22.6945  -54.6544 C.3       21 UNK         0.1400 
    116 CB         1.3640  -22.5955  -53.6538 C.3       21 UNK        -0.1800 
    117 C          0.4358  -21.7602  -55.8620 C.2       21 UNK         0.5000 
    118 O          1.2007  -22.1166  -56.7592 O.2       21 UNK        -0.5000 
    119 N         -0.2406  -20.6044  -55.8782 N.am      22 UNK        -0.5000 
    120 CA        -0.2971  -19.6775  -57.0213 C.3       22 UNK         0.1400 
    121 C         -1.2423  -20.1403  -58.1717 C.2       22 UNK         0.5000 
    122 N         -2.0441  -21.1877  -58.0140 N.am      22 UNK        -0.7600 
    123 O         -1.2414  -19.5377  -59.2418 O.2       22 UNK        -0.5000 
    124 C124       -0.6393  -18.2308  -56.5774 C.3       23 UNK        -0.0398 
    125 S125        0.6272  -17.5239  -55.4713 S.3       23 UNK        -0.2404 
    126 C126       -0.2169  -17.6169  -53.8642 C.3       23 UNK        -0.0205 
    127 H127        4.4719   -9.3949  -46.7006 H         1 UNK         0.0600 
    128 H128        3.0972   -8.4929  -46.0547 H         1 UNK         0.0600 
    129 H129        3.1742   -8.8711  -47.7786 H         1 UNK         0.0600 
    130 H130        1.8295  -10.5512  -48.3425 H         1 UNK         0.3000 
    131 H131        1.8641  -13.0906  -47.1566 H         1 UNK         0.0600 
    132 H132       -0.4996  -12.2156  -48.8689 H         1 UNK         0.0800 
    133 H133        1.0756  -12.1957  -49.5795 H         1 UNK         0.0800 
    134 H134        1.7576  -13.8740  -51.0214 H         1 UNK         0.0800 
    135 H135        2.7143  -14.5572  -49.7276 H         1 UNK         0.0800 
    136 H136        0.1526  -15.3809  -52.3232 H         1 UNK         0.1150 
    137 H137        1.5969  -19.3668  -52.8973 H         1 UNK         0.1150 
    138 H138        3.2497  -16.9249  -49.7851 H         1 UNK         0.1150 
    139 H139        3.5308  -20.1370  -51.7279 H         1 UNK         0.0800 
    140 H140        4.4639  -19.0213  -50.7657 H         1 UNK         0.0800 
    141 H141        0.5621  -19.9691  -49.3356 H         1 UNK         0.0800 
    142 H142        1.0696  -20.6522  -50.8557 H         1 UNK         0.0800 
    143 H143        1.4508  -22.8697  -49.7976 H         1 UNK         0.0600 
    144 H144        1.0625  -21.4607  -47.3153 H         1 UNK         0.3000 
    145 H145        0.4034  -24.3377  -45.3145 H         1 UNK         0.0600 
    146 H146        2.2402  -23.3333  -43.9612 H         1 UNK         0.0600 
    147 H147        2.8339  -22.4735  -45.3796 H         1 UNK         0.0600 
    148 H148        2.8692  -24.2287  -45.3365 H         1 UNK         0.0600 
    149 H149        0.5648  -21.5390  -44.7162 H         1 UNK         0.3000 
    150 H150       -2.8868  -20.8132  -45.4133 H         1 UNK         0.0600 
    151 H151       -2.8478  -21.8091  -43.1246 H         1 UNK         0.0600 
    152 H152       -2.8095  -20.0537  -43.0646 H         1 UNK         0.0600 
    153 H153       -1.3358  -20.9769  -42.7773 H         1 UNK         0.0600 
    154 H154       -0.7732  -19.1838  -44.3958 H         1 UNK         0.3000 
    155 H155        0.5430  -18.1568  -47.5738 H         1 UNK         0.0600 
    156 H156       -1.3600  -16.6222  -47.1933 H         1 UNK         0.0600 
    157 H157        0.1193  -15.9256  -46.5464 H         1 UNK         0.0600 
    158 H158       -1.0604  -16.6368  -45.4566 H         1 UNK         0.0600 
    159 H159        1.3382  -17.3807  -44.9876 H         1 UNK         0.3000 
    160 H160        3.5473  -20.1333  -44.2877 H         1 UNK         0.0600 
    161 H161        3.9296  -17.1682  -44.9602 H         1 UNK         0.0600 
    162 H162        4.8056  -18.5208  -45.6555 H         1 UNK         0.0600 
    163 H163        5.0141  -18.1296  -43.9549 H         1 UNK         0.0600 
    164 H164        2.6114  -17.7666  -42.8791 H         1 UNK         0.3000 
    165 H165        0.1131  -19.4619  -40.9895 H         1 UNK         0.0600 
    166 H166        1.4481  -18.5954  -39.0886 H         1 UNK         0.0600 
    167 H167        2.2338  -20.0035  -39.7847 H         1 UNK         0.0600 
    168 H168        2.8575  -18.3948  -40.1302 H         1 UNK         0.0600 
    169 H169        1.1426  -16.7867  -40.9243 H         1 UNK         0.3000 
    170 H170       -0.9488  -15.4226  -43.4511 H         1 UNK         0.0600 
    171 H171       -2.4811  -15.6010  -41.4822 H         1 UNK         0.0600 
    172 H172       -1.1612  -15.1523  -40.4071 H         1 UNK         0.0600 
    173 H173       -1.7619  -14.0030  -41.6025 H         1 UNK         0.0600 
    174 H174        0.7284  -14.0632  -41.6848 H         1 UNK         0.3000 
    175 H175        3.3726  -14.1217  -42.0289 H         1 UNK         0.0600 
    176 H176        3.5655  -13.8810  -45.0770 H         1 UNK         0.0600 
    177 H177        4.7658  -13.2776  -43.9364 H         1 UNK         0.0600 
    178 H178        4.4632  -15.0021  -44.0567 H         1 UNK         0.0600 
    179 H179        2.4515  -12.0424  -43.8677 H         1 UNK         0.3000 
    180 H180        0.6285  -10.2379  -41.3627 H         1 UNK         0.0600 
    181 H181        1.9808   -8.4682  -42.4599 H         1 UNK         0.0600 
    182 H182        3.0702   -9.6789  -43.1323 H         1 UNK         0.0600 
    183 H183        2.9789   -9.4432  -41.3927 H         1 UNK         0.0600 
    184 H184        0.9514  -10.2675  -44.2857 H         1 UNK         0.3000 
    185 H185       -2.1896  -11.7455  -44.9223 H         1 UNK         0.0600 
    186 H186       -2.7385   -9.6277  -46.0957 H         1 UNK         0.0600 
    187 H187       -2.9509   -9.4366  -44.3629 H         1 UNK         0.0600 
    188 H188       -1.5298   -8.7590  -45.1485 H         1 UNK         0.0600 
    189 H189       -0.2435  -10.3327  -46.5323 H         1 UNK         0.3000 
    190 H190       -1.3391  -22.5238  -47.9141 H         1 UNK         0.3000 
    191 H191       -3.5189  -22.7376  -48.1265 H         1 UNK         0.0600 
    192 H192       -4.4588  -24.1009  -49.9830 H         1 UNK         0.0600 
    193 H193       -3.0246  -24.8540  -49.3066 H         1 UNK         0.0600 
    194 H194       -2.9346  -24.0171  -50.8464 H         1 UNK         0.0600 
    195 H195       -2.1572  -20.2875  -49.0738 H         1 UNK         0.3000 
    196 H196       -3.8357  -19.1979  -51.2398 H         1 UNK         0.0600 
    197 H197       -2.2203  -17.3213  -51.1300 H         1 UNK         0.0600 
    198 H198       -1.3589  -18.8494  -51.2448 H         1 UNK         0.0600 
    199 H199       -1.4607  -18.0096  -49.7006 H         1 UNK         0.0600 
    200 H200       -3.3655  -18.9381  -47.7357 H         1 UNK         0.3000 
    201 H201       -5.0540  -16.6067  -47.3627 H         1 UNK         0.0600 
    202 H202       -4.0310  -18.7091  -45.3794 H         1 UNK         0.0600 
    203 H203       -4.9200  -17.2596  -44.9370 H         1 UNK         0.0600 
    204 H204       -3.3457  -17.1178  -45.6904 H         1 UNK         0.0600 
    205 H205       -5.5339  -20.0569  -46.4156 H         1 UNK         0.3000 
    206 H206       -8.0618  -20.4299  -47.5690 H         1 UNK         0.0600 
    207 H207       -8.9547  -18.9245  -45.7732 H         1 UNK         0.0600 
    208 H208       -9.3953  -20.5758  -45.3967 H         1 UNK         0.0600 
    209 H209       -8.0584  -19.8151  -44.5445 H         1 UNK         0.0600 
    210 H210       -8.8093  -22.5674  -47.0856 H         1 UNK         0.3000 
    211 H211       -8.7003  -24.7347  -46.7570 H         1 UNK         0.0600 
    212 H212       -7.1667  -24.1129  -44.1765 H         1 UNK         0.0600 
    213 H213       -8.1873  -25.5148  -44.4905 H         1 UNK         0.0600 
    214 H214       -8.9073  -23.9260  -44.3619 H         1 UNK         0.0600 
    215 H215       -6.7613  -26.3701  -45.4510 H         1 UNK         0.3000 
    216 H216       -5.0356  -27.6559  -45.7223 H         1 UNK         0.0600 
    217 H217       -3.5955  -25.7089  -45.3725 H         1 UNK         0.0600 
    218 H218       -3.6304  -25.3045  -47.0818 H         1 UNK         0.0600 
    219 H219       -2.8520  -26.7841  -46.5460 H         1 UNK         0.0600 
    220 H220       -5.5013  -25.9648  -48.8725 H         1 UNK         0.3000 
    221 H221       -6.0489  -28.3387  -50.3445 H         1 UNK         0.0600 
    222 H222       -3.9675  -28.4654  -51.7183 H         1 UNK         0.0600 
    223 H223       -3.2467  -27.1415  -50.8071 H         1 UNK         0.0600 
    224 H224       -3.5364  -28.7009  -50.0455 H         1 UNK         0.0600 
    225 H225       -5.0413  -27.3222  -52.8447 H         1 UNK         0.3000 
    226 H226       -6.5744  -24.8246  -53.3135 H         1 UNK         0.0600 
    227 H227       -6.7813  -26.6496  -55.0130 H         1 UNK         0.0600 
    228 H228       -5.9598  -25.2522  -55.6918 H         1 UNK         0.0600 
    229 H229       -5.0303  -26.6708  -55.2242 H         1 UNK         0.0600 
    230 H230       -5.4597  -22.9169  -53.8841 H         1 UNK         0.3000 
    231 H231       -3.1039  -22.3646  -52.4983 H         1 UNK         0.0600 
    232 H232       -3.2486  -20.1477  -53.6244 H         1 UNK         0.0600 
    233 H233       -4.8320  -20.6719  -53.0758 H         1 UNK         0.0600 
    234 H234       -4.4069  -20.7915  -54.7831 H         1 UNK         0.0600 
    235 H235       -0.9807  -22.3180  -52.9364 H         1 UNK         0.3000 
    236 H236        0.1773  -23.7142  -55.0436 H         1 UNK         0.0600 
    237 H237        1.4010  -21.6168  -53.1781 H         1 UNK         0.0600 
    238 H238        1.2705  -23.3443  -52.8670 H         1 UNK         0.0600 
    239 H239        2.3235  -22.7600  -54.1458 H         1 UNK         0.0600 
    240 H240       -0.8532  -20.4030  -55.1044 H         1 UNK         0.3000 
    241 H241        0.6995  -19.6468  -57.4663 H         1 UNK         0.0600 
    242 H242       -2.6391  -21.4662  -58.7778 H         1 UNK         0.3800 
    243 H243       -2.0736  -21.7164  -57.1468 H         1 UNK         0.3800 
    244 H244       -1.6197  -18.1941  -56.0997 H         1 UNK         0.0800 
    245 H245       -0.7032  -17.5705  -57.4441 H         1 UNK         0.0800 
    246 H246       -1.0180  -16.8768  -53.8308 H         1 UNK         0.0800 
    247 H247       -0.6903  -18.5925  -53.7491 H         1 UNK         0.0800 
@<TRIPOS>BOND
     1    1    2 1    
     2    1  127 1    
     3    1  128 1    
     4    1  129 1    
     5    2    3 2    
     6    2    4 am   BACKBONE|DICT|INTERRES
     7    4    5 1    
     8    4  130 1    
     9    5    6 1    
    10    5   65 1    
    11    5  131 1    
    12    6    7 1    
    13    6  132 1    
    14    6  133 1    
    15    7    8 1    
    16    8    9 1    
    17    8  134 1    
    18    8  135 1    
    19    9   10 ar   
    20    9   14 ar   
    21   10   11 ar   
    22   10  136 1    
    23   11   12 ar   
    24   11  126 1    
    25   12   13 ar   
    26   12  137 1    
    27   13   14 ar   
    28   13   15 1    
    29   14  138 1    
    30   15   16 1    
    31   15  139 1    
    32   15  140 1    
    33   16   17 1    
    34   17   18 1    
    35   17  141 1    
    36   17  142 1    
    37   18   19 1    
    38   18   67 1    
    39   18  143 1    
    40   19   20 am   BACKBONE|DICT|INTERRES
    41   19  144 1    
    42   20   21 2    
    43   20   22 1    
    44   22   23 1    
    45   22   24 1    
    46   22  145 1    
    47   23  146 1    
    48   23  147 1    
    49   23  148 1    
    50   24   25 am   BACKBONE|DICT|INTERRES
    51   24  149 1    
    52   25   26 2    
    53   25   27 1    
    54   27   28 1    
    55   27   29 1    
    56   27  150 1    
    57   28  151 1    
    58   28  152 1    
    59   28  153 1    
    60   29   30 am   BACKBONE|DICT|INTERRES
    61   29  154 1    
    62   30   31 2    
    63   30   32 1    
    64   32   33 1    
    65   32   34 1    
    66   32  155 1    
    67   33  156 1    
    68   33  157 1    
    69   33  158 1    
    70   34   35 am   BACKBONE|DICT|INTERRES
    71   34  159 1    
    72   35   36 2    
    73   35   37 1    
    74   37   38 1    
    75   37   39 1    
    76   37  160 1    
    77   38  161 1    
    78   38  162 1    
    79   38  163 1    
    80   39   40 am   BACKBONE|DICT|INTERRES
    81   39  164 1    
    82   40   41 2    
    83   40   42 1    
    84   42   43 1    
    85   42   44 1    
    86   42  165 1    
    87   43  166 1    
    88   43  167 1    
    89   43  168 1    
    90   44   45 am   BACKBONE|DICT|INTERRES
    91   44  169 1    
    92   45   46 2    
    93   45   47 1    
    94   47   48 1    
    95   47   49 1    
    96   47  170 1    
    97   48  171 1    
    98   48  172 1    
    99   48  173 1    
   100   49   50 am   BACKBONE|DICT|INTERRES
   101   49  174 1    
   102   50   51 2    
   103   50   52 1    
   104   52   53 1    
   105   52   54 1    
   106   52  175 1    
   107   53  176 1    
   108   53  177 1    
   109   53  178 1    
   110   54   55 am   BACKBONE|DICT|INTERRES
   111   54  179 1    
   112   55   56 2    
   113   55   57 1    
   114   57   58 1    
   115   57   59 1    
   116   57  180 1    
   117   58  181 1    
   118   58  182 1    
   119   58  183 1    
   120   59   60 am   BACKBONE|DICT|INTERRES
   121   59  184 1    
   122   60   61 2    
   123   60   62 1    
   124   62   63 1    
   125   62   64 1    
   126   62  185 1    
   127   63  186 1    
   128   63  187 1    
   129   63  188 1    
   130   64   65 am   BACKBONE|DICT|INTERRES
   131   64  189 1    
   132   65   66 2    
   133   67   68 2    
   134   67   69 am   BACKBONE|DICT|INTERRES
   135   69   70 1    
   136   69  190 1    
   137   70   71 1    
   138   70   72 1    
   139   70  191 1    
   140   71  192 1    
   141   71  193 1    
   142   71  194 1    
   143   72   73 2    
   144   72   74 am   BACKBONE|DICT|INTERRES
   145   74   75 1    
   146   74  195 1    
   147   75   76 1    
   148   75   77 1    
   149   75  196 1    
   150   76  197 1    
   151   76  198 1    
   152   76  199 1    
   153   77   78 2    
   154   77   79 am   BACKBONE|DICT|INTERRES
   155   79   80 1    
   156   79  200 1    
   157   80   81 1    
   158   80   82 1    
   159   80  201 1    
   160   81  202 1    
   161   81  203 1    
   162   81  204 1    
   163   82   83 2    
   164   82   84 am   BACKBONE|DICT|INTERRES
   165   84   85 1    
   166   84  205 1    
   167   85   86 1    
   168   85   87 1    
   169   85  206 1    
   170   86  207 1    
   171   86  208 1    
   172   86  209 1    
   173   87   88 2    
   174   87   89 am   BACKBONE|DICT|INTERRES
   175   89   90 1    
   176   89  210 1    
   177   90   91 1    
   178   90   92 1    
   179   90  211 1    
   180   91  212 1    
   181   91  213 1    
   182   91  214 1    
   183   92   93 2    
   184   92   94 am   BACKBONE|DICT|INTERRES
   185   94   95 1    
   186   94  215 1    
   187   95   96 1    
   188   95   97 1    
   189   95  216 1    
   190   96  217 1    
   191   96  218 1    
   192   96  219 1    
   193   97   98 2    
   194   97   99 am   BACKBONE|DICT|INTERRES
   195   99  100 1    
   196   99  220 1    
   197  100  101 1    
   198  100  102 1    
   199  100  221 1    
   200  101  222 1    
   201  101  223 1    
   202  101  224 1    
   203  102  103 2    
   204  102  104 am   BACKBONE|DICT|INTERRES
   205  104  105 1    
   206  104  225 1    
   207  105  106 1    
   208  105  107 1    
   209  105  226 1    
   210  106  227 1    
   211  106  228 1    
   212  106  229 1    
   213  107  108 2    
   214  107  109 am   BACKBONE|DICT|INTERRES
   215  109  110 1    
   216  109  230 1    
   217  110  111 1    
   218  110  112 1    
   219  110  231 1    
   220  111  232 1    
   221  111  233 1    
   222  111  234 1    
   223  112  113 2    
   224  112  114 am   BACKBONE|DICT|INTERRES
   225  114  115 1    
   226  114  235 1    
   227  115  116 1    
   228  115  117 1    
   229  115  236 1    
   230  116  237 1    
   231  116  238 1    
   232  116  239 1    
   233  117  118 2    
   234  117  119 am   BACKBONE|DICT|INTERRES
   235  119  120 1    
   236  119  240 1    
   237  120  121 1    
   238  120  124 1    
   239  120  241 1    
   240  121  122 am   BACKBONE|DICT|INTERRES
   241  121  123 2    
   242  122  242 1    
   243  122  243 1    
   244  124  125 1    
   245  124  244 1    
   246  124  245 1    
   247  125  126 1    
   248  126  246 1    
   249  126  247 1    
@<TRIPOS>SUBSTRUCTURE
     1 UNK         1 GROUP             0       ****    0 ROOT    
