@<TRIPOS>MOLECULE
3R540
247   249    1
SMALL
USER_CHARGES


@<TRIPOS>ATOM
      1 CA         -6.7182  -19.4302  -47.8168 C.3       0 UNK        -0.1800 
      2 C          -5.9945  -18.0934  -47.8631 C.2       0 UNK         0.5000 
      3 O          -6.6431  -17.0476  -47.8996 O.2       0 UNK        -0.5000 
      4 N          -4.6566  -18.1228  -47.8689 N.am      1 UNK        -0.5000 
      5 CA         -3.7844  -16.9497  -47.7577 C.3       1 UNK         0.1400 
      6 C6         -2.2965  -17.3216  -47.9866 C.3       23 UNK        -0.0398 
      7 S7         -1.6179  -18.5044  -46.7631 S.3       23 UNK        -0.2404 
      8 C8          0.0244  -17.7946  -46.4293 C.3       23 UNK        -0.0205 
      9 C9          1.0086  -18.1834  -47.5191 C.ar      23 UNK        -0.0193 
     10 C10         1.2021  -17.3706  -48.6357 C.ar      23 UNK        -0.1150 
     11 C11         2.0755  -17.7570  -49.6541 C.ar      23 UNK        -0.0193 
     12 C12         2.7278  -18.9919  -49.5666 C.ar      23 UNK        -0.1150 
     13 C13         2.5425  -19.8240  -48.4553 C.ar      23 UNK        -0.0193 
     14 C14         1.7107  -19.3834  -47.4182 C.ar      23 UNK        -0.1150 
     15 C15         3.2631  -21.1769  -48.4171 C.3       23 UNK        -0.0205 
     16 S16         2.6658  -22.3903  -47.1782 S.3       23 UNK        -0.2404 
     17 C17         0.9166  -22.5761  -47.6648 C.3       23 UNK        -0.0398 
     18 CA          0.1596  -23.7167  -46.9484 C.3       11 UNK         0.1400 
     19 N           0.3121  -23.6838  -45.4898 N.am      11 UNK        -0.5000 
     20 C          -0.0765  -24.6718  -44.6697 C.2       10 UNK         0.5000 
     21 O          -0.5728  -25.7261  -45.0643 O.2       10 UNK        -0.5000 
     22 CA          0.0472  -24.4158  -43.1543 C.3       10 UNK         0.1400 
     23 CB          1.4398  -24.8227  -42.6513 C.3       10 UNK        -0.1800 
     24 N          -0.2091  -23.0233  -42.7821 N.am      10 UNK        -0.5000 
     25 C          -1.3296  -22.3393  -43.0524 C.2       9 UNK         0.5000 
     26 O          -2.3182  -22.8588  -43.5695 O.2       9 UNK        -0.5000 
     27 CA         -1.3522  -20.8273  -42.7350 C.3       9 UNK         0.1400 
     28 CB         -2.4859  -20.4961  -41.7520 C.3       9 UNK        -0.1800 
     29 N          -0.0951  -20.2855  -42.2055 N.am      9 UNK        -0.5000 
     30 C           1.0616  -20.1861  -42.8736 C.2       8 UNK         0.5000 
     31 O           1.2203  -20.5898  -44.0278 O.2       8 UNK        -0.5000 
     32 CA          2.2469  -19.6174  -42.0691 C.3       8 UNK         0.1400 
     33 CB          2.7935  -20.6837  -41.1048 C.3       8 UNK        -0.1800 
     34 N           3.3453  -19.1593  -42.9177 N.am      8 UNK        -0.5000 
     35 C           3.3013  -18.0953  -43.7268 C.2       7 UNK         0.5000 
     36 O           2.3331  -17.3333  -43.8106 O.2       7 UNK        -0.5000 
     37 CA          4.5654  -17.8302  -44.5605 C.3       7 UNK         0.1400 
     38 CB          4.9516  -19.0391  -45.4369 C.3       7 UNK        -0.1800 
     39 N           4.3373  -16.6569  -45.3940 N.am      7 UNK        -0.5000 
     40 C           5.2773  -15.8873  -45.9501 C.2       6 UNK         0.5000 
     41 O           6.4870  -16.0834  -45.8253 O.2       6 UNK        -0.5000 
     42 CA          4.7859  -14.6977  -46.7939 C.3       6 UNK         0.1400 
     43 CB          4.7131  -15.0975  -48.2748 C.3       6 UNK        -0.1800 
     44 N           3.4726  -14.2046  -46.3768 N.am      6 UNK        -0.5000 
     45 C           3.2394  -13.4241  -45.3147 C.2       5 UNK         0.5000 
     46 O           4.1274  -13.0427  -44.5501 O.2       5 UNK        -0.5000 
     47 CA          1.7746  -12.9745  -45.0978 C.3       5 UNK         0.1400 
     48 CB          1.6293  -11.9342  -43.9727 C.3       5 UNK        -0.1800 
     49 N           1.1660  -12.4310  -46.3171 N.am      5 UNK        -0.5000 
     50 C           0.7121  -13.1602  -47.3420 C.2       4 UNK         0.5000 
     51 O           0.7482  -14.3894  -47.3542 O.2       4 UNK        -0.5000 
     52 CA          0.1019  -12.3945  -48.5274 C.3       4 UNK         0.1400 
     53 CB          0.0338  -13.2540  -49.8022 C.3       4 UNK        -0.1800 
     54 N          -1.2466  -11.9654  -48.1769 N.am      4 UNK        -0.5000 
     55 C          -1.5515  -10.8483  -47.5061 C.2       3 UNK         0.5000 
     56 O          -0.7282   -9.9868  -47.1946 O.2       3 UNK        -0.5000 
     57 CA         -3.0240  -10.6970  -47.0815 C.3       3 UNK         0.1400 
     58 CB         -3.8558  -10.0844  -48.2189 C.3       3 UNK        -0.1800 
     59 N          -3.6293  -11.9686  -46.6683 N.am      3 UNK        -0.5000 
     60 C          -3.2727  -12.6537  -45.5700 C.2       2 UNK         0.5000 
     61 O          -2.3893  -12.2949  -44.7917 O.2       2 UNK        -0.5000 
     62 CA         -4.0113  -13.9728  -45.3176 C.3       2 UNK         0.1400 
     63 CB         -5.4954  -13.7357  -44.9778 C.3       2 UNK        -0.1800 
     64 N          -3.8748  -14.8553  -46.4759 N.am      2 UNK        -0.5000 
     65 C          -3.9993  -16.1868  -46.4269 C.2       1 UNK         0.5000 
     66 O          -4.2630  -16.8073  -45.3930 O.2       1 UNK        -0.5000 
     67 C          -1.3256  -23.6696  -47.3672 C.2       11 UNK         0.5000 
     68 O          -1.6927  -24.2957  -48.3606 O.2       11 UNK        -0.5000 
     69 N          -2.1533  -22.9285  -46.6166 N.am      12 UNK        -0.5000 
     70 CA         -3.5965  -22.8328  -46.8346 C.3       12 UNK         0.1400 
     71 CB         -4.1591  -21.5863  -46.1359 C.3       12 UNK        -0.1800 
     72 C          -4.3223  -24.1047  -46.3740 C.2       12 UNK         0.5000 
     73 O          -5.2170  -24.5735  -47.0761 O.2       12 UNK        -0.5000 
     74 N          -3.8848  -24.6761  -45.2426 N.am      13 UNK        -0.5000 
     75 CA         -4.3568  -25.9607  -44.7178 C.3       13 UNK         0.1400 
     76 CB         -3.7497  -26.1987  -43.3274 C.3       13 UNK        -0.1800 
     77 C          -4.0470  -27.1395  -45.6627 C.2       13 UNK         0.5000 
     78 O          -4.8809  -28.0316  -45.8195 O.2       13 UNK        -0.5000 
     79 N          -2.8747  -27.0935  -46.3107 N.am      14 UNK        -0.5000 
     80 CA         -2.4512  -28.0237  -47.3600 C.3       14 UNK         0.1400 
     81 CB         -0.9241  -27.9275  -47.5093 C.3       14 UNK        -0.1800 
     82 C          -3.1334  -27.7748  -48.7230 C.2       14 UNK         0.5000 
     83 O          -2.9875  -28.6036  -49.6220 O.2       14 UNK        -0.5000 
     84 N          -3.8328  -26.6376  -48.8637 N.am      15 UNK        -0.5000 
     85 CA         -4.4857  -26.1215  -50.0731 C.3       15 UNK         0.1400 
     86 CB         -5.6268  -27.0520  -50.5322 C.3       15 UNK        -0.1800 
     87 C          -3.5000  -25.7699  -51.2092 C.2       15 UNK         0.5000 
     88 O          -3.8978  -25.7149  -52.3737 O.2       15 UNK        -0.5000 
     89 N          -2.2374  -25.5076  -50.8496 N.am      16 UNK        -0.5000 
     90 CA         -1.1915  -25.0202  -51.7447 C.3       16 UNK         0.1400 
     91 CB          0.1845  -25.3638  -51.1519 C.3       16 UNK        -0.1800 
     92 C          -1.3301  -23.5054  -51.9686 C.2       16 UNK         0.5000 
     93 O          -1.2028  -23.0450  -53.1020 O.2       16 UNK        -0.5000 
     94 N          -1.6353  -22.7737  -50.8888 N.am      17 UNK        -0.5000 
     95 CA         -1.9373  -21.3451  -50.8915 C.3       17 UNK         0.1400 
     96 CB         -0.9436  -20.5989  -49.9858 C.3       17 UNK        -0.1800 
     97 C          -3.3968  -21.1653  -50.4526 C.2       17 UNK         0.5000 
     98 O          -3.6763  -20.5638  -49.4153 O.2       17 UNK        -0.5000 
     99 N          -4.3110  -21.7206  -51.2591 N.am      18 UNK        -0.5000 
    100 CA        -5.7647  -21.6839  -51.0614 C.3       18 UNK         0.1400 
    101 CB        -6.4089  -22.7186  -51.9980 C.3       18 UNK        -0.1800 
    102 C         -6.4016  -20.2878  -51.2563 C.2       18 UNK         0.5000 
    103 O         -7.6047  -20.1355  -51.0446 O.2       18 UNK        -0.5000 
    104 N         -5.5924  -19.2986  -51.6428 N.am      19 UNK        -0.5000 
    105 CA        -5.9125  -17.8838  -51.7409 C.3       19 UNK         0.1400 
    106 CB        -6.5772  -17.5943  -53.0986 C.3       19 UNK        -0.1800 
    107 C         -4.5980  -17.1043  -51.5878 C.2       19 UNK         0.5000 
    108 O         -3.5170  -17.6943  -51.6869 O.2       19 UNK        -0.5000 
    109 N         -4.7013  -15.7801  -51.4140 N.am      20 UNK        -0.5000 
    110 CA        -3.5671  -14.8481  -51.3281 C.3       20 UNK         0.1400 
    111 CB        -4.0753  -13.4842  -50.8337 C.3       20 UNK        -0.1800 
    112 C         -2.7540  -14.7027  -52.6358 C.2       20 UNK         0.5000 
    113 O         -1.7022  -14.0655  -52.6255 O.2       20 UNK        -0.5000 
    114 N         -3.2330  -15.3130  -53.7289 N.am      21 UNK        -0.5000 
    115 CA        -2.4849  -15.5278  -54.9684 C.3       21 UNK         0.1400 
    116 CB        -3.4712  -15.9434  -56.0712 C.3       21 UNK        -0.1800 
    117 C         -1.3627  -16.5808  -54.8226 C.2       21 UNK         0.5000 
    118 O         -0.4533  -16.6011  -55.6528 O.2       21 UNK        -0.5000 
    119 N         -1.4434  -17.4255  -53.7820 N.am      22 UNK        -0.5000 
    120 CA        -0.4519  -18.4483  -53.4005 C.3       22 UNK         0.1400 
    121 C         -0.3557  -19.6558  -54.3824 C.2       22 UNK         0.5000 
    122 N         -1.3657  -19.9149  -55.2042 N.am      22 UNK        -0.7600 
    123 O          0.6358  -20.3800  -54.3922 O.2       22 UNK        -0.5000 
    124 C124        0.9427  -17.8608  -53.0416 C.3       23 UNK        -0.0398 
    125 S125        0.8564  -16.5053  -51.8231 S.3       23 UNK        -0.2404 
    126 C126        2.3397  -16.8100  -50.8163 C.3       23 UNK        -0.0205 
    127 H127       -7.0175  -19.6570  -46.7938 H         1 UNK         0.0600 
    128 H128       -6.0860  -20.2403  -48.1784 H         1 UNK         0.0600 
    129 H129       -7.6159  -19.3978  -48.4335 H         1 UNK         0.0600 
    130 H130       -4.1779  -19.0152  -47.9068 H         1 UNK         0.3000 
    131 H131       -4.0780  -16.2765  -48.5648 H         1 UNK         0.0600 
    132 H132       -2.1821  -17.7607  -48.9784 H         1 UNK         0.0800 
    133 H133       -1.6875  -16.4165  -47.9990 H         1 UNK         0.0800 
    134 H134       -0.0381  -16.7112  -46.3235 H         1 UNK         0.0800 
    135 H135        0.3742  -18.1730  -45.4680 H         1 UNK         0.0800 
    136 H136        0.6707  -16.4354  -48.7216 H         1 UNK         0.1150 
    137 H137        3.3920  -19.3024  -50.3608 H         1 UNK         0.1150 
    138 H138        1.5743  -19.9820  -46.5307 H         1 UNK         0.1150 
    139 H139        3.2010  -21.6420  -49.4021 H         1 UNK         0.0800 
    140 H140        4.3218  -20.9937  -48.2298 H         1 UNK         0.0800 
    141 H141        0.8791  -22.7207  -48.7461 H         1 UNK         0.0800 
    142 H142        0.4096  -21.6354  -47.4613 H         1 UNK         0.0800 
    143 H143        0.5704  -24.6651  -47.3014 H         1 UNK         0.0600 
    144 H144        0.7213  -22.8467  -45.0948 H         1 UNK         0.3000 
    145 H145       -0.6963  -25.0356  -42.6500 H         1 UNK         0.0600 
    146 H146        1.5130  -24.7234  -41.5681 H         1 UNK         0.0600 
    147 H147        1.6545  -25.8637  -42.8966 H         1 UNK         0.0600 
    148 H148        2.2241  -24.2108  -43.0990 H         1 UNK         0.0600 
    149 H149        0.5592  -22.5183  -42.3681 H         1 UNK         0.3000 
    150 H150       -1.5613  -20.3151  -43.6768 H         1 UNK         0.0600 
    151 H151       -2.3303  -20.9736  -40.7839 H         1 UNK         0.0600 
    152 H152       -3.4499  -20.8351  -42.1343 H         1 UNK         0.0600 
    153 H153       -2.5661  -19.4211  -41.5894 H         1 UNK         0.0600 
    154 H154       -0.1283  -19.9600  -41.2499 H         1 UNK         0.3000 
    155 H155        1.8891  -18.7656  -41.4869 H         1 UNK         0.0600 
    156 H156        3.1630  -21.5593  -41.6406 H         1 UNK         0.0600 
    157 H157        2.0239  -21.0244  -40.4111 H         1 UNK         0.0600 
    158 H158        3.6130  -20.2887  -40.5039 H         1 UNK         0.0600 
    159 H159        4.1673  -19.7442  -42.9313 H         1 UNK         0.3000 
    160 H160        5.3781  -17.6140  -43.8642 H         1 UNK         0.0600 
    161 H161        4.1411  -19.3184  -46.1073 H         1 UNK         0.0600 
    162 H162        5.1901  -19.9135  -44.8313 H         1 UNK         0.0600 
    163 H163        5.8291  -18.8274  -46.0477 H         1 UNK         0.0600 
    164 H164        3.3630  -16.3984  -45.4862 H         1 UNK         0.3000 
    165 H165        5.5122  -13.8886  -46.6915 H         1 UNK         0.0600 
    166 H166        4.3739  -14.2681  -48.8956 H         1 UNK         0.0600 
    167 H167        5.6921  -15.4040  -48.6453 H         1 UNK         0.0600 
    168 H168        4.0307  -15.9342  -48.4243 H         1 UNK         0.0600 
    169 H169        2.6730  -14.4806  -46.9384 H         1 UNK         0.3000 
    170 H170        1.2145  -13.8622  -44.7956 H         1 UNK         0.0600 
    171 H171        2.0135  -12.3206  -43.0279 H         1 UNK         0.0600 
    172 H172        2.1727  -11.0164  -44.2006 H         1 UNK         0.0600 
    173 H173        0.5826  -11.6737  -43.8123 H         1 UNK         0.0600 
    174 H174        1.0823  -11.4246  -46.3693 H         1 UNK         0.3000 
    175 H175        0.7306  -11.5268  -48.7382 H         1 UNK         0.0600 
    176 H176        1.0238  -13.6142  -50.0848 H         1 UNK         0.0600 
    177 H177       -0.6064  -14.1280  -49.6756 H         1 UNK         0.0600 
    178 H178       -0.3522  -12.6775  -50.6428 H         1 UNK         0.0600 
    179 H179       -1.9861  -12.6228  -48.3631 H         1 UNK         0.3000 
    180 H180       -3.0549  -10.0137  -46.2300 H         1 UNK         0.0600 
    181 H181       -3.8868  -10.7344  -49.0941 H         1 UNK         0.0600 
    182 H182       -3.4380   -9.1278  -48.5357 H         1 UNK         0.0600 
    183 H183       -4.8821   -9.8993  -47.9014 H         1 UNK         0.0600 
    184 H184       -4.4059  -12.2972  -47.2226 H         1 UNK         0.3000 
    185 H185       -3.5328  -14.4454  -44.4567 H         1 UNK         0.0600 
    186 H186       -5.5996  -13.0304  -44.1523 H         1 UNK         0.0600 
    187 H187       -6.0479  -13.3338  -45.8276 H         1 UNK         0.0600 
    188 H188       -5.9836  -14.6616  -44.6736 H         1 UNK         0.0600 
    189 H189       -3.6250  -14.4104  -47.3454 H         1 UNK         0.3000 
    190 H190       -1.7951  -22.4836  -45.7839 H         1 UNK         0.3000 
    191 H191       -3.7789  -22.7278  -47.9051 H         1 UNK         0.0600 
    192 H192       -3.7112  -20.6780  -46.5366 H         1 UNK         0.0600 
    193 H193       -5.2360  -21.5128  -46.2860 H         1 UNK         0.0600 
    194 H194       -3.9850  -21.5993  -45.0610 H         1 UNK         0.0600 
    195 H195       -3.1824  -24.1857  -44.6962 H         1 UNK         0.3000 
    196 H196       -5.4414  -25.8961  -44.6101 H         1 UNK         0.0600 
    197 H197       -4.1443  -27.1127  -42.8821 H         1 UNK         0.0600 
    198 H198       -3.9818  -25.3779  -42.6484 H         1 UNK         0.0600 
    199 H199       -2.6656  -26.2993  -43.3732 H         1 UNK         0.0600 
    200 H200       -2.2079  -26.3730  -46.0531 H         1 UNK         0.3000 
    201 H201       -2.7023  -29.0393  -47.0477 H         1 UNK         0.0600 
    202 H202       -0.5552  -28.6349  -48.2530 H         1 UNK         0.0600 
    203 H203       -0.4207  -28.1545  -46.5693 H         1 UNK         0.0600 
    204 H204       -0.6137  -26.9301  -47.8227 H         1 UNK         0.0600 
    205 H205       -3.9079  -26.0347  -48.0546 H         1 UNK         0.3000 
    206 H206       -4.9401  -25.1740  -49.7802 H         1 UNK         0.0600 
    207 H207       -6.3078  -27.2740  -49.7106 H         1 UNK         0.0600 
    208 H208       -6.2163  -26.5868  -51.3231 H         1 UNK         0.0600 
    209 H209       -5.2488  -27.9976  -50.9214 H         1 UNK         0.0600 
    210 H210       -2.0220  -25.4901  -49.8580 H         1 UNK         0.3000 
    211 H211       -1.2836  -25.5210  -52.7109 H         1 UNK         0.0600 
    212 H212        0.3382  -24.8948  -50.1797 H         1 UNK         0.0600 
    213 H213        0.9867  -25.0266  -51.8095 H         1 UNK         0.0600 
    214 H214        0.2987  -26.4404  -51.0241 H         1 UNK         0.0600 
    215 H215       -1.7618  -23.2584  -50.0057 H         1 UNK         0.3000 
    216 H216       -1.8501  -20.9354  -51.8988 H         1 UNK         0.0600 
    217 H217       -1.0699  -19.5203  -50.0784 H         1 UNK         0.0600 
    218 H218        0.0890  -20.8244  -50.2519 H         1 UNK         0.0600 
    219 H219       -1.0906  -20.8492  -48.9364 H         1 UNK         0.0600 
    220 H220       -3.9884  -22.2010  -52.0870 H         1 UNK         0.3000 
    221 H221       -5.9698  -21.9855  -50.0322 H         1 UNK         0.0600 
    222 H222       -6.2316  -22.4757  -53.0464 H         1 UNK         0.0600 
    223 H223       -6.0158  -23.7185  -51.8139 H         1 UNK         0.0600 
    224 H224       -7.4885  -22.7657  -51.8499 H         1 UNK         0.0600 
    225 H225       -4.6035  -19.4902  -51.7394 H         1 UNK         0.3000 
    226 H226       -6.5820  -17.6018  -50.9257 H         1 UNK         0.0600 
    227 H227       -6.8340  -16.5392  -53.1979 H         1 UNK         0.0600 
    228 H228       -5.9220  -17.8554  -53.9306 H         1 UNK         0.0600 
    229 H229       -7.5014  -18.1610  -53.2134 H         1 UNK         0.0600 
    230 H230       -5.6210  -15.3649  -51.3639 H         1 UNK         0.3000 
    231 H231       -2.8741  -15.2392  -50.5802 H         1 UNK         0.0600 
    232 H232       -4.7818  -13.0419  -51.5371 H         1 UNK         0.0600 
    233 H233       -3.2518  -12.7793  -50.7105 H         1 UNK         0.0600 
    234 H234       -4.5734  -13.5728  -49.8683 H         1 UNK         0.0600 
    235 H235       -4.1209  -15.7844  -53.6531 H         1 UNK         0.3000 
    236 H236       -2.0179  -14.5848  -55.2598 H         1 UNK         0.0600 
    237 H237       -4.2320  -15.1786  -56.2288 H         1 UNK         0.0600 
    238 H238       -2.9563  -16.0879  -57.0220 H         1 UNK         0.0600 
    239 H239       -3.9787  -16.8775  -55.8274 H         1 UNK         0.0600 
    240 H240       -2.2270  -17.3406  -53.1434 H         1 UNK         0.3000 
    241 H241       -0.8457  -18.8783  -52.4808 H         1 UNK         0.0600 
    242 H242       -2.1830  -19.3273  -55.2166 H         1 UNK         0.3800 
    243 H243       -1.3038  -20.7054  -55.8261 H         1 UNK         0.3800 
    244 H244        1.5812  -18.6477  -52.6366 H         1 UNK         0.0800 
    245 H245        1.4464  -17.4892  -53.9348 H         1 UNK         0.0800 
    246 H246        3.1527  -17.1720  -51.4474 H         1 UNK         0.0800 
    247 H247        2.6732  -15.8531  -50.4140 H         1 UNK         0.0800 
@<TRIPOS>BOND
     1    1    2 1    
     2    1  127 1    
     3    1  128 1    
     4    1  129 1    
     5    2    3 2    
     6    2    4 am   BACKBONE|DICT|INTERRES
     7    4    5 1    
     8    4  130 1    
     9    5    6 1    
    10    5   65 1    
    11    5  131 1    
    12    6    7 1    
    13    6  132 1    
    14    6  133 1    
    15    7    8 1    
    16    8    9 1    
    17    8  134 1    
    18    8  135 1    
    19    9   10 ar   
    20    9   14 ar   
    21   10   11 ar   
    22   10  136 1    
    23   11   12 ar   
    24   11  126 1    
    25   12   13 ar   
    26   12  137 1    
    27   13   14 ar   
    28   13   15 1    
    29   14  138 1    
    30   15   16 1    
    31   15  139 1    
    32   15  140 1    
    33   16   17 1    
    34   17   18 1    
    35   17  141 1    
    36   17  142 1    
    37   18   19 1    
    38   18   67 1    
    39   18  143 1    
    40   19   20 am   BACKBONE|DICT|INTERRES
    41   19  144 1    
    42   20   21 2    
    43   20   22 1    
    44   22   23 1    
    45   22   24 1    
    46   22  145 1    
    47   23  146 1    
    48   23  147 1    
    49   23  148 1    
    50   24   25 am   BACKBONE|DICT|INTERRES
    51   24  149 1    
    52   25   26 2    
    53   25   27 1    
    54   27   28 1    
    55   27   29 1    
    56   27  150 1    
    57   28  151 1    
    58   28  152 1    
    59   28  153 1    
    60   29   30 am   BACKBONE|DICT|INTERRES
    61   29  154 1    
    62   30   31 2    
    63   30   32 1    
    64   32   33 1    
    65   32   34 1    
    66   32  155 1    
    67   33  156 1    
    68   33  157 1    
    69   33  158 1    
    70   34   35 am   BACKBONE|DICT|INTERRES
    71   34  159 1    
    72   35   36 2    
    73   35   37 1    
    74   37   38 1    
    75   37   39 1    
    76   37  160 1    
    77   38  161 1    
    78   38  162 1    
    79   38  163 1    
    80   39   40 am   BACKBONE|DICT|INTERRES
    81   39  164 1    
    82   40   41 2    
    83   40   42 1    
    84   42   43 1    
    85   42   44 1    
    86   42  165 1    
    87   43  166 1    
    88   43  167 1    
    89   43  168 1    
    90   44   45 am   BACKBONE|DICT|INTERRES
    91   44  169 1    
    92   45   46 2    
    93   45   47 1    
    94   47   48 1    
    95   47   49 1    
    96   47  170 1    
    97   48  171 1    
    98   48  172 1    
    99   48  173 1    
   100   49   50 am   BACKBONE|DICT|INTERRES
   101   49  174 1    
   102   50   51 2    
   103   50   52 1    
   104   52   53 1    
   105   52   54 1    
   106   52  175 1    
   107   53  176 1    
   108   53  177 1    
   109   53  178 1    
   110   54   55 am   BACKBONE|DICT|INTERRES
   111   54  179 1    
   112   55   56 2    
   113   55   57 1    
   114   57   58 1    
   115   57   59 1    
   116   57  180 1    
   117   58  181 1    
   118   58  182 1    
   119   58  183 1    
   120   59   60 am   BACKBONE|DICT|INTERRES
   121   59  184 1    
   122   60   61 2    
   123   60   62 1    
   124   62   63 1    
   125   62   64 1    
   126   62  185 1    
   127   63  186 1    
   128   63  187 1    
   129   63  188 1    
   130   64   65 am   BACKBONE|DICT|INTERRES
   131   64  189 1    
   132   65   66 2    
   133   67   68 2    
   134   67   69 am   BACKBONE|DICT|INTERRES
   135   69   70 1    
   136   69  190 1    
   137   70   71 1    
   138   70   72 1    
   139   70  191 1    
   140   71  192 1    
   141   71  193 1    
   142   71  194 1    
   143   72   73 2    
   144   72   74 am   BACKBONE|DICT|INTERRES
   145   74   75 1    
   146   74  195 1    
   147   75   76 1    
   148   75   77 1    
   149   75  196 1    
   150   76  197 1    
   151   76  198 1    
   152   76  199 1    
   153   77   78 2    
   154   77   79 am   BACKBONE|DICT|INTERRES
   155   79   80 1    
   156   79  200 1    
   157   80   81 1    
   158   80   82 1    
   159   80  201 1    
   160   81  202 1    
   161   81  203 1    
   162   81  204 1    
   163   82   83 2    
   164   82   84 am   BACKBONE|DICT|INTERRES
   165   84   85 1    
   166   84  205 1    
   167   85   86 1    
   168   85   87 1    
   169   85  206 1    
   170   86  207 1    
   171   86  208 1    
   172   86  209 1    
   173   87   88 2    
   174   87   89 am   BACKBONE|DICT|INTERRES
   175   89   90 1    
   176   89  210 1    
   177   90   91 1    
   178   90   92 1    
   179   90  211 1    
   180   91  212 1    
   181   91  213 1    
   182   91  214 1    
   183   92   93 2    
   184   92   94 am   BACKBONE|DICT|INTERRES
   185   94   95 1    
   186   94  215 1    
   187   95   96 1    
   188   95   97 1    
   189   95  216 1    
   190   96  217 1    
   191   96  218 1    
   192   96  219 1    
   193   97   98 2    
   194   97   99 am   BACKBONE|DICT|INTERRES
   195   99  100 1    
   196   99  220 1    
   197  100  101 1    
   198  100  102 1    
   199  100  221 1    
   200  101  222 1    
   201  101  223 1    
   202  101  224 1    
   203  102  103 2    
   204  102  104 am   BACKBONE|DICT|INTERRES
   205  104  105 1    
   206  104  225 1    
   207  105  106 1    
   208  105  107 1    
   209  105  226 1    
   210  106  227 1    
   211  106  228 1    
   212  106  229 1    
   213  107  108 2    
   214  107  109 am   BACKBONE|DICT|INTERRES
   215  109  110 1    
   216  109  230 1    
   217  110  111 1    
   218  110  112 1    
   219  110  231 1    
   220  111  232 1    
   221  111  233 1    
   222  111  234 1    
   223  112  113 2    
   224  112  114 am   BACKBONE|DICT|INTERRES
   225  114  115 1    
   226  114  235 1    
   227  115  116 1    
   228  115  117 1    
   229  115  236 1    
   230  116  237 1    
   231  116  238 1    
   232  116  239 1    
   233  117  118 2    
   234  117  119 am   BACKBONE|DICT|INTERRES
   235  119  120 1    
   236  119  240 1    
   237  120  121 1    
   238  120  124 1    
   239  120  241 1    
   240  121  122 am   BACKBONE|DICT|INTERRES
   241  121  123 2    
   242  122  242 1    
   243  122  243 1    
   244  124  125 1    
   245  124  244 1    
   246  124  245 1    
   247  125  126 1    
   248  126  246 1    
   249  126  247 1    
@<TRIPOS>SUBSTRUCTURE
     1 UNK         1 GROUP             0       ****    0 ROOT    
