@<TRIPOS>MOLECULE
3R540
247   249    1
SMALL
USER_CHARGES


@<TRIPOS>ATOM
      1 CA         -3.4650  -18.8716  -41.9893 C.3       0 UNK        -0.1800 
      2 C          -3.9664  -17.6592  -42.7588 C.2       0 UNK         0.5000 
      3 O          -5.1164  -17.6471  -43.1976 O.2       0 UNK        -0.5000 
      4 N          -3.1131  -16.6465  -42.9314 N.am      1 UNK        -0.5000 
      5 CA         -3.4249  -15.3958  -43.6251 C.3       1 UNK         0.1400 
      6 C6         -3.3880  -15.5214  -45.1765 C.3       23 UNK        -0.0398 
      7 S7         -1.7993  -16.0626  -45.9022 S.3       23 UNK        -0.2404 
      8 C8         -1.9274  -17.8697  -45.7369 C.3       23 UNK        -0.0205 
      9 C9         -1.5066  -18.6018  -46.9991 C.ar      23 UNK        -0.0193 
     10 C10        -2.4754  -19.0402  -47.9056 C.ar      23 UNK        -0.1150 
     11 C11        -2.1142  -19.8156  -49.0106 C.ar      23 UNK        -0.0193 
     12 C12        -0.7662  -20.1095  -49.2303 C.ar      23 UNK        -0.1150 
     13 C13         0.2163  -19.6560  -48.3448 C.ar      23 UNK        -0.0193 
     14 C14        -0.1623  -18.9087  -47.2243 C.ar      23 UNK        -0.1150 
     15 C15         1.6835  -19.9808  -48.5929 C.3       23 UNK        -0.0205 
     16 S16         2.0186  -21.7688  -48.6207 S.3       23 UNK        -0.2404 
     17 C17         1.7994  -22.1707  -46.8561 C.3       23 UNK        -0.0398 
     18 CA          0.8960  -23.3950  -46.5873 C.3       11 UNK         0.1400 
     19 N           0.9623  -23.7849  -45.1788 N.am      11 UNK        -0.5000 
     20 C           0.4765  -24.9223  -44.6639 C.2       10 UNK         0.5000 
     21 O          -0.0435  -25.8152  -45.3323 O.2       10 UNK        -0.5000 
     22 CA          0.5339  -25.0429  -43.1301 C.3       10 UNK         0.1400 
     23 CB          1.9217  -25.5146  -42.6716 C.3       10 UNK        -0.1800 
     24 N           0.2037  -23.7768  -42.4689 N.am      10 UNK        -0.5000 
     25 C          -1.0091  -23.2070  -42.5118 C.2       9 UNK         0.5000 
     26 O          -1.9811  -23.7239  -43.0602 O.2       9 UNK        -0.5000 
     27 CA         -1.1577  -21.8137  -41.8772 C.3       9 UNK         0.1400 
     28 CB         -1.5909  -21.9271  -40.4088 C.3       9 UNK        -0.1800 
     29 N           0.0533  -20.9951  -41.9665 N.am      9 UNK        -0.5000 
     30 C           0.5465  -20.4876  -43.1039 C.2       8 UNK         0.5000 
     31 O           0.0554  -20.6960  -44.2149 O.2       8 UNK        -0.5000 
     32 CA          1.8350  -19.6518  -42.9740 C.3       8 UNK         0.1400 
     33 CB          3.0105  -20.3533  -43.6716 C.3       8 UNK        -0.1800 
     34 N           1.7240  -18.2884  -43.4944 N.am      8 UNK        -0.5000 
     35 C           0.8497  -17.3552  -43.1004 C.2       7 UNK         0.5000 
     36 O          -0.0669  -17.5677  -42.3059 O.2       7 UNK        -0.5000 
     37 CA          1.0290  -15.9266  -43.6519 C.3       7 UNK         0.1400 
     38 CB          1.8821  -15.0772  -42.6926 C.3       7 UNK        -0.1800 
     39 N           1.5184  -15.8002  -45.0309 N.am      7 UNK        -0.5000 
     40 C           2.7203  -16.0937  -45.5458 C.2       6 UNK         0.5000 
     41 O           3.5920  -16.7175  -44.9402 O.2       6 UNK        -0.5000 
     42 CA          3.0071  -15.5935  -46.9793 C.3       6 UNK         0.1400 
     43 CB          2.9611  -16.7453  -47.9900 C.3       6 UNK        -0.1800 
     44 N           2.0991  -14.5346  -47.4332 N.am      6 UNK        -0.5000 
     45 C           2.1067  -13.2781  -46.9695 C.2       5 UNK         0.5000 
     46 O           2.9167  -12.8781  -46.1298 O.2       5 UNK        -0.5000 
     47 CA          1.0441  -12.3209  -47.5483 C.3       5 UNK         0.1400 
     48 CB         -0.3492  -12.9733  -47.6375 C.3       5 UNK        -0.1800 
     49 N           0.9389  -11.1360  -46.7030 N.am      5 UNK        -0.5000 
     50 C           1.4671   -9.9340  -46.9669 C.2       4 UNK         0.5000 
     51 O           2.0283   -9.6504  -48.0263 O.2       4 UNK        -0.5000 
     52 CA          1.3478   -8.8581  -45.8659 C.3       4 UNK         0.1400 
     53 CB          0.2040   -7.8842  -46.1896 C.3       4 UNK        -0.1800 
     54 N           1.1180   -9.4254  -44.5362 N.am      4 UNK        -0.5000 
     55 C           2.0399  -10.0663  -43.8037 C.2       3 UNK         0.5000 
     56 O           3.2326  -10.1174  -44.1046 O.2       3 UNK        -0.5000 
     57 CA          1.5495  -10.7765  -42.5234 C.3       3 UNK         0.1400 
     58 CB          1.9742   -9.9888  -41.2743 C.3       3 UNK        -0.1800 
     59 N           0.0987  -10.9971  -42.4712 N.am      3 UNK        -0.5000 
     60 C          -0.5979  -11.7939  -43.2929 C.2       2 UNK         0.5000 
     61 O          -0.0958  -12.4268  -44.2230 O.2       2 UNK        -0.5000 
     62 CA         -2.1233  -11.8052  -43.0827 C.3       2 UNK         0.1400 
     63 CB         -2.7598  -10.6108  -43.8122 C.3       2 UNK        -0.1800 
     64 N          -2.7692  -13.0321  -43.5521 N.am      2 UNK        -0.5000 
     65 C          -2.5715  -14.2531  -43.0386 C.2       1 UNK         0.5000 
     66 O          -1.7986  -14.4808  -42.1032 O.2       1 UNK        -0.5000 
     67 C          -0.5645  -23.1687  -47.0293 C.2       11 UNK         0.5000 
     68 O          -0.9459  -23.6371  -48.1026 O.2       11 UNK        -0.5000 
     69 N          -1.3617  -22.5161  -46.1690 N.am      12 UNK        -0.5000 
     70 CA         -2.7952  -22.2962  -46.3612 C.3       12 UNK         0.1400 
     71 CB         -3.3347  -21.3749  -45.2553 C.3       12 UNK        -0.1800 
     72 C          -3.5989  -23.6058  -46.4221 C.2       12 UNK         0.5000 
     73 O          -4.4285  -23.7640  -47.3177 O.2       12 UNK        -0.5000 
     74 N          -3.3191  -24.5251  -45.4878 N.am      13 UNK        -0.5000 
     75 CA         -3.9452  -25.8445  -45.3980 C.3       13 UNK         0.1400 
     76 CB         -3.5381  -26.5131  -44.0760 C.3       13 UNK        -0.1800 
     77 C          -3.6071  -26.7526  -46.5938 C.2       13 UNK         0.5000 
     78 O          -4.4936  -27.4371  -47.1064 O.2       13 UNK        -0.5000 
     79 N          -2.3388  -26.7320  -47.0245 N.am      14 UNK        -0.5000 
     80 CA         -1.8498  -27.4823  -48.1822 C.3       14 UNK         0.1400 
     81 CB         -0.3185  -27.5741  -48.0967 C.3       14 UNK        -0.1800 
     82 C          -2.2664  -26.8673  -49.5328 C.2       14 UNK         0.5000 
     83 O          -2.2827  -27.5815  -50.5357 O.2       14 UNK        -0.5000 
     84 N          -2.5488  -25.5553  -49.5373 N.am      15 UNK        -0.5000 
     85 CA         -2.7426  -24.6822  -50.7011 C.3       15 UNK         0.1400 
     86 CB         -4.0174  -25.0591  -51.4831 C.3       15 UNK        -0.1800 
     87 C          -1.4784  -24.6093  -51.5856 C.2       15 UNK         0.5000 
     88 O          -1.5765  -24.5258  -52.8112 O.2       15 UNK        -0.5000 
     89 N          -0.3061  -24.6672  -50.9367 N.am      16 UNK        -0.5000 
     90 CA          0.9954  -24.9312  -51.5561 C.3       16 UNK         0.1400 
     91 CB          2.0218  -25.2444  -50.4569 C.3       16 UNK        -0.1800 
     92 C           1.5096  -23.8279  -52.4992 C.2       16 UNK         0.5000 
     93 O           2.3482  -24.1158  -53.3544 O.2       16 UNK        -0.5000 
     94 N           0.9950  -22.5996  -52.3527 N.am      17 UNK        -0.5000 
     95 CA          1.2841  -21.4805  -53.2526 C.3       17 UNK         0.1400 
     96 CB          0.8251  -20.1688  -52.6004 C.3       17 UNK        -0.1800 
     97 C           0.6276  -21.6327  -54.6381 C.2       17 UNK         0.5000 
     98 O           1.1328  -21.0602  -55.6041 O.2       17 UNK        -0.5000 
     99 N          -0.4916  -22.3744  -54.7021 N.am      18 UNK        -0.5000 
    100 CA        -1.3293  -22.6241  -55.8829 C.3       18 UNK         0.1400 
    101 CB        -0.5768  -23.5058  -56.9008 C.3       18 UNK        -0.1800 
    102 C         -1.9178  -21.3438  -56.5224 C.2       18 UNK         0.5000 
    103 O         -2.2400  -21.3412  -57.7123 O.2       18 UNK        -0.5000 
    104 N         -2.0462  -20.2758  -55.7237 N.am      19 UNK        -0.5000 
    105 CA        -2.6089  -18.9882  -56.1231 C.3       19 UNK         0.1400 
    106 CB        -2.1915  -17.9326  -55.0863 C.3       19 UNK        -0.1800 
    107 C         -4.1416  -19.0526  -56.2317 C.2       19 UNK         0.5000 
    108 O         -4.7682  -19.9057  -55.6011 O.2       19 UNK        -0.5000 
    109 N         -4.7287  -18.1069  -56.9765 N.am      20 UNK        -0.5000 
    110 CA        -6.1797  -17.9706  -57.1572 C.3       20 UNK         0.1400 
    111 CB        -6.4521  -16.8990  -58.2242 C.3       20 UNK        -0.1800 
    112 C         -6.9445  -17.6444  -55.8564 C.2       20 UNK         0.5000 
    113 O         -8.1315  -17.9560  -55.7549 O.2       20 UNK        -0.5000 
    114 N         -6.2494  -17.0352  -54.8862 N.am      21 UNK        -0.5000 
    115 CA        -6.7570  -16.7505  -53.5444 C.3       21 UNK         0.1400 
    116 CB        -5.8990  -15.6372  -52.9226 C.3       21 UNK        -0.1800 
    117 C         -6.7738  -17.9887  -52.6242 C.2       21 UNK         0.5000 
    118 O         -7.5011  -17.9827  -51.6298 O.2       21 UNK        -0.5000 
    119 N         -5.9705  -19.0104  -52.9471 N.am      22 UNK        -0.5000 
    120 CA        -5.8723  -20.2674  -52.1941 C.3       22 UNK         0.1400 
    121 C         -6.9762  -21.2829  -52.5997 C.2       22 UNK         0.5000 
    122 N         -7.3192  -22.2125  -51.7176 N.am      22 UNK        -0.7600 
    123 O         -7.5082  -21.2618  -53.7074 O.2       22 UNK        -0.5000 
    124 C124       -4.4618  -20.9004  -52.3178 C.3       23 UNK        -0.0398 
    125 S125       -3.1504  -19.8443  -51.6095 S.3       23 UNK        -0.2404 
    126 C126       -3.1886  -20.4351  -49.8906 C.3       23 UNK        -0.0205 
    127 H127       -2.3800  -18.8647  -41.8874 H         1 UNK         0.0600 
    128 H128       -3.7531  -19.7852  -42.5085 H         1 UNK         0.0600 
    129 H129       -3.9037  -18.8927  -40.9919 H         1 UNK         0.0600 
    130 H130       -2.1867  -16.6772  -42.5176 H         1 UNK         0.3000 
    131 H131       -4.4483  -15.1269  -43.3545 H         1 UNK         0.0600 
    132 H132       -4.1704  -16.2077  -45.5023 H         1 UNK         0.0800 
    133 H133       -3.6523  -14.5707  -45.6405 H         1 UNK         0.0800 
    134 H134       -1.3151  -18.2005  -44.8978 H         1 UNK         0.0800 
    135 H135       -2.9495  -18.1525  -45.4859 H         1 UNK         0.0800 
    136 H136       -3.5178  -18.8263  -47.7166 H         1 UNK         0.1150 
    137 H137       -0.4852  -20.7235  -50.0723 H         1 UNK         0.1150 
    138 H138        0.5829  -18.5804  -46.5134 H         1 UNK         0.1150 
    139 H139        1.9961  -19.5366  -49.5371 H         1 UNK         0.0800 
    140 H140        2.3133  -19.5338  -47.8240 H         1 UNK         0.0800 
    141 H141        1.4140  -21.2993  -46.3280 H         1 UNK         0.0800 
    142 H142        2.7941  -22.3522  -46.4471 H         1 UNK         0.0800 
    143 H143        1.2848  -24.2324  -47.1709 H         1 UNK         0.0600 
    144 H144        1.3262  -23.0941  -44.5407 H         1 UNK         0.3000 
    145 H145       -0.2007  -25.7916  -42.8256 H         1 UNK         0.0600 
    146 H146        1.9482  -25.6697  -41.5929 H         1 UNK         0.0600 
    147 H147        2.1854  -26.4629  -43.1418 H         1 UNK         0.0600 
    148 H148        2.6998  -24.7940  -42.9266 H         1 UNK         0.0600 
    149 H149        0.9491  -23.2982  -41.9855 H         1 UNK         0.3000 
    150 H150       -1.9474  -21.2994  -42.4252 H         1 UNK         0.0600 
    151 H151       -0.8278  -22.4123  -39.7991 H         1 UNK         0.0600 
    152 H152       -2.5070  -22.5122  -40.3163 H         1 UNK         0.0600 
    153 H153       -1.7907  -20.9447  -39.9803 H         1 UNK         0.0600 
    154 H154        0.5122  -20.7776  -41.0937 H         1 UNK         0.3000 
    155 H155        2.0815  -19.5667  -41.9139 H         1 UNK         0.0600 
    156 H156        2.8970  -20.3437  -44.7553 H         1 UNK         0.0600 
    157 H157        3.0990  -21.3931  -43.3543 H         1 UNK         0.0600 
    158 H158        3.9544  -19.8615  -43.4358 H         1 UNK         0.0600 
    159 H159        2.4606  -17.9806  -44.1223 H         1 UNK         0.3000 
    160 H160        0.0366  -15.4813  -43.6706 H         1 UNK         0.0600 
    161 H161        2.8896  -15.4784  -42.5794 H         1 UNK         0.0600 
    162 H162        1.4293  -15.0381  -41.7011 H         1 UNK         0.0600 
    163 H163        1.9672  -14.0524  -43.0522 H         1 UNK         0.0600 
    164 H164        0.8725  -15.3310  -45.6499 H         1 UNK         0.3000 
    165 H165        4.0229  -15.1924  -46.9763 H         1 UNK         0.0600 
    166 H166        3.3011  -16.4195  -48.9732 H         1 UNK         0.0600 
    167 H167        3.6107  -17.5644  -47.6797 H         1 UNK         0.0600 
    168 H168        1.9499  -17.1349  -48.1003 H         1 UNK         0.0600 
    169 H169        1.4154  -14.7955  -48.1289 H         1 UNK         0.3000 
    170 H170        1.3619  -12.0453  -48.5556 H         1 UNK         0.0600 
    171 H171       -0.3620  -13.8079  -48.3387 H         1 UNK         0.0600 
    172 H172       -0.6808  -13.3485  -46.6691 H         1 UNK         0.0600 
    173 H173       -1.0941  -12.2572  -47.9849 H         1 UNK         0.0600 
    174 H174        0.5767  -11.3151  -45.7726 H         1 UNK         0.3000 
    175 H175        2.2839   -8.2960  -45.8485 H         1 UNK         0.0600 
    176 H176       -0.7617   -8.3909  -46.2125 H         1 UNK         0.0600 
    177 H177        0.1467   -7.0833  -45.4522 H         1 UNK         0.0600 
    178 H178        0.3528   -7.4169  -47.1640 H         1 UNK         0.0600 
    179 H179        0.1685   -9.4108  -44.1964 H         1 UNK         0.3000 
    180 H180        2.0376  -11.7518  -42.4924 H         1 UNK         0.0600 
    181 H181        1.5012   -9.0067  -41.2383 H         1 UNK         0.0600 
    182 H182        3.0539   -9.8338  -41.2571 H         1 UNK         0.0600 
    183 H183        1.7110  -10.5236  -40.3615 H         1 UNK         0.0600 
    184 H184       -0.3964  -10.4958  -41.7475 H         1 UNK         0.3000 
    185 H185       -2.3243  -11.7113  -42.0134 H         1 UNK         0.0600 
    186 H186       -2.3454   -9.6653  -43.4600 H         1 UNK         0.0600 
    187 H187       -2.5916  -10.6617  -44.8891 H         1 UNK         0.0600 
    188 H188       -3.8359  -10.5716  -43.6422 H         1 UNK         0.0600 
    189 H189       -3.4092  -12.9218  -44.3240 H         1 UNK         0.3000 
    190 H190       -0.9476  -22.1075  -45.3387 H         1 UNK         0.3000 
    191 H191       -2.9199  -21.7921  -47.3179 H         1 UNK         0.0600 
    192 H192       -2.6855  -20.5150  -45.1017 H         1 UNK         0.0600 
    193 H193       -4.3244  -20.9982  -45.5150 H         1 UNK         0.0600 
    194 H194       -3.4251  -21.8912  -44.3004 H         1 UNK         0.0600 
    195 H195       -2.6619  -24.2846  -44.7502 H         1 UNK         0.3000 
    196 H196       -5.0275  -25.7000  -45.3864 H         1 UNK         0.0600 
    197 H197       -4.0006  -27.4957  -43.9751 H         1 UNK         0.0600 
    198 H198       -3.8525  -25.9158  -43.2199 H         1 UNK         0.0600 
    199 H199       -2.4580  -26.6484  -44.0094 H         1 UNK         0.0600 
    200 H200       -1.6522  -26.1884  -46.5105 H         1 UNK         0.3000 
    201 H201       -2.2555  -28.4953  -48.1402 H         1 UNK         0.0600 
    202 H202        0.0922  -28.1250  -48.9439 H         1 UNK         0.0600 
    203 H203       -0.0054  -28.0911  -47.1895 H         1 UNK         0.0600 
    204 H204        0.1406  -26.5848  -48.0911 H         1 UNK         0.0600 
    205 H205       -2.4509  -25.0627  -48.6575 H         1 UNK         0.3000 
    206 H206       -2.8892  -23.6822  -50.2987 H         1 UNK         0.0600 
    207 H207       -4.8874  -25.0838  -50.8269 H         1 UNK         0.0600 
    208 H208       -4.2245  -24.3321  -52.2689 H         1 UNK         0.0600 
    209 H209       -3.9283  -26.0351  -51.9606 H         1 UNK         0.0600 
    210 H210       -0.3328  -24.6383  -49.9242 H         1 UNK         0.3000 
    211 H211        0.8830  -25.8294  -52.1670 H         1 UNK         0.0600 
    212 H212        2.1152  -24.4249  -49.7464 H         1 UNK         0.0600 
    213 H213        3.0104  -25.4256  -50.8807 H         1 UNK         0.0600 
    214 H214        1.7425  -26.1392  -49.9015 H         1 UNK         0.0600 
    215 H215        0.3247  -22.4458  -51.6147 H         1 UNK         0.3000 
    216 H216        2.3647  -21.4266  -53.4011 H         1 UNK         0.0600 
    217 H217        1.0459  -19.3143  -53.2416 H         1 UNK         0.0600 
    218 H218        1.3379  -20.0017  -51.6558 H         1 UNK         0.0600 
    219 H219       -0.2482  -20.1651  -52.4113 H         1 UNK         0.0600 
    220 H220       -0.7962  -22.8493  -53.8596 H         1 UNK         0.3000 
    221 H221       -2.1856  -23.1971  -55.5241 H         1 UNK         0.0600 
    222 H222        0.2607  -22.9752  -57.3545 H         1 UNK         0.0600 
    223 H223       -0.1864  -24.4067  -56.4272 H         1 UNK         0.0600 
    224 H224       -1.2370  -23.8259  -57.7076 H         1 UNK         0.0600 
    225 H225       -1.7894  -20.3740  -54.7536 H         1 UNK         0.3000 
    226 H226       -2.1974  -18.7116  -57.0962 H         1 UNK         0.0600 
    227 H227       -1.1066  -17.8839  -54.9881 H         1 UNK         0.0600 
    228 H228       -2.5338  -16.9385  -55.3759 H         1 UNK         0.0600 
    229 H229       -2.6066  -18.1478  -54.1010 H         1 UNK         0.0600 
    230 H230       -4.1520  -17.4309  -57.4569 H         1 UNK         0.3000 
    231 H231       -6.5608  -18.9251  -57.5263 H         1 UNK         0.0600 
    232 H232       -6.0704  -15.9233  -57.9211 H         1 UNK         0.0600 
    233 H233       -7.5224  -16.7908  -58.4053 H         1 UNK         0.0600 
    234 H234       -5.9887  -17.1617  -59.1754 H         1 UNK         0.0600 
    235 H235       -5.2848  -16.8001  -55.0656 H         1 UNK         0.3000 
    236 H236       -7.7829  -16.3852  -53.6267 H         1 UNK         0.0600 
    237 H237       -5.9242  -14.7326  -53.5305 H         1 UNK         0.0600 
    238 H238       -6.2644  -15.3704  -51.9300 H         1 UNK         0.0600 
    239 H239       -4.8574  -15.9438  -52.8170 H         1 UNK         0.0600 
    240 H240       -5.4800  -18.9952  -53.8321 H         1 UNK         0.3000 
    241 H241       -6.0340  -20.0384  -51.1389 H         1 UNK         0.0600 
    242 H242       -8.0277  -22.8837  -51.9711 H         1 UNK         0.3800 
    243 H243       -6.9112  -22.2527  -50.7969 H         1 UNK         0.3800 
    244 H244       -4.4291  -21.8716  -51.8224 H         1 UNK         0.0800 
    245 H245       -4.2190  -21.0973  -53.3622 H         1 UNK         0.0800 
    246 H246       -4.1789  -20.2459  -49.4740 H         1 UNK         0.0800 
    247 H247       -3.0532  -21.5144  -49.8752 H         1 UNK         0.0800 
@<TRIPOS>BOND
     1    1    2 1    
     2    1  127 1    
     3    1  128 1    
     4    1  129 1    
     5    2    3 2    
     6    2    4 am   BACKBONE|DICT|INTERRES
     7    4    5 1    
     8    4  130 1    
     9    5    6 1    
    10    5   65 1    
    11    5  131 1    
    12    6    7 1    
    13    6  132 1    
    14    6  133 1    
    15    7    8 1    
    16    8    9 1    
    17    8  134 1    
    18    8  135 1    
    19    9   10 ar   
    20    9   14 ar   
    21   10   11 ar   
    22   10  136 1    
    23   11   12 ar   
    24   11  126 1    
    25   12   13 ar   
    26   12  137 1    
    27   13   14 ar   
    28   13   15 1    
    29   14  138 1    
    30   15   16 1    
    31   15  139 1    
    32   15  140 1    
    33   16   17 1    
    34   17   18 1    
    35   17  141 1    
    36   17  142 1    
    37   18   19 1    
    38   18   67 1    
    39   18  143 1    
    40   19   20 am   BACKBONE|DICT|INTERRES
    41   19  144 1    
    42   20   21 2    
    43   20   22 1    
    44   22   23 1    
    45   22   24 1    
    46   22  145 1    
    47   23  146 1    
    48   23  147 1    
    49   23  148 1    
    50   24   25 am   BACKBONE|DICT|INTERRES
    51   24  149 1    
    52   25   26 2    
    53   25   27 1    
    54   27   28 1    
    55   27   29 1    
    56   27  150 1    
    57   28  151 1    
    58   28  152 1    
    59   28  153 1    
    60   29   30 am   BACKBONE|DICT|INTERRES
    61   29  154 1    
    62   30   31 2    
    63   30   32 1    
    64   32   33 1    
    65   32   34 1    
    66   32  155 1    
    67   33  156 1    
    68   33  157 1    
    69   33  158 1    
    70   34   35 am   BACKBONE|DICT|INTERRES
    71   34  159 1    
    72   35   36 2    
    73   35   37 1    
    74   37   38 1    
    75   37   39 1    
    76   37  160 1    
    77   38  161 1    
    78   38  162 1    
    79   38  163 1    
    80   39   40 am   BACKBONE|DICT|INTERRES
    81   39  164 1    
    82   40   41 2    
    83   40   42 1    
    84   42   43 1    
    85   42   44 1    
    86   42  165 1    
    87   43  166 1    
    88   43  167 1    
    89   43  168 1    
    90   44   45 am   BACKBONE|DICT|INTERRES
    91   44  169 1    
    92   45   46 2    
    93   45   47 1    
    94   47   48 1    
    95   47   49 1    
    96   47  170 1    
    97   48  171 1    
    98   48  172 1    
    99   48  173 1    
   100   49   50 am   BACKBONE|DICT|INTERRES
   101   49  174 1    
   102   50   51 2    
   103   50   52 1    
   104   52   53 1    
   105   52   54 1    
   106   52  175 1    
   107   53  176 1    
   108   53  177 1    
   109   53  178 1    
   110   54   55 am   BACKBONE|DICT|INTERRES
   111   54  179 1    
   112   55   56 2    
   113   55   57 1    
   114   57   58 1    
   115   57   59 1    
   116   57  180 1    
   117   58  181 1    
   118   58  182 1    
   119   58  183 1    
   120   59   60 am   BACKBONE|DICT|INTERRES
   121   59  184 1    
   122   60   61 2    
   123   60   62 1    
   124   62   63 1    
   125   62   64 1    
   126   62  185 1    
   127   63  186 1    
   128   63  187 1    
   129   63  188 1    
   130   64   65 am   BACKBONE|DICT|INTERRES
   131   64  189 1    
   132   65   66 2    
   133   67   68 2    
   134   67   69 am   BACKBONE|DICT|INTERRES
   135   69   70 1    
   136   69  190 1    
   137   70   71 1    
   138   70   72 1    
   139   70  191 1    
   140   71  192 1    
   141   71  193 1    
   142   71  194 1    
   143   72   73 2    
   144   72   74 am   BACKBONE|DICT|INTERRES
   145   74   75 1    
   146   74  195 1    
   147   75   76 1    
   148   75   77 1    
   149   75  196 1    
   150   76  197 1    
   151   76  198 1    
   152   76  199 1    
   153   77   78 2    
   154   77   79 am   BACKBONE|DICT|INTERRES
   155   79   80 1    
   156   79  200 1    
   157   80   81 1    
   158   80   82 1    
   159   80  201 1    
   160   81  202 1    
   161   81  203 1    
   162   81  204 1    
   163   82   83 2    
   164   82   84 am   BACKBONE|DICT|INTERRES
   165   84   85 1    
   166   84  205 1    
   167   85   86 1    
   168   85   87 1    
   169   85  206 1    
   170   86  207 1    
   171   86  208 1    
   172   86  209 1    
   173   87   88 2    
   174   87   89 am   BACKBONE|DICT|INTERRES
   175   89   90 1    
   176   89  210 1    
   177   90   91 1    
   178   90   92 1    
   179   90  211 1    
   180   91  212 1    
   181   91  213 1    
   182   91  214 1    
   183   92   93 2    
   184   92   94 am   BACKBONE|DICT|INTERRES
   185   94   95 1    
   186   94  215 1    
   187   95   96 1    
   188   95   97 1    
   189   95  216 1    
   190   96  217 1    
   191   96  218 1    
   192   96  219 1    
   193   97   98 2    
   194   97   99 am   BACKBONE|DICT|INTERRES
   195   99  100 1    
   196   99  220 1    
   197  100  101 1    
   198  100  102 1    
   199  100  221 1    
   200  101  222 1    
   201  101  223 1    
   202  101  224 1    
   203  102  103 2    
   204  102  104 am   BACKBONE|DICT|INTERRES
   205  104  105 1    
   206  104  225 1    
   207  105  106 1    
   208  105  107 1    
   209  105  226 1    
   210  106  227 1    
   211  106  228 1    
   212  106  229 1    
   213  107  108 2    
   214  107  109 am   BACKBONE|DICT|INTERRES
   215  109  110 1    
   216  109  230 1    
   217  110  111 1    
   218  110  112 1    
   219  110  231 1    
   220  111  232 1    
   221  111  233 1    
   222  111  234 1    
   223  112  113 2    
   224  112  114 am   BACKBONE|DICT|INTERRES
   225  114  115 1    
   226  114  235 1    
   227  115  116 1    
   228  115  117 1    
   229  115  236 1    
   230  116  237 1    
   231  116  238 1    
   232  116  239 1    
   233  117  118 2    
   234  117  119 am   BACKBONE|DICT|INTERRES
   235  119  120 1    
   236  119  240 1    
   237  120  121 1    
   238  120  124 1    
   239  120  241 1    
   240  121  122 am   BACKBONE|DICT|INTERRES
   241  121  123 2    
   242  122  242 1    
   243  122  243 1    
   244  124  125 1    
   245  124  244 1    
   246  124  245 1    
   247  125  126 1    
   248  126  246 1    
   249  126  247 1    
@<TRIPOS>SUBSTRUCTURE
     1 UNK         1 GROUP             0       ****    0 ROOT    
