@<TRIPOS>MOLECULE
3R540
247   249    1
SMALL
USER_CHARGES


@<TRIPOS>ATOM
      1 CA         -1.9258  -11.6902  -47.1688 C.3       0 UNK        -0.1800 
      2 C          -0.8021  -12.6369  -46.7758 C.2       0 UNK         0.5000 
      3 O          -0.4568  -12.7203  -45.5954 O.2       0 UNK        -0.5000 
      4 N          -0.2399  -13.3666  -47.7491 N.am      1 UNK        -0.5000 
      5 CA          0.8599  -14.3276  -47.5854 C.3       1 UNK         0.1400 
      6 C6          1.6307  -14.5297  -48.9149 C.3       23 UNK        -0.0398 
      7 S7          3.3606  -15.0493  -48.6412 S.3       23 UNK        -0.2404 
      8 C8          3.7255  -15.9788  -50.1652 C.3       23 UNK        -0.0205 
      9 C9          2.9358  -17.2761  -50.2491 C.ar      23 UNK        -0.0193 
     10 C10         1.8305  -17.3748  -51.0986 C.ar      23 UNK        -0.1150 
     11 C11         1.0801  -18.5519  -51.1566 C.ar      23 UNK        -0.0193 
     12 C12         1.4571  -19.6468  -50.3734 C.ar      23 UNK        -0.1150 
     13 C13         2.5598  -19.5580  -49.5148 C.ar      23 UNK        -0.0193 
     14 C14         3.3008  -18.3741  -49.4658 C.ar      23 UNK        -0.1150 
     15 C15         2.9316  -20.7271  -48.6123 C.3       23 UNK        -0.0205 
     16 S16         2.5040  -20.4216  -46.8627 S.3       23 UNK        -0.2404 
     17 C17         0.6982  -20.1949  -46.9670 C.3       23 UNK        -0.0398 
     18 CA         -0.0632  -21.5342  -46.8390 C.3       11 UNK         0.1400 
     19 N          -0.0787  -22.0522  -45.4675 N.am      11 UNK        -0.5000 
     20 C          -0.4877  -23.2854  -45.1295 C.2       10 UNK         0.5000 
     21 O          -0.8502  -24.1275  -45.9483 O.2       10 UNK        -0.5000 
     22 CA         -0.5559  -23.6340  -43.6291 C.3       10 UNK         0.1400 
     23 CB          0.7765  -24.2353  -43.1591 C.3       10 UNK        -0.1800 
     24 N          -0.8901  -22.4927  -42.7799 N.am      10 UNK        -0.5000 
     25 C          -1.9907  -21.7349  -42.8860 C.2       9 UNK         0.5000 
     26 O          -2.9206  -21.9867  -43.6534 O.2       9 UNK        -0.5000 
     27 CA         -2.0259  -20.4438  -42.0410 C.3       9 UNK         0.1400 
     28 CB         -2.8951  -20.6454  -40.7915 C.3       9 UNK        -0.1800 
     29 N          -0.7037  -19.9460  -41.6320 N.am      9 UNK        -0.5000 
     30 C           0.2947  -19.6188  -42.4645 C.2       8 UNK         0.5000 
     31 O           0.2245  -19.7350  -43.6909 O.2       8 UNK        -0.5000 
     32 CA          1.6026  -19.1389  -41.8219 C.3       8 UNK         0.1400 
     33 CB          2.3289  -20.2987  -41.1158 C.3       8 UNK        -0.1800 
     34 N           2.4584  -18.5896  -42.8678 N.am      8 UNK        -0.5000 
     35 C           3.4075  -17.6665  -42.6929 C.2       7 UNK         0.5000 
     36 O           3.7217  -17.2206  -41.5862 O.2       7 UNK        -0.5000 
     37 CA          4.1426  -17.1879  -43.9606 C.3       7 UNK         0.1400 
     38 CB          3.1884  -16.8930  -45.1302 C.3       7 UNK        -0.1800 
     39 N           4.8829  -15.9665  -43.6681 N.am      7 UNK        -0.5000 
     40 C           6.1573  -15.7170  -43.9894 C.2       6 UNK         0.5000 
     41 O           6.8772  -16.5137  -44.5932 O.2       6 UNK        -0.5000 
     42 CA          6.7325  -14.3407  -43.5870 C.3       6 UNK         0.1400 
     43 CB          6.8833  -13.4417  -44.8247 C.3       6 UNK        -0.1800 
     44 N           5.9158  -13.6347  -42.5979 N.am      6 UNK        -0.5000 
     45 C           5.8046  -13.9740  -41.3068 C.2       5 UNK         0.5000 
     46 O           6.4852  -14.8516  -40.7746 O.2       5 UNK        -0.5000 
     47 CA          4.7504  -13.2198  -40.4686 C.3       5 UNK         0.1400 
     48 CB          5.4345  -12.2405  -39.5015 C.3       5 UNK        -0.1800 
     49 N           3.7426  -12.4855  -41.2458 N.am      5 UNK        -0.5000 
     50 C           2.8391  -13.0323  -42.0705 C.2       4 UNK         0.5000 
     51 O           2.8163  -14.2271  -42.3706 O.2       4 UNK        -0.5000 
     52 CA          1.8268  -12.0647  -42.7105 C.3       4 UNK         0.1400 
     53 CB          2.3281  -11.6135  -44.0915 C.3       4 UNK        -0.1800 
     54 N           0.5061  -12.6729  -42.8648 N.am      4 UNK        -0.5000 
     55 C          -0.2866  -13.0758  -41.8606 C.2       3 UNK         0.5000 
     56 O          -0.0280  -12.9011  -40.6689 O.2       3 UNK        -0.5000 
     57 CA         -1.5890  -13.7967  -42.2560 C.3       3 UNK         0.1400 
     58 CB         -2.7002  -12.7789  -42.5566 C.3       3 UNK        -0.1800 
     59 N          -1.4025  -14.6590  -43.4226 N.am      3 UNK        -0.5000 
     60 C          -0.8154  -15.8655  -43.3935 C.2       2 UNK         0.5000 
     61 O          -0.4631  -16.4297  -42.3591 O.2       2 UNK        -0.5000 
     62 CA         -0.5492  -16.5288  -44.7540 C.3       2 UNK         0.1400 
     63 CB         -1.7981  -17.2739  -45.2585 C.3       2 UNK        -0.1800 
     64 N          -0.1139  -15.5004  -45.6930 N.am      2 UNK        -0.5000 
     65 C           0.3763  -15.6441  -46.9256 C.2       1 UNK         0.5000 
     66 O           0.4413  -16.7201  -47.5186 O.2       1 UNK        -0.5000 
     67 C          -1.4864  -21.3927  -47.4044 C.2       11 UNK         0.5000 
     68 O          -1.7298  -21.8183  -48.5332 O.2       11 UNK        -0.5000 
     69 N          -2.4067  -20.8367  -46.6028 N.am      12 UNK        -0.5000 
     70 CA         -3.8175  -20.6921  -46.9640 C.3       12 UNK         0.1400 
     71 CB         -4.5373  -19.7989  -45.9430 C.3       12 UNK        -0.1800 
     72 C          -4.5236  -22.0506  -47.0997 C.2       12 UNK         0.5000 
     73 O          -5.3262  -22.2220  -48.0170 O.2       12 UNK        -0.5000 
     74 N          -4.1823  -22.9962  -46.2134 N.am      13 UNK        -0.5000 
     75 CA         -4.6588  -24.3771  -46.2527 C.3       13 UNK         0.1400 
     76 CB         -4.2494  -25.1024  -44.9620 C.3       13 UNK        -0.1800 
     77 C          -4.1619  -25.1342  -47.4984 C.2       13 UNK         0.5000 
     78 O          -4.9748  -25.7339  -48.2021 O.2       13 UNK        -0.5000 
     79 N          -2.8497  -25.0664  -47.7694 N.am      14 UNK        -0.5000 
     80 CA         -2.1965  -25.7144  -48.9102 C.3       14 UNK         0.1400 
     81 CB         -0.6715  -25.5869  -48.7753 C.3       14 UNK        -0.1800 
     82 C          -2.6606  -25.1629  -50.2688 C.2       14 UNK         0.5000 
     83 O          -2.8686  -25.9401  -51.2009 O.2       14 UNK        -0.5000 
     84 N          -2.8405  -23.8380  -50.3494 N.am      15 UNK        -0.5000 
     85 CA         -3.3449  -23.1481  -51.5355 C.3       15 UNK         0.1400 
     86 CB         -2.8634  -21.6899  -51.5098 C.3       15 UNK        -0.1800 
     87 C          -4.8768  -23.2161  -51.6770 C.2       15 UNK         0.5000 
     88 O          -5.3934  -22.7441  -52.6894 O.2       15 UNK        -0.5000 
     89 N          -5.5797  -23.7768  -50.6818 N.am      16 UNK        -0.5000 
     90 CA         -7.0362  -23.9372  -50.6008 C.3       16 UNK         0.1400 
     91 CB         -7.5213  -24.9681  -51.6407 C.3       16 UNK        -0.1800 
     92 C          -7.7828  -22.5900  -50.6960 C.2       16 UNK         0.5000 
     93 O          -8.7265  -22.4563  -51.4754 O.2       16 UNK        -0.5000 
     94 N          -7.3074  -21.6071  -49.9177 N.am      17 UNK        -0.5000 
     95 CA         -7.7291  -20.2016  -49.9093 C.3       17 UNK         0.1400 
     96 CB         -9.1875  -20.0583  -49.4255 C.3       17 UNK        -0.1800 
     97 C          -7.4549  -19.4964  -51.2566 C.2       17 UNK         0.5000 
     98 O          -8.2827  -18.7174  -51.7321 O.2       17 UNK        -0.5000 
     99 N          -6.2780  -19.7900  -51.8292 N.am      18 UNK        -0.5000 
    100 CA        -5.7504  -19.2987  -53.1058 C.3       18 UNK         0.1400 
    101 CB        -5.4952  -17.7777  -53.0577 C.3       18 UNK        -0.1800 
    102 C         -6.6021  -19.7453  -54.3128 C.2       18 UNK         0.5000 
    103 O         -7.0180  -18.9148  -55.1239 O.2       18 UNK        -0.5000 
    104 N         -6.8543  -21.0571  -54.3931 N.am      19 UNK        -0.5000 
    105 CA        -7.6109  -21.7069  -55.4639 C.3       19 UNK         0.1400 
    106 CB        -8.9746  -22.1620  -54.9223 C.3       19 UNK        -0.1800 
    107 C         -6.8462  -22.8973  -56.0673 C.2       19 UNK         0.5000 
    108 O         -6.9128  -23.0983  -57.2806 O.2       19 UNK        -0.5000 
    109 N         -6.1311  -23.6628  -55.2309 N.am      20 UNK        -0.5000 
    110 CA        -5.3129  -24.8065  -55.6456 C.3       20 UNK         0.1400 
    111 CB        -5.2879  -25.8462  -54.5140 C.3       20 UNK        -0.1800 
    112 C         -3.8794  -24.3908  -56.0248 C.2       20 UNK         0.5000 
    113 O         -3.2019  -25.1305  -56.7395 O.2       20 UNK        -0.5000 
    114 N         -3.4476  -23.2181  -55.5521 N.am      21 UNK        -0.5000 
    115 CA        -2.1765  -22.5752  -55.8571 C.3       21 UNK         0.1400 
    116 CB        -1.0779  -23.1044  -54.9173 C.3       21 UNK        -0.1800 
    117 C         -2.3677  -21.0619  -55.6927 C.2       21 UNK         0.5000 
    118 O         -3.3711  -20.6358  -55.1163 O.2       21 UNK        -0.5000 
    119 N         -1.4019  -20.2809  -56.1892 N.am      22 UNK        -0.5000 
    120 CA        -1.3456  -18.8098  -56.0745 C.3       22 UNK         0.1400 
    121 C         -2.4545  -18.0420  -56.8619 C.2       22 UNK         0.5000 
    122 N         -3.1418  -18.6632  -57.8124 N.am      22 UNK        -0.7600 
    123 O         -2.6745  -16.8547  -56.6377 O.2       22 UNK        -0.5000 
    124 C124       -1.2183  -18.3224  -54.6019 C.3       23 UNK        -0.0398 
    125 S125        0.2609  -18.9846  -53.7622 S.3       23 UNK        -0.2404 
    126 C126       -0.1600  -18.6119  -52.0343 C.3       23 UNK        -0.0205 
    127 H127       -2.1341  -11.7289  -48.2382 H         1 UNK         0.0600 
    128 H128       -1.6582  -10.6659  -46.9099 H         1 UNK         0.0600 
    129 H129       -2.8386  -11.9508  -46.6332 H         1 UNK         0.0600 
    130 H130       -0.5993  -13.2781  -48.6890 H         1 UNK         0.3000 
    131 H131        1.5606  -13.8745  -46.8799 H         1 UNK         0.0600 
    132 H132        1.6783  -13.5893  -49.4657 H         1 UNK         0.0800 
    133 H133        1.1062  -15.2269  -49.5675 H         1 UNK         0.0800 
    134 H134        4.7921  -16.2061  -50.1917 H         1 UNK         0.0800 
    135 H135        3.5271  -15.3459  -51.0316 H         1 UNK         0.0800 
    136 H136        1.5388  -16.5270  -51.7024 H         1 UNK         0.1150 
    137 H137        0.8721  -20.5555  -50.4077 H         1 UNK         0.1150 
    138 H138        4.1443  -18.2967  -48.7940 H         1 UNK         0.1150 
    139 H139        2.4426  -21.6430  -48.9476 H         1 UNK         0.0800 
    140 H140        4.0043  -20.9105  -48.6859 H         1 UNK         0.0800 
    141 H141        0.4549  -19.6850  -47.8982 H         1 UNK         0.0800 
    142 H142        0.3910  -19.4950  -46.1910 H         1 UNK         0.0800 
    143 H143        0.4427  -22.2739  -47.4635 H         1 UNK         0.0600 
    144 H144        0.1679  -21.3903  -44.7381 H         1 UNK         0.3000 
    145 H145       -1.3375  -24.3840  -43.4967 H         1 UNK         0.0600 
    146 H146        0.7179  -24.5636  -42.1213 H         1 UNK         0.0600 
    147 H147        1.5930  -23.5162  -43.2394 H         1 UNK         0.0600 
    148 H148        1.0451  -25.1057  -43.7594 H         1 UNK         0.0600 
    149 H149       -0.1846  -22.2026  -42.1200 H         1 UNK         0.3000 
    150 H150       -2.4891  -19.6714  -42.6578 H         1 UNK         0.0600 
    151 H151       -2.4636  -21.3858  -40.1168 H         1 UNK         0.0600 
    152 H152       -3.8945  -20.9899  -41.0615 H         1 UNK         0.0600 
    153 H153       -3.0137  -19.7136  -40.2382 H         1 UNK         0.0600 
    154 H154       -0.5636  -19.8278  -40.6389 H         1 UNK         0.3000 
    155 H155        1.3578  -18.3560  -41.1009 H         1 UNK         0.0600 
    156 H156        1.7173  -20.7246  -40.3198 H         1 UNK         0.0600 
    157 H157        3.2595  -19.9619  -40.6587 H         1 UNK         0.0600 
    158 H158        2.5717  -21.1025  -41.8121 H         1 UNK         0.0600 
    159 H159        2.2100  -18.8963  -43.8002 H         1 UNK         0.3000 
    160 H160        4.8241  -17.9893  -44.2523 H         1 UNK         0.0600 
    161 H161        2.4973  -16.0913  -44.8715 H         1 UNK         0.0600 
    162 H162        2.6023  -17.7651  -45.4184 H         1 UNK         0.0600 
    163 H163        3.7422  -16.5802  -46.0151 H         1 UNK         0.0600 
    164 H164        4.3684  -15.2889  -43.1128 H         1 UNK         0.3000 
    165 H165        7.7237  -14.5097  -43.1613 H         1 UNK         0.0600 
    166 H166        7.3434  -12.4876  -44.5669 H         1 UNK         0.0600 
    167 H167        7.5174  -13.9137  -45.5764 H         1 UNK         0.0600 
    168 H168        5.9191  -13.2360  -45.2918 H         1 UNK         0.0600 
    169 H169        5.3228  -12.8960  -42.9452 H         1 UNK         0.3000 
    170 H170        4.2228  -13.9708  -39.8768 H         1 UNK         0.0600 
    171 H171        5.9584  -11.4477  -40.0370 H         1 UNK         0.0600 
    172 H172        4.7107  -11.7744  -38.8326 H         1 UNK         0.0600 
    173 H173        6.1668  -12.7532  -38.8761 H         1 UNK         0.0600 
    174 H174        3.7048  -11.4895  -41.0823 H         1 UNK         0.3000 
    175 H175        1.7196  -11.1869  -42.0702 H         1 UNK         0.0600 
    176 H176        2.4378  -12.4575  -44.7740 H         1 UNK         0.0600 
    177 H177        1.6386  -10.9033  -44.5486 H         1 UNK         0.0600 
    178 H178        3.2986  -11.1216  -44.0169 H         1 UNK         0.0600 
    179 H179        0.1866  -12.8053  -43.8190 H         1 UNK         0.3000 
    180 H180       -1.9067  -14.4098  -41.4098 H         1 UNK         0.0600 
    181 H181       -3.6427  -13.2790  -42.7800 H         1 UNK         0.0600 
    182 H182       -2.4470  -12.1441  -43.4070 H         1 UNK         0.0600 
    183 H183       -2.8737  -12.1267  -41.6997 H         1 UNK         0.0600 
    184 H184       -1.6793  -14.2667  -44.3112 H         1 UNK         0.3000 
    185 H185        0.2651  -17.2429  -44.6297 H         1 UNK         0.0600 
    186 H186       -2.6246  -16.5896  -45.4521 H         1 UNK         0.0600 
    187 H187       -1.5948  -17.8224  -46.1778 H         1 UNK         0.0600 
    188 H188       -2.1361  -18.0021  -44.5207 H         1 UNK         0.0600 
    189 H189       -0.1318  -14.5501  -45.3353 H         1 UNK         0.3000 
    190 H190       -2.1430  -20.5678  -45.6663 H         1 UNK         0.3000 
    191 H191       -3.8671  -20.1988  -47.9372 H         1 UNK         0.0600 
    192 H192       -4.1208  -18.7927  -45.9376 H         1 UNK         0.0600 
    193 H193       -5.5965  -19.7055  -46.1864 H         1 UNK         0.0600 
    194 H194       -4.4685  -20.1988  -44.9313 H         1 UNK         0.0600 
    195 H195       -3.5522  -22.7466  -45.4586 H         1 UNK         0.3000 
    196 H196       -5.7499  -24.3505  -46.2918 H         1 UNK         0.0600 
    197 H197       -4.6272  -24.5836  -44.0807 H         1 UNK         0.0600 
    198 H198       -3.1667  -25.1783  -44.8664 H         1 UNK         0.0600 
    199 H199       -4.6513  -26.1161  -44.9416 H         1 UNK         0.0600 
    200 H200       -2.2352  -24.5750  -47.1243 H         1 UNK         0.3000 
    201 H201       -2.4519  -26.7756  -48.8801 H         1 UNK         0.0600 
    202 H202       -0.3153  -26.0688  -47.8647 H         1 UNK         0.0600 
    203 H203       -0.3568  -24.5427  -48.7469 H         1 UNK         0.0600 
    204 H204       -0.1619  -26.0622  -49.6143 H         1 UNK         0.0600 
    205 H205       -2.5972  -23.2526  -49.5546 H         1 UNK         0.3000 
    206 H206       -2.9250  -23.6261  -52.4221 H         1 UNK         0.0600 
    207 H207       -1.7808  -21.6379  -51.3934 H         1 UNK         0.0600 
    208 H208       -3.3160  -21.1285  -50.6917 H         1 UNK         0.0600 
    209 H209       -3.1076  -21.1799  -52.4406 H         1 UNK         0.0600 
    210 H210       -5.0670  -24.1175  -49.8789 H         1 UNK         0.3000 
    211 H211       -7.2466  -24.3396  -49.6089 H         1 UNK         0.0600 
    212 H212       -7.4069  -24.6004  -52.6603 H         1 UNK         0.0600 
    213 H213       -8.5769  -25.2001  -51.4956 H         1 UNK         0.0600 
    214 H214       -6.9681  -25.9035  -51.5565 H         1 UNK         0.0600 
    215 H215       -6.5411  -21.8392  -49.2857 H         1 UNK         0.3000 
    216 H216       -7.0945  -19.7033  -49.1749 H         1 UNK         0.0600 
    217 H217       -9.4481  -19.0093  -49.2809 H         1 UNK         0.0600 
    218 H218       -9.3373  -20.5635  -48.4714 H         1 UNK         0.0600 
    219 H219       -9.8975  -20.4736  -50.1410 H         1 UNK         0.0600 
    220 H220       -5.7095  -20.4859  -51.3705 H         1 UNK         0.3000 
    221 H221       -4.7802  -19.7758  -53.2232 H         1 UNK         0.0600 
    222 H222       -6.4222  -17.2103  -52.9726 H         1 UNK         0.0600 
    223 H223       -4.8585  -17.5116  -52.2141 H         1 UNK         0.0600 
    224 H224       -4.9886  -17.4427  -53.9639 H         1 UNK         0.0600 
    225 H225       -6.4470  -21.6629  -53.6851 H         1 UNK         0.3000 
    226 H226       -7.7888  -21.0016  -56.2782 H         1 UNK         0.0600 
    227 H227       -9.5342  -21.3231  -54.5081 H         1 UNK         0.0600 
    228 H228       -9.5822  -22.6027  -55.7136 H         1 UNK         0.0600 
    229 H229       -8.8652  -22.9104  -54.1369 H         1 UNK         0.0600 
    230 H230       -6.0768  -23.4127  -54.2478 H         1 UNK         0.3000 
    231 H231       -5.7629  -25.2774  -56.5221 H         1 UNK         0.0600 
    232 H232       -4.7157  -26.7272  -54.8072 H         1 UNK         0.0600 
    233 H233       -4.8315  -25.4503  -53.6068 H         1 UNK         0.0600 
    234 H234       -6.2942  -26.1834  -54.2662 H         1 UNK         0.0600 
    235 H235       -4.0831  -22.6322  -55.0237 H         1 UNK         0.3000 
    236 H236       -1.9071  -22.7789  -56.8955 H         1 UNK         0.0600 
    237 H237       -1.2654  -22.8259  -53.8805 H         1 UNK         0.0600 
    238 H238       -1.0004  -24.1906  -54.9652 H         1 UNK         0.0600 
    239 H239       -0.1030  -22.6986  -55.1893 H         1 UNK         0.0600 
    240 H240       -0.6148  -20.7102  -56.6539 H         1 UNK         0.3000 
    241 H241       -0.4231  -18.5222  -56.5800 H         1 UNK         0.0600 
    242 H242       -3.8486  -18.1582  -58.3235 H         1 UNK         0.3800 
    243 H243       -2.9698  -19.6337  -58.0191 H         1 UNK         0.3800 
    244 H244       -2.1092  -18.5870  -54.0306 H         1 UNK         0.0800 
    245 H245       -1.1455  -17.2343  -54.5627 H         1 UNK         0.0800 
    246 H246       -0.8594  -19.3614  -51.6621 H         1 UNK         0.0800 
    247 H247       -0.6811  -17.6546  -51.9808 H         1 UNK         0.0800 
@<TRIPOS>BOND
     1    1    2 1    
     2    1  127 1    
     3    1  128 1    
     4    1  129 1    
     5    2    3 2    
     6    2    4 am   BACKBONE|DICT|INTERRES
     7    4    5 1    
     8    4  130 1    
     9    5    6 1    
    10    5   65 1    
    11    5  131 1    
    12    6    7 1    
    13    6  132 1    
    14    6  133 1    
    15    7    8 1    
    16    8    9 1    
    17    8  134 1    
    18    8  135 1    
    19    9   10 ar   
    20    9   14 ar   
    21   10   11 ar   
    22   10  136 1    
    23   11   12 ar   
    24   11  126 1    
    25   12   13 ar   
    26   12  137 1    
    27   13   14 ar   
    28   13   15 1    
    29   14  138 1    
    30   15   16 1    
    31   15  139 1    
    32   15  140 1    
    33   16   17 1    
    34   17   18 1    
    35   17  141 1    
    36   17  142 1    
    37   18   19 1    
    38   18   67 1    
    39   18  143 1    
    40   19   20 am   BACKBONE|DICT|INTERRES
    41   19  144 1    
    42   20   21 2    
    43   20   22 1    
    44   22   23 1    
    45   22   24 1    
    46   22  145 1    
    47   23  146 1    
    48   23  147 1    
    49   23  148 1    
    50   24   25 am   BACKBONE|DICT|INTERRES
    51   24  149 1    
    52   25   26 2    
    53   25   27 1    
    54   27   28 1    
    55   27   29 1    
    56   27  150 1    
    57   28  151 1    
    58   28  152 1    
    59   28  153 1    
    60   29   30 am   BACKBONE|DICT|INTERRES
    61   29  154 1    
    62   30   31 2    
    63   30   32 1    
    64   32   33 1    
    65   32   34 1    
    66   32  155 1    
    67   33  156 1    
    68   33  157 1    
    69   33  158 1    
    70   34   35 am   BACKBONE|DICT|INTERRES
    71   34  159 1    
    72   35   36 2    
    73   35   37 1    
    74   37   38 1    
    75   37   39 1    
    76   37  160 1    
    77   38  161 1    
    78   38  162 1    
    79   38  163 1    
    80   39   40 am   BACKBONE|DICT|INTERRES
    81   39  164 1    
    82   40   41 2    
    83   40   42 1    
    84   42   43 1    
    85   42   44 1    
    86   42  165 1    
    87   43  166 1    
    88   43  167 1    
    89   43  168 1    
    90   44   45 am   BACKBONE|DICT|INTERRES
    91   44  169 1    
    92   45   46 2    
    93   45   47 1    
    94   47   48 1    
    95   47   49 1    
    96   47  170 1    
    97   48  171 1    
    98   48  172 1    
    99   48  173 1    
   100   49   50 am   BACKBONE|DICT|INTERRES
   101   49  174 1    
   102   50   51 2    
   103   50   52 1    
   104   52   53 1    
   105   52   54 1    
   106   52  175 1    
   107   53  176 1    
   108   53  177 1    
   109   53  178 1    
   110   54   55 am   BACKBONE|DICT|INTERRES
   111   54  179 1    
   112   55   56 2    
   113   55   57 1    
   114   57   58 1    
   115   57   59 1    
   116   57  180 1    
   117   58  181 1    
   118   58  182 1    
   119   58  183 1    
   120   59   60 am   BACKBONE|DICT|INTERRES
   121   59  184 1    
   122   60   61 2    
   123   60   62 1    
   124   62   63 1    
   125   62   64 1    
   126   62  185 1    
   127   63  186 1    
   128   63  187 1    
   129   63  188 1    
   130   64   65 am   BACKBONE|DICT|INTERRES
   131   64  189 1    
   132   65   66 2    
   133   67   68 2    
   134   67   69 am   BACKBONE|DICT|INTERRES
   135   69   70 1    
   136   69  190 1    
   137   70   71 1    
   138   70   72 1    
   139   70  191 1    
   140   71  192 1    
   141   71  193 1    
   142   71  194 1    
   143   72   73 2    
   144   72   74 am   BACKBONE|DICT|INTERRES
   145   74   75 1    
   146   74  195 1    
   147   75   76 1    
   148   75   77 1    
   149   75  196 1    
   150   76  197 1    
   151   76  198 1    
   152   76  199 1    
   153   77   78 2    
   154   77   79 am   BACKBONE|DICT|INTERRES
   155   79   80 1    
   156   79  200 1    
   157   80   81 1    
   158   80   82 1    
   159   80  201 1    
   160   81  202 1    
   161   81  203 1    
   162   81  204 1    
   163   82   83 2    
   164   82   84 am   BACKBONE|DICT|INTERRES
   165   84   85 1    
   166   84  205 1    
   167   85   86 1    
   168   85   87 1    
   169   85  206 1    
   170   86  207 1    
   171   86  208 1    
   172   86  209 1    
   173   87   88 2    
   174   87   89 am   BACKBONE|DICT|INTERRES
   175   89   90 1    
   176   89  210 1    
   177   90   91 1    
   178   90   92 1    
   179   90  211 1    
   180   91  212 1    
   181   91  213 1    
   182   91  214 1    
   183   92   93 2    
   184   92   94 am   BACKBONE|DICT|INTERRES
   185   94   95 1    
   186   94  215 1    
   187   95   96 1    
   188   95   97 1    
   189   95  216 1    
   190   96  217 1    
   191   96  218 1    
   192   96  219 1    
   193   97   98 2    
   194   97   99 am   BACKBONE|DICT|INTERRES
   195   99  100 1    
   196   99  220 1    
   197  100  101 1    
   198  100  102 1    
   199  100  221 1    
   200  101  222 1    
   201  101  223 1    
   202  101  224 1    
   203  102  103 2    
   204  102  104 am   BACKBONE|DICT|INTERRES
   205  104  105 1    
   206  104  225 1    
   207  105  106 1    
   208  105  107 1    
   209  105  226 1    
   210  106  227 1    
   211  106  228 1    
   212  106  229 1    
   213  107  108 2    
   214  107  109 am   BACKBONE|DICT|INTERRES
   215  109  110 1    
   216  109  230 1    
   217  110  111 1    
   218  110  112 1    
   219  110  231 1    
   220  111  232 1    
   221  111  233 1    
   222  111  234 1    
   223  112  113 2    
   224  112  114 am   BACKBONE|DICT|INTERRES
   225  114  115 1    
   226  114  235 1    
   227  115  116 1    
   228  115  117 1    
   229  115  236 1    
   230  116  237 1    
   231  116  238 1    
   232  116  239 1    
   233  117  118 2    
   234  117  119 am   BACKBONE|DICT|INTERRES
   235  119  120 1    
   236  119  240 1    
   237  120  121 1    
   238  120  124 1    
   239  120  241 1    
   240  121  122 am   BACKBONE|DICT|INTERRES
   241  121  123 2    
   242  122  242 1    
   243  122  243 1    
   244  124  125 1    
   245  124  244 1    
   246  124  245 1    
   247  125  126 1    
   248  126  246 1    
   249  126  247 1    
@<TRIPOS>SUBSTRUCTURE
     1 UNK         1 GROUP             0       ****    0 ROOT    
