@<TRIPOS>MOLECULE
3R540
247   249    1
SMALL
USER_CHARGES


@<TRIPOS>ATOM
      1 CA         -5.6831  -15.5041  -50.5756 C.3       0 UNK        -0.1800 
      2 C          -4.3396  -15.0075  -50.0623 C.2       0 UNK         0.5000 
      3 O          -3.4215  -14.7981  -50.8544 O.2       0 UNK        -0.5000 
      4 N          -4.2200  -14.8125  -48.7458 N.am      1 UNK        -0.5000 
      5 CA         -3.0233  -14.3149  -48.0709 C.3       1 UNK         0.1400 
      6 C6         -1.9222  -15.4041  -47.9469 C.3       23 UNK        -0.0398 
      7 S7         -0.2417  -14.7151  -48.0967 S.3       23 UNK        -0.2404 
      8 C8          0.2260  -15.2715  -49.7702 C.3       23 UNK        -0.0205 
      9 C9          0.9221  -16.6317  -49.8165 C.ar      23 UNK        -0.0193 
     10 C10         1.9833  -16.8159  -50.7101 C.ar      23 UNK        -0.1150 
     11 C11         2.6198  -18.0568  -50.8274 C.ar      23 UNK        -0.0193 
     12 C12         2.2084  -19.1080  -50.0077 C.ar      23 UNK        -0.1150 
     13 C13         1.1515  -18.9466  -49.1120 C.ar      23 UNK        -0.0193 
     14 C14         0.5074  -17.7103  -49.0230 C.ar      23 UNK        -0.1150 
     15 C15         0.7135  -20.1192  -48.2525 C.3       23 UNK        -0.0205 
     16 S16        -0.3948  -21.2128  -49.1831 S.3       23 UNK        -0.2404 
     17 C17         0.2371  -22.8645  -48.7082 C.3       23 UNK        -0.0398 
     18 CA         -0.2944  -23.4488  -47.3665 C.3       11 UNK         0.1400 
     19 N           0.4657  -22.9651  -46.2136 N.am      11 UNK        -0.5000 
     20 C           1.5835  -23.5375  -45.7531 C.2       10 UNK         0.5000 
     21 O           2.1151  -24.5141  -46.2858 O.2       10 UNK        -0.5000 
     22 CA          2.2033  -22.9057  -44.4915 C.3       10 UNK         0.1400 
     23 CB          3.1617  -23.8588  -43.7477 C.3       10 UNK        -0.1800 
     24 N           2.8637  -21.6284  -44.7715 N.am      10 UNK        -0.5000 
     25 C           3.9039  -21.3929  -45.5861 C.2       9 UNK         0.5000 
     26 O           4.4535  -22.2510  -46.2769 O.2       9 UNK        -0.5000 
     27 CA          4.4500  -19.9525  -45.6193 C.3       9 UNK         0.1400 
     28 CB          3.8028  -19.1413  -46.7485 C.3       9 UNK        -0.1800 
     29 N           4.2735  -19.2386  -44.3545 N.am      9 UNK        -0.5000 
     30 C           5.0199  -19.4446  -43.2613 C.2       8 UNK         0.5000 
     31 O           5.9363  -20.2657  -43.2020 O.2       8 UNK        -0.5000 
     32 CA          4.6902  -18.5873  -42.0262 C.3       8 UNK         0.1400 
     33 CB          5.2355  -17.1600  -42.1896 C.3       8 UNK        -0.1800 
     34 N           3.2569  -18.5346  -41.7407 N.am      8 UNK        -0.5000 
     35 C           2.5346  -19.5740  -41.2995 C.2       7 UNK         0.5000 
     36 O           3.0066  -20.6862  -41.0620 O.2       7 UNK        -0.5000 
     37 CA          1.0268  -19.3372  -41.0994 C.3       7 UNK         0.1400 
     38 CB          0.7560  -18.6748  -39.7402 C.3       7 UNK        -0.1800 
     39 N           0.4327  -18.5294  -42.1637 N.am      7 UNK        -0.5000 
     40 C           0.3247  -18.9211  -43.4412 C.2       6 UNK         0.5000 
     41 O           0.6818  -20.0225  -43.8563 O.2       6 UNK        -0.5000 
     42 CA         -0.2524  -17.8973  -44.4304 C.3       6 UNK         0.1400 
     43 CB         -1.7794  -17.8344  -44.2881 C.3       6 UNK        -0.1800 
     44 N           0.3111  -16.5612  -44.2524 N.am      6 UNK        -0.5000 
     45 C           1.6090  -16.2433  -44.3519 C.2       5 UNK         0.5000 
     46 O           2.4926  -17.0449  -44.6496 O.2       5 UNK        -0.5000 
     47 CA          1.9926  -14.7997  -43.9884 C.3       5 UNK         0.1400 
     48 CB          1.7069  -13.8362  -45.1484 C.3       5 UNK        -0.1800 
     49 N           1.3003  -14.3388  -42.7860 N.am      5 UNK        -0.5000 
     50 C           1.5292  -14.8094  -41.5524 C.2       4 UNK         0.5000 
     51 O           2.3694  -15.6705  -41.2916 O.2       4 UNK        -0.5000 
     52 CA          0.6421  -14.2440  -40.4290 C.3       4 UNK         0.1400 
     53 CB          1.1768  -12.8884  -39.9436 C.3       4 UNK        -0.1800 
     54 N          -0.7553  -14.0975  -40.8406 N.am      4 UNK        -0.5000 
     55 C          -1.5730  -15.1282  -41.0947 C.2       3 UNK         0.5000 
     56 O          -1.2373  -16.3084  -40.9922 O.2       3 UNK        -0.5000 
     57 CA         -2.9920  -14.7809  -41.5846 C.3       3 UNK         0.1400 
     58 CB         -3.9077  -14.4496  -40.3966 C.3       3 UNK        -0.1800 
     59 N          -3.0437  -13.6854  -42.5608 N.am      3 UNK        -0.5000 
     60 C          -2.4097  -13.6895  -43.7404 C.2       2 UNK         0.5000 
     61 O          -1.6136  -14.5644  -44.0821 O.2       2 UNK        -0.5000 
     62 CA         -2.6830  -12.5134  -44.6946 C.3       2 UNK         0.1400 
     63 CB         -1.6796  -11.3778  -44.4420 C.3       2 UNK        -0.1800 
     64 N          -2.5681  -12.9490  -46.0881 N.am      2 UNK        -0.5000 
     65 C          -3.4407  -13.7618  -46.6966 C.2       1 UNK         0.5000 
     66 O          -4.5244  -14.0951  -46.2062 O.2       1 UNK        -0.5000 
     67 C          -1.8001  -23.2174  -47.1356 C.2       11 UNK         0.5000 
     68 O          -2.1888  -22.5469  -46.1740 O.2       11 UNK        -0.5000 
     69 N          -2.6186  -23.7362  -48.0600 N.am      12 UNK        -0.5000 
     70 CA         -4.0653  -23.5327  -48.1581 C.3       12 UNK         0.1400 
     71 CB         -4.6372  -24.6347  -49.0676 C.3       12 UNK        -0.1800 
     72 C          -4.4219  -22.1117  -48.6532 C.2       12 UNK         0.5000 
     73 O          -5.0676  -21.9529  -49.6924 O.2       12 UNK        -0.5000 
     74 N          -3.9719  -21.0959  -47.9073 N.am      13 UNK        -0.5000 
     75 CA         -4.1108  -19.6758  -48.2273 C.3       13 UNK         0.1400 
     76 CB         -3.3461  -18.8418  -47.1949 C.3       13 UNK        -0.1800 
     77 C          -5.5717  -19.2119  -48.3207 C.2       13 UNK         0.5000 
     78 O          -5.9342  -18.5435  -49.2856 O.2       13 UNK        -0.5000 
     79 N          -6.3839  -19.5958  -47.3296 N.am      14 UNK        -0.5000 
     80 CA         -7.8163  -19.3014  -47.2987 C.3       14 UNK         0.1400 
     81 CB         -8.2687  -19.1578  -45.8373 C.3       14 UNK        -0.1800 
     82 C          -8.6385  -20.3894  -48.0100 C.2       14 UNK         0.5000 
     83 O          -9.6431  -20.0734  -48.6474 O.2       14 UNK        -0.5000 
     84 N          -8.2089  -21.6513  -47.8715 N.am      15 UNK        -0.5000 
     85 CA         -8.9504  -22.8292  -48.3224 C.3       15 UNK         0.1400 
     86 CB         -8.4478  -24.0620  -47.5552 C.3       15 UNK        -0.1800 
     87 C          -8.8956  -23.0662  -49.8424 C.2       15 UNK         0.5000 
     88 O          -9.8604  -23.5968  -50.3947 O.2       15 UNK        -0.5000 
     89 N          -7.7874  -22.6838  -50.4899 N.am      16 UNK        -0.5000 
     90 CA         -7.5533  -22.8918  -51.9208 C.3       16 UNK         0.1400 
     91 CB         -6.6718  -24.1390  -52.1192 C.3       16 UNK        -0.1800 
     92 C          -6.9412  -21.6492  -52.5885 C.2       16 UNK         0.5000 
     93 O          -6.3187  -21.7787  -53.6415 O.2       16 UNK        -0.5000 
     94 N          -7.0962  -20.4686  -51.9695 N.am      17 UNK        -0.5000 
     95 CA         -6.6015  -19.1661  -52.4420 C.3       17 UNK         0.1400 
     96 CB         -7.3832  -18.7198  -53.6957 C.3       17 UNK        -0.1800 
     97 C          -5.0681  -19.1195  -52.6516 C.2       17 UNK         0.5000 
     98 O          -4.5909  -18.3900  -53.5218 O.2       17 UNK        -0.5000 
     99 N          -4.3340  -19.9244  -51.8673 N.am      18 UNK        -0.5000 
    100 CA        -2.8844  -20.1462  -51.9112 C.3       18 UNK         0.1400 
    101 CB        -2.0944  -18.8398  -51.6714 C.3       18 UNK        -0.1800 
    102 C         -2.3949  -20.8987  -53.1665 C.2       18 UNK         0.5000 
    103 O         -1.1856  -20.9429  -53.4031 O.2       18 UNK        -0.5000 
    104 N         -3.3033  -21.5262  -53.9336 N.am      19 UNK        -0.5000 
    105 CA        -2.9940  -22.2865  -55.1554 C.3       19 UNK         0.1400 
    106 CB        -4.2988  -22.6952  -55.8536 C.3       19 UNK        -0.1800 
    107 C         -2.1030  -23.5242  -54.9237 C.2       19 UNK         0.5000 
    108 O         -1.4838  -24.0152  -55.8676 O.2       19 UNK        -0.5000 
    109 N         -2.0341  -23.9857  -53.6686 N.am      20 UNK        -0.5000 
    110 CA        -1.1355  -25.0357  -53.1940 C.3       20 UNK         0.1400 
    111 CB        -1.5951  -25.4626  -51.7903 C.3       20 UNK        -0.1800 
    112 C          0.3534  -24.6230  -53.1735 C.2       20 UNK         0.5000 
    113 O          1.2086  -25.5046  -53.0789 O.2       20 UNK        -0.5000 
    114 N          0.6433  -23.3161  -53.2443 N.am      21 UNK        -0.5000 
    115 CA         1.9899  -22.7562  -53.2132 C.3       21 UNK         0.1400 
    116 CB         2.2933  -22.2528  -51.7915 C.3       21 UNK        -0.1800 
    117 C          2.1252  -21.6752  -54.2986 C.2       21 UNK         0.5000 
    118 O          2.4592  -22.0095  -55.4361 O.2       21 UNK        -0.5000 
    119 N          1.8833  -20.4083  -53.9362 N.am      22 UNK        -0.5000 
    120 CA         1.9742  -19.2408  -54.8316 C.3       22 UNK         0.1400 
    121 C          0.9056  -19.1999  -55.9629 C.2       22 UNK         0.5000 
    122 N         -0.2514  -19.8264  -55.8071 N.am      22 UNK        -0.7600 
    123 O          1.1349  -18.5869  -57.0020 O.2       22 UNK        -0.5000 
    124 C124        1.9611  -17.9142  -54.0262 C.3       23 UNK        -0.0398 
    125 S125        3.6097  -17.4240  -53.4108 S.3       23 UNK        -0.2404 
    126 C126        3.7610  -18.2952  -51.8132 C.3       23 UNK        -0.0205 
    127 H127       -5.5398  -16.3957  -51.1850 H         1 UNK         0.0600 
    128 H128       -6.1569  -14.7406  -51.1924 H         1 UNK         0.0600 
    129 H129       -6.3609  -15.7567  -49.7597 H         1 UNK         0.0600 
    130 H130       -5.0069  -14.9519  -48.1230 H         1 UNK         0.3000 
    131 H131       -2.6503  -13.4730  -48.6588 H         1 UNK         0.0600 
    132 H132       -1.9873  -15.9412  -47.0002 H         1 UNK         0.0800 
    133 H133       -2.0520  -16.1643  -48.7176 H         1 UNK         0.0800 
    134 H134        0.8853  -14.5089  -50.1874 H         1 UNK         0.0800 
    135 H135       -0.6516  -15.2950  -50.4177 H         1 UNK         0.0800 
    136 H136        2.3046  -15.9919  -51.3311 H         1 UNK         0.1150 
    137 H137        2.7102  -20.0624  -50.0645 H         1 UNK         0.1150 
    138 H138       -0.3127  -17.5982  -48.3315 H         1 UNK         0.1150 
    139 H139        1.5909  -20.6715  -47.9154 H         1 UNK         0.0800 
    140 H140        0.2052  -19.7741  -47.3518 H         1 UNK         0.0800 
    141 H141        1.3279  -22.8528  -48.7145 H         1 UNK         0.0800 
    142 H142       -0.0322  -23.5407  -49.5199 H         1 UNK         0.0800 
    143 H143       -0.1781  -24.5341  -47.4101 H         1 UNK         0.0600 
    144 H144        0.0378  -22.2001  -45.7070 H         1 UNK         0.3000 
    145 H145        1.3799  -22.6848  -43.8107 H         1 UNK         0.0600 
    146 H146        3.5299  -23.4033  -42.8281 H         1 UNK         0.0600 
    147 H147        2.6536  -24.7836  -43.4725 H         1 UNK         0.0600 
    148 H148        4.0256  -24.1295  -44.3554 H         1 UNK         0.0600 
    149 H149        2.4355  -20.8329  -44.3090 H         1 UNK         0.3000 
    150 H150        5.5198  -20.0155  -45.8299 H         1 UNK         0.0600 
    151 H151        3.9159  -19.6471  -47.7076 H         1 UNK         0.0600 
    152 H152        4.2652  -18.1587  -46.8434 H         1 UNK         0.0600 
    153 H153        2.7386  -18.9886  -46.5699 H         1 UNK         0.0600 
    154 H154        3.5625  -18.5095  -44.3406 H         1 UNK         0.3000 
    155 H155        5.1885  -19.0392  -41.1659 H         1 UNK         0.0600 
    156 H156        6.3064  -17.1714  -42.3955 H         1 UNK         0.0600 
    157 H157        5.0850  -16.5754  -41.2818 H         1 UNK         0.0600 
    158 H158        4.7480  -16.6328  -43.0101 H         1 UNK         0.0600 
    159 H159        2.8003  -17.6380  -41.8675 H         1 UNK         0.3000 
    160 H160        0.5348  -20.3122  -41.1053 H         1 UNK         0.0600 
    161 H161        1.1864  -17.6742  -39.6867 H         1 UNK         0.0600 
    162 H162        1.1835  -19.2617  -38.9263 H         1 UNK         0.0600 
    163 H163       -0.3141  -18.5881  -39.5513 H         1 UNK         0.0600 
    164 H164        0.0669  -17.6215  -41.8960 H         1 UNK         0.3000 
    165 H165       -0.0096  -18.2284  -45.4416 H         1 UNK         0.0600 
    166 H166       -2.0779  -17.4574  -43.3103 H         1 UNK         0.0600 
    167 H167       -2.2239  -17.1845  -45.0400 H         1 UNK         0.0600 
    168 H168       -2.2201  -18.8252  -44.4006 H         1 UNK         0.0600 
    169 H169       -0.3544  -15.8174  -44.0466 H         1 UNK         0.3000 
    170 H170        3.0665  -14.7811  -43.7911 H         1 UNK         0.0600 
    171 H171        2.2111  -14.1624  -46.0591 H         1 UNK         0.0600 
    172 H172        0.6413  -13.7750  -45.3678 H         1 UNK         0.0600 
    173 H173        2.0606  -12.8303  -44.9225 H         1 UNK         0.0600 
    174 H174        0.5481  -13.6802  -42.9198 H         1 UNK         0.3000 
    175 H175        0.6800  -14.9443  -39.5916 H         1 UNK         0.0600 
    176 H176        2.2143  -12.9732  -39.6174 H         1 UNK         0.0600 
    177 H177        1.1405  -12.1336  -40.7301 H         1 UNK         0.0600 
    178 H178        0.6001  -12.5182  -39.0958 H         1 UNK         0.0600 
    179 H179       -1.1081  -13.1589  -40.9551 H         1 UNK         0.3000 
    180 H180       -3.3895  -15.6708  -42.0768 H         1 UNK         0.0600 
    181 H181       -3.9013  -15.2559  -39.6617 H         1 UNK         0.0600 
    182 H182       -3.5936  -13.5381  -39.8867 H         1 UNK         0.0600 
    183 H183       -4.9402  -14.3155  -40.7195 H         1 UNK         0.0600 
    184 H184       -3.6671  -12.9213  -42.3434 H         1 UNK         0.3000 
    185 H185       -3.6947  -12.1402  -44.5225 H         1 UNK         0.0600 
    186 H186       -1.7519  -11.0117  -43.4171 H         1 UNK         0.0600 
    187 H187       -0.6510  -11.7032  -44.6025 H         1 UNK         0.0600 
    188 H188       -1.8693  -10.5310  -45.1018 H         1 UNK         0.0600 
    189 H189       -1.6834  -12.7660  -46.5394 H         1 UNK         0.3000 
    190 H190       -2.2094  -24.2613  -48.8176 H         1 UNK         0.3000 
    191 H191       -4.5071  -23.6494  -47.1665 H         1 UNK         0.0600 
    192 H192       -4.1642  -24.6266  -50.0497 H         1 UNK         0.0600 
    193 H193       -5.7089  -24.5148  -49.2216 H         1 UNK         0.0600 
    194 H194       -4.4829  -25.6222  -48.6327 H         1 UNK         0.0600 
    195 H195       -3.4110  -21.3316  -47.0940 H         1 UNK         0.3000 
    196 H196       -3.6475  -19.5079  -49.1978 H         1 UNK         0.0600 
    197 H197       -3.4636  -17.7772  -47.3949 H         1 UNK         0.0600 
    198 H198       -2.2797  -19.0670  -47.2140 H         1 UNK         0.0600 
    199 H199       -3.7161  -19.0270  -46.1867 H         1 UNK         0.0600 
    200 H200       -6.0009  -20.1295  -46.5634 H         1 UNK         0.3000 
    201 H201       -8.0097  -18.3515  -47.8024 H         1 UNK         0.0600 
    202 H202       -9.3323  -18.9226  -45.7795 H         1 UNK         0.0600 
    203 H203       -8.1036  -20.0740  -45.2690 H         1 UNK         0.0600 
    204 H204       -7.7313  -18.3518  -45.3373 H         1 UNK         0.0600 
    205 H205       -7.3709  -21.8196  -47.3379 H         1 UNK         0.3000 
    206 H206      -10.0017  -22.6876  -48.0613 H         1 UNK         0.0600 
    207 H207       -8.6421  -23.9639  -46.4870 H         1 UNK         0.0600 
    208 H208       -8.9525  -24.9684  -47.8926 H         1 UNK         0.0600 
    209 H209       -7.3774  -24.2135  -47.6850 H         1 UNK         0.0600 
    210 H210       -7.0105  -22.2828  -49.9738 H         1 UNK         0.3000 
    211 H211       -8.5015  -23.0620  -52.4342 H         1 UNK         0.0600 
    212 H212       -6.5986  -24.4038  -53.1747 H         1 UNK         0.0600 
    213 H213       -7.0799  -25.0039  -51.5963 H         1 UNK         0.0600 
    214 H214       -5.6587  -23.9696  -51.7558 H         1 UNK         0.0600 
    215 H215       -7.6103  -20.4540  -51.1003 H         1 UNK         0.3000 
    216 H216       -6.8283  -18.4465  -51.6567 H         1 UNK         0.0600 
    217 H217       -7.1339  -17.6935  -53.9679 H         1 UNK         0.0600 
    218 H218       -8.4588  -18.7547  -53.5230 H         1 UNK         0.0600 
    219 H219       -7.1606  -19.3497  -54.5575 H         1 UNK         0.0600 
    220 H220       -4.8330  -20.5023  -51.1989 H         1 UNK         0.3000 
    221 H221       -2.6717  -20.8125  -51.0754 H         1 UNK         0.0600 
    222 H222       -2.1468  -18.1698  -52.5296 H         1 UNK         0.0600 
    223 H223       -2.4636  -18.2959  -50.8026 H         1 UNK         0.0600 
    224 H224       -1.0390  -19.0501  -51.4927 H         1 UNK         0.0600 
    225 H225       -4.2866  -21.4583  -53.6906 H         1 UNK         0.3000 
    226 H226       -2.4507  -21.6210  -55.8276 H         1 UNK         0.0600 
    227 H227       -4.0959  -23.1921  -56.8031 H         1 UNK         0.0600 
    228 H228       -4.8816  -23.3848  -55.2419 H         1 UNK         0.0600 
    229 H229       -4.9210  -21.8264  -56.0694 H         1 UNK         0.0600 
    230 H230       -2.5931  -23.5200  -52.9702 H         1 UNK         0.3000 
    231 H231       -1.2274  -25.8936  -53.8633 H         1 UNK         0.0600 
    232 H232       -2.6127  -25.8533  -51.8111 H         1 UNK         0.0600 
    233 H233       -1.5702  -24.6274  -51.0903 H         1 UNK         0.0600 
    234 H234       -0.9554  -26.2496  -51.3886 H         1 UNK         0.0600 
    235 H235       -0.1092  -22.6431  -53.3499 H         1 UNK         0.3000 
    236 H236        2.7264  -23.5243  -53.4586 H         1 UNK         0.0600 
    237 H237        2.3230  -23.0822  -51.0851 H         1 UNK         0.0600 
    238 H238        3.2636  -21.7576  -51.7474 H         1 UNK         0.0600 
    239 H239        1.5336  -21.5531  -51.4448 H         1 UNK         0.0600 
    240 H240        1.5671  -20.2259  -52.9957 H         1 UNK         0.3000 
    241 H241        2.9328  -19.3125  -55.3495 H         1 UNK         0.0600 
    242 H242       -0.4736  -20.2886  -54.9283 H         1 UNK         0.3800 
    243 H243       -0.9326  -19.7879  -56.5469 H         1 UNK         0.3800 
    244 H244        1.6334  -17.0805  -54.6504 H         1 UNK         0.0800 
    245 H245        1.2368  -17.9592  -53.2122 H         1 UNK         0.0800 
    246 H246        4.6930  -17.9866  -51.3386 H         1 UNK         0.0800 
    247 H247        3.8643  -19.3604  -52.0226 H         1 UNK         0.0800 
@<TRIPOS>BOND
     1    1    2 1    
     2    1  127 1    
     3    1  128 1    
     4    1  129 1    
     5    2    3 2    
     6    2    4 am   BACKBONE|DICT|INTERRES
     7    4    5 1    
     8    4  130 1    
     9    5    6 1    
    10    5   65 1    
    11    5  131 1    
    12    6    7 1    
    13    6  132 1    
    14    6  133 1    
    15    7    8 1    
    16    8    9 1    
    17    8  134 1    
    18    8  135 1    
    19    9   10 ar   
    20    9   14 ar   
    21   10   11 ar   
    22   10  136 1    
    23   11   12 ar   
    24   11  126 1    
    25   12   13 ar   
    26   12  137 1    
    27   13   14 ar   
    28   13   15 1    
    29   14  138 1    
    30   15   16 1    
    31   15  139 1    
    32   15  140 1    
    33   16   17 1    
    34   17   18 1    
    35   17  141 1    
    36   17  142 1    
    37   18   19 1    
    38   18   67 1    
    39   18  143 1    
    40   19   20 am   BACKBONE|DICT|INTERRES
    41   19  144 1    
    42   20   21 2    
    43   20   22 1    
    44   22   23 1    
    45   22   24 1    
    46   22  145 1    
    47   23  146 1    
    48   23  147 1    
    49   23  148 1    
    50   24   25 am   BACKBONE|DICT|INTERRES
    51   24  149 1    
    52   25   26 2    
    53   25   27 1    
    54   27   28 1    
    55   27   29 1    
    56   27  150 1    
    57   28  151 1    
    58   28  152 1    
    59   28  153 1    
    60   29   30 am   BACKBONE|DICT|INTERRES
    61   29  154 1    
    62   30   31 2    
    63   30   32 1    
    64   32   33 1    
    65   32   34 1    
    66   32  155 1    
    67   33  156 1    
    68   33  157 1    
    69   33  158 1    
    70   34   35 am   BACKBONE|DICT|INTERRES
    71   34  159 1    
    72   35   36 2    
    73   35   37 1    
    74   37   38 1    
    75   37   39 1    
    76   37  160 1    
    77   38  161 1    
    78   38  162 1    
    79   38  163 1    
    80   39   40 am   BACKBONE|DICT|INTERRES
    81   39  164 1    
    82   40   41 2    
    83   40   42 1    
    84   42   43 1    
    85   42   44 1    
    86   42  165 1    
    87   43  166 1    
    88   43  167 1    
    89   43  168 1    
    90   44   45 am   BACKBONE|DICT|INTERRES
    91   44  169 1    
    92   45   46 2    
    93   45   47 1    
    94   47   48 1    
    95   47   49 1    
    96   47  170 1    
    97   48  171 1    
    98   48  172 1    
    99   48  173 1    
   100   49   50 am   BACKBONE|DICT|INTERRES
   101   49  174 1    
   102   50   51 2    
   103   50   52 1    
   104   52   53 1    
   105   52   54 1    
   106   52  175 1    
   107   53  176 1    
   108   53  177 1    
   109   53  178 1    
   110   54   55 am   BACKBONE|DICT|INTERRES
   111   54  179 1    
   112   55   56 2    
   113   55   57 1    
   114   57   58 1    
   115   57   59 1    
   116   57  180 1    
   117   58  181 1    
   118   58  182 1    
   119   58  183 1    
   120   59   60 am   BACKBONE|DICT|INTERRES
   121   59  184 1    
   122   60   61 2    
   123   60   62 1    
   124   62   63 1    
   125   62   64 1    
   126   62  185 1    
   127   63  186 1    
   128   63  187 1    
   129   63  188 1    
   130   64   65 am   BACKBONE|DICT|INTERRES
   131   64  189 1    
   132   65   66 2    
   133   67   68 2    
   134   67   69 am   BACKBONE|DICT|INTERRES
   135   69   70 1    
   136   69  190 1    
   137   70   71 1    
   138   70   72 1    
   139   70  191 1    
   140   71  192 1    
   141   71  193 1    
   142   71  194 1    
   143   72   73 2    
   144   72   74 am   BACKBONE|DICT|INTERRES
   145   74   75 1    
   146   74  195 1    
   147   75   76 1    
   148   75   77 1    
   149   75  196 1    
   150   76  197 1    
   151   76  198 1    
   152   76  199 1    
   153   77   78 2    
   154   77   79 am   BACKBONE|DICT|INTERRES
   155   79   80 1    
   156   79  200 1    
   157   80   81 1    
   158   80   82 1    
   159   80  201 1    
   160   81  202 1    
   161   81  203 1    
   162   81  204 1    
   163   82   83 2    
   164   82   84 am   BACKBONE|DICT|INTERRES
   165   84   85 1    
   166   84  205 1    
   167   85   86 1    
   168   85   87 1    
   169   85  206 1    
   170   86  207 1    
   171   86  208 1    
   172   86  209 1    
   173   87   88 2    
   174   87   89 am   BACKBONE|DICT|INTERRES
   175   89   90 1    
   176   89  210 1    
   177   90   91 1    
   178   90   92 1    
   179   90  211 1    
   180   91  212 1    
   181   91  213 1    
   182   91  214 1    
   183   92   93 2    
   184   92   94 am   BACKBONE|DICT|INTERRES
   185   94   95 1    
   186   94  215 1    
   187   95   96 1    
   188   95   97 1    
   189   95  216 1    
   190   96  217 1    
   191   96  218 1    
   192   96  219 1    
   193   97   98 2    
   194   97   99 am   BACKBONE|DICT|INTERRES
   195   99  100 1    
   196   99  220 1    
   197  100  101 1    
   198  100  102 1    
   199  100  221 1    
   200  101  222 1    
   201  101  223 1    
   202  101  224 1    
   203  102  103 2    
   204  102  104 am   BACKBONE|DICT|INTERRES
   205  104  105 1    
   206  104  225 1    
   207  105  106 1    
   208  105  107 1    
   209  105  226 1    
   210  106  227 1    
   211  106  228 1    
   212  106  229 1    
   213  107  108 2    
   214  107  109 am   BACKBONE|DICT|INTERRES
   215  109  110 1    
   216  109  230 1    
   217  110  111 1    
   218  110  112 1    
   219  110  231 1    
   220  111  232 1    
   221  111  233 1    
   222  111  234 1    
   223  112  113 2    
   224  112  114 am   BACKBONE|DICT|INTERRES
   225  114  115 1    
   226  114  235 1    
   227  115  116 1    
   228  115  117 1    
   229  115  236 1    
   230  116  237 1    
   231  116  238 1    
   232  116  239 1    
   233  117  118 2    
   234  117  119 am   BACKBONE|DICT|INTERRES
   235  119  120 1    
   236  119  240 1    
   237  120  121 1    
   238  120  124 1    
   239  120  241 1    
   240  121  122 am   BACKBONE|DICT|INTERRES
   241  121  123 2    
   242  122  242 1    
   243  122  243 1    
   244  124  125 1    
   245  124  244 1    
   246  124  245 1    
   247  125  126 1    
   248  126  246 1    
   249  126  247 1    
@<TRIPOS>SUBSTRUCTURE
     1 UNK         1 GROUP             0       ****    0 ROOT    
