@<TRIPOS>MOLECULE
3R540
247   249    1
SMALL
USER_CHARGES


@<TRIPOS>ATOM
      1 CA          6.9055  -11.2422  -46.5470 C.3       0 UNK        -0.1800 
      2 C           5.5460  -11.5009  -45.9161 C.2       0 UNK         0.5000 
      3 O           5.4100  -11.4002  -44.6966 O.2       0 UNK        -0.5000 
      4 N           4.5361  -11.8127  -46.7404 N.am      1 UNK        -0.5000 
      5 CA          3.1641  -12.1646  -46.3403 C.3       1 UNK         0.1400 
      6 C6          2.2976  -12.5646  -47.5613 C.3       23 UNK        -0.0398 
      7 S7          2.8578  -14.1155  -48.3412 S.3       23 UNK        -0.2404 
      8 C8          1.3702  -14.5630  -49.3094 C.3       23 UNK        -0.0205 
      9 C9          1.2897  -16.0113  -49.8018 C.ar      23 UNK        -0.0193 
     10 C10         0.1935  -16.3753  -50.5909 C.ar      23 UNK        -0.1150 
     11 C11         0.0473  -17.6753  -51.0847 C.ar      23 UNK        -0.0193 
     12 C12         1.0296  -18.6256  -50.7733 C.ar      23 UNK        -0.1150 
     13 C13         2.1284  -18.2898  -49.9768 C.ar      23 UNK        -0.0193 
     14 C14         2.2507  -16.9837  -49.4949 C.ar      23 UNK        -0.1150 
     15 C15         3.2094  -19.3190  -49.6552 C.3       23 UNK        -0.0205 
     16 S16         2.5625  -20.9345  -49.1058 S.3       23 UNK        -0.2404 
     17 C17         1.6880  -20.4785  -47.5711 C.3       23 UNK        -0.0398 
     18 CA          0.4977  -21.4118  -47.2425 C.3       11 UNK         0.1400 
     19 N           0.0229  -21.1961  -45.8737 N.am      11 UNK        -0.5000 
     20 C          -0.8929  -21.9411  -45.2405 C.2       10 UNK         0.5000 
     21 O          -1.4351  -22.9284  -45.7351 O.2       10 UNK        -0.5000 
     22 CA         -1.3085  -21.4749  -43.8334 C.3       10 UNK         0.1400 
     23 CB         -0.2384  -21.8367  -42.7925 C.3       10 UNK        -0.1800 
     24 N          -1.5854  -20.0390  -43.7791 N.am      10 UNK        -0.5000 
     25 C          -2.5710  -19.4355  -44.4595 C.2       9 UNK         0.5000 
     26 O          -3.3766  -20.0327  -45.1733 O.2       9 UNK        -0.5000 
     27 CA         -2.6426  -17.9018  -44.3639 C.3       9 UNK         0.1400 
     28 CB         -3.3036  -17.4661  -43.0479 C.3       9 UNK        -0.1800 
     29 N          -1.3322  -17.2646  -44.4929 N.am      9 UNK        -0.5000 
     30 C          -0.5479  -17.3512  -45.5774 C.2       8 UNK         0.5000 
     31 O          -0.8521  -17.9621  -46.5992 O.2       8 UNK        -0.5000 
     32 CA          0.8324  -16.6846  -45.4875 C.3       8 UNK         0.1400 
     33 CB          0.6955  -15.1615  -45.5847 C.3       8 UNK        -0.1800 
     34 N           1.5408  -17.0316  -44.2579 N.am      8 UNK        -0.5000 
     35 C           1.8685  -18.2748  -43.8795 C.2       7 UNK         0.5000 
     36 O           1.6600  -19.2786  -44.5584 O.2       7 UNK        -0.5000 
     37 CA          2.4841  -18.4265  -42.4801 C.3       7 UNK         0.1400 
     38 CB          3.9875  -18.1173  -42.5082 C.3       7 UNK        -0.1800 
     39 N           1.8176  -17.5676  -41.5017 N.am      7 UNK        -0.5000 
     40 C           0.5604  -17.7489  -41.0725 C.2       6 UNK         0.5000 
     41 O          -0.1592  -18.6823  -41.4309 O.2       6 UNK        -0.5000 
     42 CA          0.0058  -16.6812  -40.1124 C.3       6 UNK         0.1400 
     43 CB          0.4950  -16.9302  -38.6779 C.3       6 UNK        -0.1800 
     44 N           0.3658  -15.3220  -40.5224 N.am      6 UNK        -0.5000 
     45 C          -0.1087  -14.7209  -41.6223 C.2       5 UNK         0.5000 
     46 O          -0.9170  -15.2448  -42.3884 O.2       5 UNK        -0.5000 
     47 CA          0.4330  -13.3144  -41.9394 C.3       5 UNK         0.1400 
     48 CB         -0.3901  -12.2387  -41.2164 C.3       5 UNK        -0.1800 
     49 N           1.8505  -13.1307  -41.6194 N.am      5 UNK        -0.5000 
     50 C           2.8634  -13.8232  -42.1557 C.2       4 UNK         0.5000 
     51 O           2.7041  -14.7810  -42.9134 O.2       4 UNK        -0.5000 
     52 CA          4.2839  -13.3503  -41.7891 C.3       4 UNK         0.1400 
     53 CB          5.3815  -14.1399  -42.5241 C.3       4 UNK        -0.1800 
     54 N           4.4627  -11.9300  -42.0851 N.am      4 UNK        -0.5000 
     55 C           4.1322  -10.9154  -41.2767 C.2       3 UNK         0.5000 
     56 O           3.5787  -11.0673  -40.1870 O.2       3 UNK        -0.5000 
     57 CA          4.4419   -9.5010  -41.7878 C.3       3 UNK         0.1400 
     58 CB          5.9569   -9.2397  -41.7942 C.3       3 UNK        -0.1800 
     59 N           3.9154   -9.3227  -43.1388 N.am      3 UNK        -0.5000 
     60 C           2.7699   -8.6939  -43.4351 C.2       2 UNK         0.5000 
     61 O           2.0514   -8.1470  -42.5975 O.2       2 UNK        -0.5000 
     62 CA          2.3494   -8.6649  -44.9188 C.3       2 UNK         0.1400 
     63 CB          2.8277   -7.3668  -45.5869 C.3       2 UNK        -0.1800 
     64 N           2.8523   -9.8063  -45.6848 N.am      2 UNK        -0.5000 
     65 C           2.4414  -11.0717  -45.5215 C.2       1 UNK         0.5000 
     66 O           1.5368  -11.3968  -44.7529 O.2       1 UNK        -0.5000 
     67 C          -0.6469  -21.2940  -48.2724 C.2       11 UNK         0.5000 
     68 O          -0.7859  -22.1695  -49.1284 O.2       11 UNK        -0.5000 
     69 N          -1.4743  -20.2481  -48.1349 N.am      12 UNK        -0.5000 
     70 CA         -2.6482  -20.0059  -48.9683 C.3       12 UNK         0.1400 
     71 CB         -3.2438  -18.6270  -48.6490 C.3       12 UNK        -0.1800 
     72 C          -3.7123  -21.1063  -48.8429 C.2       12 UNK         0.5000 
     73 O          -4.2626  -21.5168  -49.8601 O.2       12 UNK        -0.5000 
     74 N          -3.9654  -21.5834  -47.6163 N.am      13 UNK        -0.5000 
     75 CA         -4.8985  -22.6758  -47.3372 C.3       13 UNK         0.1400 
     76 CB         -5.1649  -22.7457  -45.8263 C.3       13 UNK        -0.1800 
     77 C          -4.4109  -24.0392  -47.8635 C.2       13 UNK         0.5000 
     78 O          -5.2228  -24.8335  -48.3387 O.2       13 UNK        -0.5000 
     79 N          -3.0988  -24.2897  -47.7646 N.am      14 UNK        -0.5000 
     80 CA         -2.4593  -25.5453  -48.1591 C.3       14 UNK         0.1400 
     81 CB         -1.0546  -25.6075  -47.5399 C.3       14 UNK        -0.1800 
     82 C          -2.3772  -25.7684  -49.6807 C.2       14 UNK         0.5000 
     83 O          -2.2161  -26.9168  -50.0966 O.2       14 UNK        -0.5000 
     84 N          -2.4647  -24.6890  -50.4733 N.am      15 UNK        -0.5000 
     85 CA         -2.3044  -24.6529  -51.9306 C.3       15 UNK         0.1400 
     86 CB         -2.6178  -23.2383  -52.4320 C.3       15 UNK        -0.1800 
     87 C          -3.1596  -25.6991  -52.6703 C.2       15 UNK         0.5000 
     88 O          -4.3838  -25.5574  -52.7383 O.2       15 UNK        -0.5000 
     89 N          -2.4940  -26.7626  -53.1471 N.am      16 UNK        -0.5000 
     90 CA         -3.0436  -27.9449  -53.8286 C.3       16 UNK         0.1400 
     91 CB         -3.5943  -27.5443  -55.2126 C.3       16 UNK        -0.1800 
     92 C          -4.0908  -28.7326  -53.0057 C.2       16 UNK         0.5000 
     93 O          -4.8408  -29.5226  -53.5806 O.2       16 UNK        -0.5000 
     94 N          -4.1595  -28.4678  -51.6904 N.am      17 UNK        -0.5000 
     95 CA         -5.2228  -28.8490  -50.7517 C.3       17 UNK         0.1400 
     96 CB         -5.2286  -30.3740  -50.5203 C.3       17 UNK        -0.1800 
     97 C          -6.6203  -28.2994  -51.1346 C.2       17 UNK         0.5000 
     98 O          -7.6288  -28.8053  -50.6391 O.2       17 UNK        -0.5000 
     99 N          -6.6587  -27.2823  -52.0065 N.am      18 UNK        -0.5000 
    100 CA        -7.8680  -26.6805  -52.5681 C.3       18 UNK         0.1400 
    101 CB        -7.7887  -26.7765  -54.1006 C.3       18 UNK        -0.1800 
    102 C         -8.0293  -25.2109  -52.1490 C.2       18 UNK         0.5000 
    103 O         -9.1438  -24.6900  -52.2058 O.2       18 UNK        -0.5000 
    104 N         -6.9199  -24.5588  -51.7731 N.am      19 UNK        -0.5000 
    105 CA        -6.7536  -23.1593  -51.3661 C.3       19 UNK         0.1400 
    106 CB        -7.6459  -22.7941  -50.1651 C.3       19 UNK        -0.1800 
    107 C         -6.9185  -22.1516  -52.5194 C.2       19 UNK         0.5000 
    108 O         -6.0741  -21.2730  -52.6937 O.2       19 UNK        -0.5000 
    109 N         -7.9704  -22.3271  -53.3289 N.am      20 UNK        -0.5000 
    110 CA        -8.2988  -21.5253  -54.5121 C.3       20 UNK         0.1400 
    111 CB        -9.6740  -21.9686  -55.0346 C.3       20 UNK        -0.1800 
    112 C         -7.2449  -21.5941  -55.6383 C.2       20 UNK         0.5000 
    113 O         -7.2576  -20.7485  -56.5331 O.2       20 UNK        -0.5000 
    114 N         -6.3523  -22.5906  -55.5721 N.am      21 UNK        -0.5000 
    115 CA        -5.2165  -22.7748  -56.4716 C.3       21 UNK         0.1400 
    116 CB        -4.6783  -24.2020  -56.2848 C.3       21 UNK        -0.1800 
    117 C         -4.0851  -21.7451  -56.2673 C.2       21 UNK         0.5000 
    118 O         -3.2570  -21.5946  -57.1671 O.2       21 UNK        -0.5000 
    119 N         -4.0394  -21.0790  -55.1030 N.am      22 UNK        -0.5000 
    120 CA        -3.0210  -20.0685  -54.7735 C.3       22 UNK         0.1400 
    121 C         -3.1555  -18.7581  -55.6003 C.2       22 UNK         0.5000 
    122 N         -2.0529  -18.0685  -55.8597 N.am      22 UNK        -0.7600 
    123 O         -4.2491  -18.3386  -55.9723 O.2       22 UNK        -0.5000 
    124 C124       -2.9712  -19.7736  -53.2492 C.3       23 UNK        -0.0398 
    125 S125       -1.2528  -19.6722  -52.6429 S.3       23 UNK        -0.2404 
    126 C126       -1.1909  -17.9916  -51.9314 C.3       23 UNK        -0.0205 
    127 H127        6.8779  -11.3543  -47.6311 H         1 UNK         0.0600 
    128 H128        7.2386  -10.2304  -46.3166 H         1 UNK         0.0600 
    129 H129        7.6402  -11.9428  -46.1504 H         1 UNK         0.0600 
    130 H130        4.7216  -11.8821  -47.7310 H         1 UNK         0.3000 
    131 H131        3.2496  -13.0272  -45.6767 H         1 UNK         0.0600 
    132 H132        1.2572  -12.6992  -47.2594 H         1 UNK         0.0800 
    133 H133        2.2954  -11.7718  -48.3114 H         1 UNK         0.0800 
    134 H134        0.4777  -14.3625  -48.7174 H         1 UNK         0.0800 
    135 H135        1.3186  -13.8970  -50.1720 H         1 UNK         0.0800 
    136 H136       -0.5585  -15.6343  -50.8249 H         1 UNK         0.1150 
    137 H137        0.9516  -19.6386  -51.1379 H         1 UNK         0.1150 
    138 H138        3.1063  -16.7350  -48.8854 H         1 UNK         0.1150 
    139 H139        3.8151  -19.4726  -50.5489 H         1 UNK         0.0800 
    140 H140        3.8860  -18.9411  -48.8870 H         1 UNK         0.0800 
    141 H141        1.3552  -19.4403  -47.6156 H         1 UNK         0.0800 
    142 H142        2.4239  -20.5228  -46.7677 H         1 UNK         0.0800 
    143 H143        0.8612  -22.4409  -47.2829 H         1 UNK         0.0600 
    144 H144        0.4407  -20.4126  -45.3765 H         1 UNK         0.3000 
    145 H145       -2.2282  -22.0008  -43.5689 H         1 UNK         0.0600 
    146 H146       -0.5654  -21.5763  -41.7857 H         1 UNK         0.0600 
    147 H147       -0.0316  -22.9075  -42.8016 H         1 UNK         0.0600 
    148 H148        0.7019  -21.3185  -42.9813 H         1 UNK         0.0600 
    149 H149       -0.9806  -19.4779  -43.1889 H         1 UNK         0.3000 
    150 H150       -3.2642  -17.5482  -45.1890 H         1 UNK         0.0600 
    151 H151       -4.2846  -17.9283  -42.9307 H         1 UNK         0.0600 
    152 H152       -3.4476  -16.3860  -43.0192 H         1 UNK         0.0600 
    153 H153       -2.7018  -17.7453  -42.1824 H         1 UNK         0.0600 
    154 H154       -1.0207  -16.7055  -43.7040 H         1 UNK         0.3000 
    155 H155        1.4332  -17.0317  -46.3308 H         1 UNK         0.0600 
    156 H156        0.1128  -14.7500  -44.7629 H         1 UNK         0.0600 
    157 H157        0.1952  -14.8742  -46.5079 H         1 UNK         0.0600 
    158 H158        1.6728  -14.6846  -45.5692 H         1 UNK         0.0600 
    159 H159        1.8073  -16.2561  -43.6561 H         1 UNK         0.3000 
    160 H160        2.3559  -19.4643  -42.1653 H         1 UNK         0.0600 
    161 H161        4.4331  -18.2197  -41.5187 H         1 UNK         0.0600 
    162 H162        4.1826  -17.1066  -42.8649 H         1 UNK         0.0600 
    163 H163        4.5112  -18.8039  -43.1744 H         1 UNK         0.0600 
    164 H164        2.3191  -16.7450  -41.2021 H         1 UNK         0.3000 
    165 H165       -1.0834  -16.7624  -40.1190 H         1 UNK         0.0600 
    166 H166        0.0432  -16.2251  -37.9799 H         1 UNK         0.0600 
    167 H167        0.2271  -17.9334  -38.3437 H         1 UNK         0.0600 
    168 H168        1.5785  -16.8355  -38.5969 H         1 UNK         0.0600 
    169 H169        1.0277  -14.8239  -39.9458 H         1 UNK         0.3000 
    170 H170        0.3203  -13.1566  -43.0131 H         1 UNK         0.0600 
    171 H171       -1.4511  -12.3347  -41.4513 H         1 UNK         0.0600 
    172 H172       -0.2843  -12.3101  -40.1333 H         1 UNK         0.0600 
    173 H173       -0.0805  -11.2381  -41.5197 H         1 UNK         0.0600 
    174 H174        2.0855  -12.3583  -41.0074 H         1 UNK         0.3000 
    175 H175        4.4169  -13.5148  -40.7179 H         1 UNK         0.0600 
    176 H176        6.3733  -13.7643  -42.2720 H         1 UNK         0.0600 
    177 H177        5.3576  -15.1932  -42.2466 H         1 UNK         0.0600 
    178 H178        5.2669  -14.0776  -43.6073 H         1 UNK         0.0600 
    179 H179        4.8661  -11.7186  -42.9957 H         1 UNK         0.3000 
    180 H180        3.9833   -8.7868  -41.1006 H         1 UNK         0.0600 
    181 H181        6.4838   -9.9090  -42.4755 H         1 UNK         0.0600 
    182 H182        6.3816   -9.3812  -40.7996 H         1 UNK         0.0600 
    183 H183        6.1758   -8.2160  -42.0984 H         1 UNK         0.0600 
    184 H184        4.4162   -9.7977  -43.8811 H         1 UNK         0.3000 
    185 H185        1.2580   -8.6853  -44.9530 H         1 UNK         0.0600 
    186 H186        2.4748   -7.2990  -46.6161 H         1 UNK         0.0600 
    187 H187        2.4488   -6.4921  -45.0566 H         1 UNK         0.0600 
    188 H188        3.9162   -7.2974  -45.5986 H         1 UNK         0.0600 
    189 H189        3.6001   -9.6244  -46.3383 H         1 UNK         0.3000 
    190 H190       -1.2713  -19.5424  -47.4296 H         1 UNK         0.3000 
    191 H191       -2.3130  -19.9984  -50.0046 H         1 UNK         0.0600 
    192 H192       -3.5709  -18.5614  -47.6109 H         1 UNK         0.0600 
    193 H193       -4.1070  -18.4185  -49.2820 H         1 UNK         0.0600 
    194 H194       -2.5150  -17.8345  -48.8202 H         1 UNK         0.0600 
    195 H195       -3.5071  -21.1574  -46.8162 H         1 UNK         0.3000 
    196 H196       -5.8425  -22.4465  -47.8339 H         1 UNK         0.0600 
    197 H197       -4.2486  -22.9317  -45.2647 H         1 UNK         0.0600 
    198 H198       -5.8662  -23.5465  -45.5885 H         1 UNK         0.0600 
    199 H199       -5.5976  -21.8148  -45.4596 H         1 UNK         0.0600 
    200 H200       -2.5042  -23.6040  -47.3091 H         1 UNK         0.3000 
    201 H201       -3.0463  -26.3679  -47.7453 H         1 UNK         0.0600 
    202 H202       -0.4321  -24.7770  -47.8755 H         1 UNK         0.0600 
    203 H203       -0.5443  -26.5328  -47.8108 H         1 UNK         0.0600 
    204 H204       -1.1022  -25.5725  -46.4515 H         1 UNK         0.0600 
    205 H205       -2.5823  -23.7925  -50.0203 H         1 UNK         0.3000 
    206 H206       -1.2519  -24.8517  -52.1404 H         1 UNK         0.0600 
    207 H207       -1.9795  -22.5031  -51.9422 H         1 UNK         0.0600 
    208 H208       -2.4503  -23.1542  -53.5064 H         1 UNK         0.0600 
    209 H209       -3.6539  -22.9619  -52.2379 H         1 UNK         0.0600 
    210 H210       -1.4983  -26.8015  -52.9786 H         1 UNK         0.3000 
    211 H211       -2.2057  -28.6254  -53.9855 H         1 UNK         0.0600 
    212 H212       -4.5028  -26.9483  -55.1252 H         1 UNK         0.0600 
    213 H213       -3.8391  -28.4243  -55.8083 H         1 UNK         0.0600 
    214 H214       -2.8648  -26.9646  -55.7782 H         1 UNK         0.0600 
    215 H215       -3.4616  -27.8368  -51.3053 H         1 UNK         0.3000 
    216 H216       -4.9660  -28.3731  -49.8042 H         1 UNK         0.0600 
    217 H217       -4.2364  -30.7351  -50.2497 H         1 UNK         0.0600 
    218 H218       -5.9029  -30.6443  -49.7070 H         1 UNK         0.0600 
    219 H219       -5.5540  -30.9180  -51.4072 H         1 UNK         0.0600 
    220 H220       -5.7774  -26.9069  -52.3415 H         1 UNK         0.3000 
    221 H221       -8.7582  -27.2167  -52.2335 H         1 UNK         0.0600 
    222 H222       -6.9257  -26.2370  -54.4935 H         1 UNK         0.0600 
    223 H223       -7.7088  -27.8141  -54.4254 H         1 UNK         0.0600 
    224 H224       -8.6807  -26.3566  -54.5675 H         1 UNK         0.0600 
    225 H225       -6.0424  -25.0620  -51.8574 H         1 UNK         0.3000 
    226 H226       -5.7185  -23.1031  -51.0382 H         1 UNK         0.0600 
    227 H227       -7.5232  -23.5088  -49.3517 H         1 UNK         0.0600 
    228 H228       -7.3828  -21.8089  -49.7783 H         1 UNK         0.0600 
    229 H229       -8.7028  -22.7670  -50.4307 H         1 UNK         0.0600 
    230 H230       -8.6046  -23.0873  -53.0991 H         1 UNK         0.3000 
    231 H231       -8.3679  -20.4820  -54.1980 H         1 UNK         0.0600 
    232 H232      -10.4440  -21.8454  -54.2727 H         1 UNK         0.0600 
    233 H233       -9.6679  -23.0160  -55.3393 H         1 UNK         0.0600 
    234 H234       -9.9761  -21.3757  -55.8990 H         1 UNK         0.0600 
    235 H235       -6.4257  -23.2361  -54.8004 H         1 UNK         0.3000 
    236 H236       -5.5725  -22.6732  -57.4989 H         1 UNK         0.0600 
    237 H237       -4.3153  -24.3625  -55.2693 H         1 UNK         0.0600 
    238 H238       -5.4492  -24.9455  -56.4881 H         1 UNK         0.0600 
    239 H239       -3.8488  -24.4018  -56.9643 H         1 UNK         0.0600 
    240 H240       -4.7744  -21.2201  -54.4201 H         1 UNK         0.3000 
    241 H241       -2.0716  -20.5241  -55.0636 H         1 UNK         0.0600 
    242 H242       -2.1225  -17.2096  -56.3831 H         1 UNK         0.3800 
    243 H243       -1.1486  -18.3861  -55.5462 H         1 UNK         0.3800 
    244 H244       -3.5290  -18.8723  -52.9883 H         1 UNK         0.0800 
    245 H245       -3.4509  -20.5710  -52.6823 H         1 UNK         0.0800 
    246 H246       -2.0746  -17.8405  -51.3110 H         1 UNK         0.0800 
    247 H247       -1.2573  -17.2716  -52.7484 H         1 UNK         0.0800 
@<TRIPOS>BOND
     1    1    2 1    
     2    1  127 1    
     3    1  128 1    
     4    1  129 1    
     5    2    3 2    
     6    2    4 am   BACKBONE|DICT|INTERRES
     7    4    5 1    
     8    4  130 1    
     9    5    6 1    
    10    5   65 1    
    11    5  131 1    
    12    6    7 1    
    13    6  132 1    
    14    6  133 1    
    15    7    8 1    
    16    8    9 1    
    17    8  134 1    
    18    8  135 1    
    19    9   10 ar   
    20    9   14 ar   
    21   10   11 ar   
    22   10  136 1    
    23   11   12 ar   
    24   11  126 1    
    25   12   13 ar   
    26   12  137 1    
    27   13   14 ar   
    28   13   15 1    
    29   14  138 1    
    30   15   16 1    
    31   15  139 1    
    32   15  140 1    
    33   16   17 1    
    34   17   18 1    
    35   17  141 1    
    36   17  142 1    
    37   18   19 1    
    38   18   67 1    
    39   18  143 1    
    40   19   20 am   BACKBONE|DICT|INTERRES
    41   19  144 1    
    42   20   21 2    
    43   20   22 1    
    44   22   23 1    
    45   22   24 1    
    46   22  145 1    
    47   23  146 1    
    48   23  147 1    
    49   23  148 1    
    50   24   25 am   BACKBONE|DICT|INTERRES
    51   24  149 1    
    52   25   26 2    
    53   25   27 1    
    54   27   28 1    
    55   27   29 1    
    56   27  150 1    
    57   28  151 1    
    58   28  152 1    
    59   28  153 1    
    60   29   30 am   BACKBONE|DICT|INTERRES
    61   29  154 1    
    62   30   31 2    
    63   30   32 1    
    64   32   33 1    
    65   32   34 1    
    66   32  155 1    
    67   33  156 1    
    68   33  157 1    
    69   33  158 1    
    70   34   35 am   BACKBONE|DICT|INTERRES
    71   34  159 1    
    72   35   36 2    
    73   35   37 1    
    74   37   38 1    
    75   37   39 1    
    76   37  160 1    
    77   38  161 1    
    78   38  162 1    
    79   38  163 1    
    80   39   40 am   BACKBONE|DICT|INTERRES
    81   39  164 1    
    82   40   41 2    
    83   40   42 1    
    84   42   43 1    
    85   42   44 1    
    86   42  165 1    
    87   43  166 1    
    88   43  167 1    
    89   43  168 1    
    90   44   45 am   BACKBONE|DICT|INTERRES
    91   44  169 1    
    92   45   46 2    
    93   45   47 1    
    94   47   48 1    
    95   47   49 1    
    96   47  170 1    
    97   48  171 1    
    98   48  172 1    
    99   48  173 1    
   100   49   50 am   BACKBONE|DICT|INTERRES
   101   49  174 1    
   102   50   51 2    
   103   50   52 1    
   104   52   53 1    
   105   52   54 1    
   106   52  175 1    
   107   53  176 1    
   108   53  177 1    
   109   53  178 1    
   110   54   55 am   BACKBONE|DICT|INTERRES
   111   54  179 1    
   112   55   56 2    
   113   55   57 1    
   114   57   58 1    
   115   57   59 1    
   116   57  180 1    
   117   58  181 1    
   118   58  182 1    
   119   58  183 1    
   120   59   60 am   BACKBONE|DICT|INTERRES
   121   59  184 1    
   122   60   61 2    
   123   60   62 1    
   124   62   63 1    
   125   62   64 1    
   126   62  185 1    
   127   63  186 1    
   128   63  187 1    
   129   63  188 1    
   130   64   65 am   BACKBONE|DICT|INTERRES
   131   64  189 1    
   132   65   66 2    
   133   67   68 2    
   134   67   69 am   BACKBONE|DICT|INTERRES
   135   69   70 1    
   136   69  190 1    
   137   70   71 1    
   138   70   72 1    
   139   70  191 1    
   140   71  192 1    
   141   71  193 1    
   142   71  194 1    
   143   72   73 2    
   144   72   74 am   BACKBONE|DICT|INTERRES
   145   74   75 1    
   146   74  195 1    
   147   75   76 1    
   148   75   77 1    
   149   75  196 1    
   150   76  197 1    
   151   76  198 1    
   152   76  199 1    
   153   77   78 2    
   154   77   79 am   BACKBONE|DICT|INTERRES
   155   79   80 1    
   156   79  200 1    
   157   80   81 1    
   158   80   82 1    
   159   80  201 1    
   160   81  202 1    
   161   81  203 1    
   162   81  204 1    
   163   82   83 2    
   164   82   84 am   BACKBONE|DICT|INTERRES
   165   84   85 1    
   166   84  205 1    
   167   85   86 1    
   168   85   87 1    
   169   85  206 1    
   170   86  207 1    
   171   86  208 1    
   172   86  209 1    
   173   87   88 2    
   174   87   89 am   BACKBONE|DICT|INTERRES
   175   89   90 1    
   176   89  210 1    
   177   90   91 1    
   178   90   92 1    
   179   90  211 1    
   180   91  212 1    
   181   91  213 1    
   182   91  214 1    
   183   92   93 2    
   184   92   94 am   BACKBONE|DICT|INTERRES
   185   94   95 1    
   186   94  215 1    
   187   95   96 1    
   188   95   97 1    
   189   95  216 1    
   190   96  217 1    
   191   96  218 1    
   192   96  219 1    
   193   97   98 2    
   194   97   99 am   BACKBONE|DICT|INTERRES
   195   99  100 1    
   196   99  220 1    
   197  100  101 1    
   198  100  102 1    
   199  100  221 1    
   200  101  222 1    
   201  101  223 1    
   202  101  224 1    
   203  102  103 2    
   204  102  104 am   BACKBONE|DICT|INTERRES
   205  104  105 1    
   206  104  225 1    
   207  105  106 1    
   208  105  107 1    
   209  105  226 1    
   210  106  227 1    
   211  106  228 1    
   212  106  229 1    
   213  107  108 2    
   214  107  109 am   BACKBONE|DICT|INTERRES
   215  109  110 1    
   216  109  230 1    
   217  110  111 1    
   218  110  112 1    
   219  110  231 1    
   220  111  232 1    
   221  111  233 1    
   222  111  234 1    
   223  112  113 2    
   224  112  114 am   BACKBONE|DICT|INTERRES
   225  114  115 1    
   226  114  235 1    
   227  115  116 1    
   228  115  117 1    
   229  115  236 1    
   230  116  237 1    
   231  116  238 1    
   232  116  239 1    
   233  117  118 2    
   234  117  119 am   BACKBONE|DICT|INTERRES
   235  119  120 1    
   236  119  240 1    
   237  120  121 1    
   238  120  124 1    
   239  120  241 1    
   240  121  122 am   BACKBONE|DICT|INTERRES
   241  121  123 2    
   242  122  242 1    
   243  122  243 1    
   244  124  125 1    
   245  124  244 1    
   246  124  245 1    
   247  125  126 1    
   248  126  246 1    
   249  126  247 1    
@<TRIPOS>SUBSTRUCTURE
     1 UNK         1 GROUP             0       ****    0 ROOT    
