@<TRIPOS>MOLECULE
3R540
247   249    1
SMALL
USER_CHARGES


@<TRIPOS>ATOM
      1 CA          3.2203  -10.1818  -45.3281 C.3       0 UNK        -0.1800 
      2 C           2.5845  -11.5581  -45.4638 C.2       0 UNK         0.5000 
      3 O           1.8314  -11.9725  -44.5831 O.2       0 UNK        -0.5000 
      4 N           2.8901  -12.2668  -46.5592 N.am      1 UNK        -0.5000 
      5 CA          2.3522  -13.5956  -46.8702 C.3       1 UNK         0.1400 
      6 C6          3.1674  -14.2849  -47.9927 C.3       23 UNK        -0.0398 
      7 S7          2.7648  -16.0548  -48.1828 S.3       23 UNK        -0.2404 
      8 C8          2.3458  -16.1490  -49.9498 C.3       23 UNK        -0.0205 
      9 C9          1.6974  -17.4804  -50.2975 C.ar      23 UNK        -0.0193 
     10 C10         0.3696  -17.5220  -50.7327 C.ar      23 UNK        -0.1150 
     11 C11        -0.2380  -18.7395  -51.0582 C.ar      23 UNK        -0.0193 
     12 C12         0.5018  -19.9196  -50.9427 C.ar      23 UNK        -0.1150 
     13 C13         1.8121  -19.9002  -50.4586 C.ar      23 UNK        -0.0193 
     14 C14         2.4149  -18.6738  -50.1658 C.ar      23 UNK        -0.1150 
     15 C15         2.5530  -21.2102  -50.2159 C.3       23 UNK        -0.0205 
     16 S16         2.9388  -21.4887  -48.4496 S.3       23 UNK        -0.2404 
     17 C17         1.3062  -21.3640  -47.6347 C.3       23 UNK        -0.0398 
     18 CA          0.9363  -22.5953  -46.7712 C.3       11 UNK         0.1400 
     19 N           1.9359  -22.8921  -45.7431 N.am      11 UNK        -0.5000 
     20 C           2.1360  -24.1030  -45.2067 C.2       10 UNK         0.5000 
     21 O           1.5356  -25.1168  -45.5636 O.2       10 UNK        -0.5000 
     22 CA          3.1666  -24.1961  -44.0646 C.3       10 UNK         0.1400 
     23 CB          4.5783  -24.4121  -44.6305 C.3       10 UNK        -0.1800 
     24 N           3.1716  -23.0158  -43.1984 N.am      10 UNK        -0.5000 
     25 C           2.1675  -22.6662  -42.3821 C.2       9 UNK         0.5000 
     26 O           1.1404  -23.3299  -42.2379 O.2       9 UNK        -0.5000 
     27 CA          2.3232  -21.3347  -41.6190 C.3       9 UNK         0.1400 
     28 CB          3.0095  -21.5735  -40.2660 C.3       9 UNK        -0.1800 
     29 N           3.0430  -20.2779  -42.3392 N.am      9 UNK        -0.5000 
     30 C           2.7695  -19.8265  -43.5714 C.2       8 UNK         0.5000 
     31 O           1.9208  -20.3258  -44.3115 O.2       8 UNK        -0.5000 
     32 CA          3.5640  -18.5925  -44.0213 C.3       8 UNK         0.1400 
     33 CB          3.2966  -18.2224  -45.4885 C.3       8 UNK        -0.1800 
     34 N           3.1718  -17.4744  -43.1716 N.am      8 UNK        -0.5000 
     35 C           3.9588  -16.8399  -42.2933 C.2       7 UNK         0.5000 
     36 O           5.1604  -17.0733  -42.1594 O.2       7 UNK        -0.5000 
     37 CA          3.2883  -15.7842  -41.3865 C.3       7 UNK         0.1400 
     38 CB          3.4227  -14.3850  -42.0080 C.3       7 UNK        -0.1800 
     39 N           1.8711  -16.0536  -41.1321 N.am      7 UNK        -0.5000 
     40 C           1.3869  -17.1359  -40.5059 C.2       6 UNK         0.5000 
     41 O           2.0972  -17.9580  -39.9268 O.2       6 UNK        -0.5000 
     42 CA         -0.1400  -17.3678  -40.5608 C.3       6 UNK         0.1400 
     43 CB         -0.7740  -17.0878  -39.1896 C.3       6 UNK        -0.1800 
     44 N          -0.8728  -16.6055  -41.5833 N.am      6 UNK        -0.5000 
     45 C          -0.6406  -16.6239  -42.9032 C.2       5 UNK         0.5000 
     46 O           0.3110  -17.2182  -43.4160 O.2       5 UNK        -0.5000 
     47 CA         -1.6063  -15.7990  -43.7793 C.3       5 UNK         0.1400 
     48 CB         -1.3505  -14.2938  -43.5971 C.3       5 UNK        -0.1800 
     49 N          -1.4459  -16.1228  -45.1937 N.am      5 UNK        -0.5000 
     50 C          -1.7766  -17.2881  -45.7587 C.2       4 UNK         0.5000 
     51 O          -2.4851  -18.1395  -45.2179 O.2       4 UNK        -0.5000 
     52 CA         -1.1920  -17.5127  -47.1643 C.3       4 UNK         0.1400 
     53 CB         -1.3118  -18.9659  -47.6522 C.3       4 UNK        -0.1800 
     54 N          -1.7207  -16.5629  -48.1456 N.am      4 UNK        -0.5000 
     55 C          -2.9940  -16.4085  -48.5369 C.2       3 UNK         0.5000 
     56 O          -3.9247  -17.1202  -48.1569 O.2       3 UNK        -0.5000 
     57 CA         -3.2666  -15.2282  -49.4934 C.3       3 UNK         0.1400 
     58 CB         -4.7684  -14.9952  -49.7430 C.3       3 UNK        -0.1800 
     59 N          -2.6809  -13.9968  -48.9598 N.am      3 UNK        -0.5000 
     60 C          -1.4606  -13.5311  -49.2513 C.2       2 UNK         0.5000 
     61 O          -0.7238  -14.0493  -50.0915 O.2       2 UNK        -0.5000 
     62 CA         -0.9471  -12.3110  -48.4503 C.3       2 UNK         0.1400 
     63 CB         -1.8681  -11.8858  -47.2837 C.3       2 UNK        -0.1800 
     64 N           0.4209  -12.5231  -47.9610 N.am      2 UNK        -0.5000 
     65 C           0.8449  -13.5450  -47.1994 C.2       1 UNK         0.5000 
     66 O           0.1038  -14.4198  -46.7521 O.2       1 UNK        -0.5000 
     67 C          -0.4462  -22.3970  -46.1175 C.2       11 UNK         0.5000 
     68 O          -1.4492  -22.8632  -46.6567 O.2       11 UNK        -0.5000 
     69 N          -0.4802  -21.7371  -44.9490 N.am      12 UNK        -0.5000 
     70 CA         -1.6854  -21.3823  -44.1876 C.3       12 UNK         0.1400 
     71 CB         -1.2824  -20.5480  -42.9642 C.3       12 UNK        -0.1800 
     72 C          -2.5607  -22.5750  -43.7532 C.2       12 UNK         0.5000 
     73 O          -3.7340  -22.3765  -43.4391 O.2       12 UNK        -0.5000 
     74 N          -1.9955  -23.7897  -43.7745 N.am      13 UNK        -0.5000 
     75 CA         -2.7087  -25.0553  -43.6038 C.3       13 UNK         0.1400 
     76 CB         -1.6829  -26.1975  -43.5534 C.3       13 UNK        -0.1800 
     77 C          -3.7596  -25.3176  -44.7051 C.2       13 UNK         0.5000 
     78 O          -4.7816  -25.9432  -44.4200 O.2       13 UNK        -0.5000 
     79 N          -3.5009  -24.8258  -45.9255 N.am      14 UNK        -0.5000 
     80 CA         -4.4265  -24.8613  -47.0605 C.3       14 UNK         0.1400 
     81 CB         -3.7139  -25.4853  -48.2700 C.3       14 UNK        -0.1800 
     82 C          -4.9836  -23.4627  -47.3929 C.2       14 UNK         0.5000 
     83 O          -6.0769  -23.3726  -47.9535 O.2       14 UNK        -0.5000 
     84 N          -4.2498  -22.4007  -47.0250 N.am      15 UNK        -0.5000 
     85 CA         -4.6154  -20.9854  -47.1371 C.3       15 UNK         0.1400 
     86 CB         -5.7486  -20.6420  -46.1454 C.3       15 UNK        -0.1800 
     87 C          -4.9108  -20.5885  -48.5980 C.2       15 UNK         0.5000 
     88 O          -4.0136  -20.6684  -49.4360 O.2       15 UNK        -0.5000 
     89 N          -6.1622  -20.2231  -48.9043 N.am      16 UNK        -0.5000 
     90 CA         -6.6257  -19.8725  -50.2492 C.3       16 UNK         0.1400 
     91 CB         -8.0792  -19.3844  -50.1631 C.3       16 UNK        -0.1800 
     92 C          -6.4972  -21.0132  -51.2820 C.2       16 UNK         0.5000 
     93 O          -6.4354  -20.7334  -52.4776 O.2       16 UNK        -0.5000 
     94 N          -6.4446  -22.2687  -50.8143 N.am      17 UNK        -0.5000 
     95 CA         -6.2535  -23.4547  -51.6487 C.3       17 UNK         0.1400 
     96 CB         -7.0375  -24.6242  -51.0301 C.3       17 UNK        -0.1800 
     97 C          -4.7690  -23.8313  -51.8359 C.2       17 UNK         0.5000 
     98 O          -4.4897  -24.7740  -52.5777 O.2       17 UNK        -0.5000 
     99 N          -3.8399  -23.1299  -51.1655 N.am      18 UNK        -0.5000 
    100 CA        -2.4049  -23.4366  -51.1871 C.3       18 UNK         0.1400 
    101 CB        -1.7111  -22.6980  -50.0353 C.3       18 UNK        -0.1800 
    102 C         -1.7154  -23.1165  -52.5276 C.2       18 UNK         0.5000 
    103 O         -0.6799  -23.7111  -52.8286 O.2       18 UNK        -0.5000 
    104 N         -2.2980  -22.2023  -53.3095 N.am      19 UNK        -0.5000 
    105 CA        -1.8846  -21.8510  -54.6619 C.3       19 UNK         0.1400 
    106 CB        -0.7372  -20.8263  -54.6252 C.3       19 UNK        -0.1800 
    107 C         -3.1094  -21.2827  -55.3855 C.2       19 UNK         0.5000 
    108 O         -3.9286  -20.6165  -54.7502 O.2       19 UNK        -0.5000 
    109 N         -3.2084  -21.5284  -56.6984 N.am      20 UNK        -0.5000 
    110 CA        -4.3387  -21.1161  -57.5409 C.3       20 UNK         0.1400 
    111 CB        -4.1662  -21.7153  -58.9449 C.3       20 UNK        -0.1800 
    112 C         -4.5325  -19.5892  -57.6260 C.2       20 UNK         0.5000 
    113 O         -5.6653  -19.1233  -57.7552 O.2       20 UNK        -0.5000 
    114 N         -3.4280  -18.8393  -57.5107 N.am      21 UNK        -0.5000 
    115 CA        -3.4023  -17.3760  -57.4707 C.3       21 UNK         0.1400 
    116 CB        -1.9451  -16.9065  -57.6027 C.3       21 UNK        -0.1800 
    117 C         -4.0456  -16.7771  -56.2024 C.2       21 UNK         0.5000 
    118 O         -4.4313  -15.6075  -56.2216 O.2       21 UNK        -0.5000 
    119 N         -4.1487  -17.5756  -55.1326 N.am      22 UNK        -0.5000 
    120 CA        -4.7401  -17.1873  -53.8434 C.3       22 UNK         0.1400 
    121 C         -6.2830  -17.3845  -53.7727 C.2       22 UNK         0.5000 
    122 N         -6.9427  -17.8966  -54.8059 N.am      22 UNK        -0.7600 
    123 O         -6.8982  -17.0432  -52.7665 O.2       22 UNK        -0.5000 
    124 C124       -4.0277  -17.8859  -52.6588 C.3       23 UNK        -0.0398 
    125 S125       -2.2364  -17.5464  -52.6211 S.3       23 UNK        -0.2404 
    126 C126       -1.7166  -18.8104  -51.4232 C.3       23 UNK        -0.0205 
    127 H127        3.8174  -10.1331  -44.4174 H         1 UNK         0.0600 
    128 H128        2.4469   -9.4159  -45.2714 H         1 UNK         0.0600 
    129 H129        3.8688   -9.9486  -46.1729 H         1 UNK         0.0600 
    130 H130        3.5236  -11.8721  -47.2399 H         1 UNK         0.3000 
    131 H131        2.4604  -14.2016  -45.9672 H         1 UNK         0.0600 
    132 H132        3.0385  -13.7627  -48.9423 H         1 UNK         0.0800 
    133 H133        4.2318  -14.2257  -47.7617 H         1 UNK         0.0800 
    134 H134        1.6802  -15.3240  -50.2076 H         1 UNK         0.0800 
    135 H135        3.2506  -16.0194  -50.5449 H         1 UNK         0.0800 
    136 H136       -0.1991  -16.6058  -50.8027 H         1 UNK         0.1150 
    137 H137        0.0453  -20.8650  -51.1893 H         1 UNK         0.1150 
    138 H138        3.4311  -18.6507  -49.7979 H         1 UNK         0.1150 
    139 H139        1.9750  -22.0580  -50.5872 H         1 UNK         0.0800 
    140 H140        3.4841  -21.2020  -50.7838 H         1 UNK         0.0800 
    141 H141        1.3117  -20.4541  -47.0317 H         1 UNK         0.0800 
    142 H142        0.5408  -21.2220  -48.3974 H         1 UNK         0.0800 
    143 H143        0.8590  -23.4536  -47.4424 H         1 UNK         0.0600 
    144 H144        2.4178  -22.0936  -45.3499 H         1 UNK         0.3000 
    145 H145        2.9071  -25.0635  -43.4538 H         1 UNK         0.0600 
    146 H146        5.3065  -24.5543  -43.8317 H         1 UNK         0.0600 
    147 H147        4.6133  -25.3004  -45.2627 H         1 UNK         0.0600 
    148 H148        4.9037  -23.5654  -45.2364 H         1 UNK         0.0600 
    149 H149        3.9773  -22.4105  -43.2537 H         1 UNK         0.3000 
    150 H150        1.3227  -20.9518  -41.4186 H         1 UNK         0.0600 
    151 H151        2.4839  -22.3358  -39.6891 H         1 UNK         0.0600 
    152 H152        3.0214  -20.6648  -39.6637 H         1 UNK         0.0600 
    153 H153        4.0400  -21.9078  -40.3912 H         1 UNK         0.0600 
    154 H154        3.7399  -19.7809  -41.8030 H         1 UNK         0.3000 
    155 H155        4.6257  -18.8225  -43.9133 H         1 UNK         0.0600 
    156 H156        3.9060  -17.3697  -45.7859 H         1 UNK         0.0600 
    157 H157        2.2500  -17.9627  -45.6563 H         1 UNK         0.0600 
    158 H158        3.5435  -19.0481  -46.1570 H         1 UNK         0.0600 
    159 H159        2.1768  -17.2577  -43.1871 H         1 UNK         0.3000 
    160 H160        3.8101  -15.7901  -40.4275 H         1 UNK         0.0600 
    161 H161        2.8973  -14.3156  -42.9619 H         1 UNK         0.0600 
    162 H162        4.4690  -14.1373  -42.1916 H         1 UNK         0.0600 
    163 H163        3.0196  -13.6178  -41.3469 H         1 UNK         0.0600 
    164 H164        1.2097  -15.4373  -41.5799 H         1 UNK         0.3000 
    165 H165       -0.2831  -18.4257  -40.7901 H         1 UNK         0.0600 
    166 H166       -0.6971  -16.0336  -38.9205 H         1 UNK         0.0600 
    167 H167       -1.8288  -17.3629  -39.1777 H         1 UNK         0.0600 
    168 H168       -0.2827  -17.6638  -38.4041 H         1 UNK         0.0600 
    169 H169       -1.6567  -16.0666  -41.2441 H         1 UNK         0.3000 
    170 H170       -2.6310  -16.0293  -43.4816 H         1 UNK         0.0600 
    171 H171       -1.4989  -13.9864  -42.5615 H         1 UNK         0.0600 
    172 H172       -0.3316  -14.0222  -43.8786 H         1 UNK         0.0600 
    173 H173       -2.0318  -13.7027  -44.2091 H         1 UNK         0.0600 
    174 H174       -0.8585  -15.4862  -45.7319 H         1 UNK         0.3000 
    175 H175       -0.1245  -17.3013  -47.0774 H         1 UNK         0.0600 
    176 H176       -0.5917  -19.1616  -48.4404 H         1 UNK         0.0600 
    177 H177       -1.1027  -19.6705  -46.8497 H         1 UNK         0.0600 
    178 H178       -2.2999  -19.1903  -48.0429 H         1 UNK         0.0600 
    179 H179       -1.0489  -15.8849  -48.4807 H         1 UNK         0.3000 
    180 H180       -2.8074  -15.4774  -50.4519 H         1 UNK         0.0600 
    181 H181       -4.9271  -14.1819  -50.4513 H         1 UNK         0.0600 
    182 H182       -5.2426  -15.8836  -50.1616 H         1 UNK         0.0600 
    183 H183       -5.2958  -14.7457  -48.8216 H         1 UNK         0.0600 
    184 H184       -3.2045  -13.5383  -48.2281 H         1 UNK         0.3000 
    185 H185       -0.8994  -11.4814  -49.1569 H         1 UNK         0.0600 
    186 H186       -1.4509  -11.0300  -46.7527 H         1 UNK         0.0600 
    187 H187       -2.8529  -11.5854  -47.6435 H         1 UNK         0.0600 
    188 H188       -2.0052  -12.6864  -46.5559 H         1 UNK         0.0600 
    189 H189        1.1079  -11.8586  -48.2862 H         1 UNK         0.3000 
    190 H190        0.3934  -21.3515  -44.5980 H         1 UNK         0.3000 
    191 H191       -2.2990  -20.7583  -44.8382 H         1 UNK         0.0600 
    192 H192       -2.1589  -20.1031  -42.4919 H         1 UNK         0.0600 
    193 H193       -0.6152  -19.7326  -43.2411 H         1 UNK         0.0600 
    194 H194       -0.7829  -21.1600  -42.2147 H         1 UNK         0.0600 
    195 H195       -1.0136  -23.8486  -44.0044 H         1 UNK         0.3000 
    196 H196       -3.2322  -25.0186  -42.6464 H         1 UNK         0.0600 
    197 H197       -2.1748  -27.1590  -43.4008 H         1 UNK         0.0600 
    198 H198       -0.9782  -26.0586  -42.7331 H         1 UNK         0.0600 
    199 H199       -1.1094  -26.2638  -44.4792 H         1 UNK         0.0600 
    200 H200       -2.6395  -24.3083  -46.0678 H         1 UNK         0.3000 
    201 H201       -5.2897  -25.4887  -46.8294 H         1 UNK         0.0600 
    202 H202       -3.5159  -26.5432  -48.0976 H         1 UNK         0.0600 
    203 H203       -2.7582  -25.0041  -48.4703 H         1 UNK         0.0600 
    204 H204       -4.3219  -25.4133  -49.1721 H         1 UNK         0.0600 
    205 H205       -3.3053  -22.5743  -46.6968 H         1 UNK         0.3000 
    206 H206       -3.7388  -20.4169  -46.8303 H         1 UNK         0.0600 
    207 H207       -5.4481  -20.8718  -45.1231 H         1 UNK         0.0600 
    208 H208       -5.9857  -19.5776  -46.1746 H         1 UNK         0.0600 
    209 H209       -6.6642  -21.1977  -46.3499 H         1 UNK         0.0600 
    210 H210       -6.8537  -20.2118  -48.1692 H         1 UNK         0.3000 
    211 H211       -6.0096  -19.0441  -50.6027 H         1 UNK         0.0600 
    212 H212       -8.7443  -20.1641  -49.7899 H         1 UNK         0.0600 
    213 H213       -8.4458  -19.0799  -51.1445 H         1 UNK         0.0600 
    214 H214       -8.1671  -18.5201  -49.5046 H         1 UNK         0.0600 
    215 H215       -6.4768  -22.4251  -49.8123 H         1 UNK         0.3000 
    216 H216       -6.6653  -23.2709  -52.6432 H         1 UNK         0.0600 
    217 H217       -6.9891  -25.5086  -51.6665 H         1 UNK         0.0600 
    218 H218       -8.0910  -24.3721  -50.9078 H         1 UNK         0.0600 
    219 H219       -6.6446  -24.9045  -50.0530 H         1 UNK         0.0600 
    220 H220       -4.1228  -22.3414  -50.5925 H         1 UNK         0.3000 
    221 H221       -2.2905  -24.5084  -51.0121 H         1 UNK         0.0600 
    222 H222       -1.7500  -21.6189  -50.1680 H         1 UNK         0.0600 
    223 H223       -2.1920  -22.9150  -49.0857 H         1 UNK         0.0600 
    224 H224       -0.6636  -22.9890  -49.9500 H         1 UNK         0.0600 
    225 H225       -3.1700  -21.7785  -53.0174 H         1 UNK         0.3000 
    226 H226       -1.5549  -22.7528  -55.1822 H         1 UNK         0.0600 
    227 H227        0.1236  -21.2106  -54.0778 H         1 UNK         0.0600 
    228 H228       -0.3989  -20.5836  -55.6330 H         1 UNK         0.0600 
    229 H229       -1.0440  -19.8943  -54.1510 H         1 UNK         0.0600 
    230 H230       -2.4879  -22.0720  -57.1518 H         1 UNK         0.3000 
    231 H231       -5.2473  -21.5333  -57.1015 H         1 UNK         0.0600 
    232 H232       -5.0038  -21.4465  -59.5901 H         1 UNK         0.0600 
    233 H233       -4.1240  -22.8040  -58.9075 H         1 UNK         0.0600 
    234 H234       -3.2542  -21.3589  -59.4255 H         1 UNK         0.0600 
    235 H235       -2.5423  -19.3107  -57.4025 H         1 UNK         0.3000 
    236 H236       -3.9633  -17.0034  -58.3302 H         1 UNK         0.0600 
    237 H237       -1.3320  -17.2630  -56.7738 H         1 UNK         0.0600 
    238 H238       -1.4973  -17.2621  -58.5309 H         1 UNK         0.0600 
    239 H239       -1.8842  -15.8174  -57.6108 H         1 UNK         0.0600 
    240 H240       -3.8515  -18.5415  -55.2000 H         1 UNK         0.3000 
    241 H241       -4.5851  -16.1149  -53.7108 H         1 UNK         0.0600 
    242 H242       -7.9409  -18.0164  -54.7446 H         1 UNK         0.3800 
    243 H243       -6.4513  -18.1881  -55.6383 H         1 UNK         0.3800 
    244 H244       -4.1880  -18.9642  -52.7026 H         1 UNK         0.0800 
    245 H245       -4.4452  -17.5530  -51.7081 H         1 UNK         0.0800 
    246 H246       -2.3026  -18.6988  -50.5105 H         1 UNK         0.0800 
    247 H247       -1.9642  -19.7918  -51.8279 H         1 UNK         0.0800 
@<TRIPOS>BOND
     1    1    2 1    
     2    1  127 1    
     3    1  128 1    
     4    1  129 1    
     5    2    3 2    
     6    2    4 am   BACKBONE|DICT|INTERRES
     7    4    5 1    
     8    4  130 1    
     9    5    6 1    
    10    5   65 1    
    11    5  131 1    
    12    6    7 1    
    13    6  132 1    
    14    6  133 1    
    15    7    8 1    
    16    8    9 1    
    17    8  134 1    
    18    8  135 1    
    19    9   10 ar   
    20    9   14 ar   
    21   10   11 ar   
    22   10  136 1    
    23   11   12 ar   
    24   11  126 1    
    25   12   13 ar   
    26   12  137 1    
    27   13   14 ar   
    28   13   15 1    
    29   14  138 1    
    30   15   16 1    
    31   15  139 1    
    32   15  140 1    
    33   16   17 1    
    34   17   18 1    
    35   17  141 1    
    36   17  142 1    
    37   18   19 1    
    38   18   67 1    
    39   18  143 1    
    40   19   20 am   BACKBONE|DICT|INTERRES
    41   19  144 1    
    42   20   21 2    
    43   20   22 1    
    44   22   23 1    
    45   22   24 1    
    46   22  145 1    
    47   23  146 1    
    48   23  147 1    
    49   23  148 1    
    50   24   25 am   BACKBONE|DICT|INTERRES
    51   24  149 1    
    52   25   26 2    
    53   25   27 1    
    54   27   28 1    
    55   27   29 1    
    56   27  150 1    
    57   28  151 1    
    58   28  152 1    
    59   28  153 1    
    60   29   30 am   BACKBONE|DICT|INTERRES
    61   29  154 1    
    62   30   31 2    
    63   30   32 1    
    64   32   33 1    
    65   32   34 1    
    66   32  155 1    
    67   33  156 1    
    68   33  157 1    
    69   33  158 1    
    70   34   35 am   BACKBONE|DICT|INTERRES
    71   34  159 1    
    72   35   36 2    
    73   35   37 1    
    74   37   38 1    
    75   37   39 1    
    76   37  160 1    
    77   38  161 1    
    78   38  162 1    
    79   38  163 1    
    80   39   40 am   BACKBONE|DICT|INTERRES
    81   39  164 1    
    82   40   41 2    
    83   40   42 1    
    84   42   43 1    
    85   42   44 1    
    86   42  165 1    
    87   43  166 1    
    88   43  167 1    
    89   43  168 1    
    90   44   45 am   BACKBONE|DICT|INTERRES
    91   44  169 1    
    92   45   46 2    
    93   45   47 1    
    94   47   48 1    
    95   47   49 1    
    96   47  170 1    
    97   48  171 1    
    98   48  172 1    
    99   48  173 1    
   100   49   50 am   BACKBONE|DICT|INTERRES
   101   49  174 1    
   102   50   51 2    
   103   50   52 1    
   104   52   53 1    
   105   52   54 1    
   106   52  175 1    
   107   53  176 1    
   108   53  177 1    
   109   53  178 1    
   110   54   55 am   BACKBONE|DICT|INTERRES
   111   54  179 1    
   112   55   56 2    
   113   55   57 1    
   114   57   58 1    
   115   57   59 1    
   116   57  180 1    
   117   58  181 1    
   118   58  182 1    
   119   58  183 1    
   120   59   60 am   BACKBONE|DICT|INTERRES
   121   59  184 1    
   122   60   61 2    
   123   60   62 1    
   124   62   63 1    
   125   62   64 1    
   126   62  185 1    
   127   63  186 1    
   128   63  187 1    
   129   63  188 1    
   130   64   65 am   BACKBONE|DICT|INTERRES
   131   64  189 1    
   132   65   66 2    
   133   67   68 2    
   134   67   69 am   BACKBONE|DICT|INTERRES
   135   69   70 1    
   136   69  190 1    
   137   70   71 1    
   138   70   72 1    
   139   70  191 1    
   140   71  192 1    
   141   71  193 1    
   142   71  194 1    
   143   72   73 2    
   144   72   74 am   BACKBONE|DICT|INTERRES
   145   74   75 1    
   146   74  195 1    
   147   75   76 1    
   148   75   77 1    
   149   75  196 1    
   150   76  197 1    
   151   76  198 1    
   152   76  199 1    
   153   77   78 2    
   154   77   79 am   BACKBONE|DICT|INTERRES
   155   79   80 1    
   156   79  200 1    
   157   80   81 1    
   158   80   82 1    
   159   80  201 1    
   160   81  202 1    
   161   81  203 1    
   162   81  204 1    
   163   82   83 2    
   164   82   84 am   BACKBONE|DICT|INTERRES
   165   84   85 1    
   166   84  205 1    
   167   85   86 1    
   168   85   87 1    
   169   85  206 1    
   170   86  207 1    
   171   86  208 1    
   172   86  209 1    
   173   87   88 2    
   174   87   89 am   BACKBONE|DICT|INTERRES
   175   89   90 1    
   176   89  210 1    
   177   90   91 1    
   178   90   92 1    
   179   90  211 1    
   180   91  212 1    
   181   91  213 1    
   182   91  214 1    
   183   92   93 2    
   184   92   94 am   BACKBONE|DICT|INTERRES
   185   94   95 1    
   186   94  215 1    
   187   95   96 1    
   188   95   97 1    
   189   95  216 1    
   190   96  217 1    
   191   96  218 1    
   192   96  219 1    
   193   97   98 2    
   194   97   99 am   BACKBONE|DICT|INTERRES
   195   99  100 1    
   196   99  220 1    
   197  100  101 1    
   198  100  102 1    
   199  100  221 1    
   200  101  222 1    
   201  101  223 1    
   202  101  224 1    
   203  102  103 2    
   204  102  104 am   BACKBONE|DICT|INTERRES
   205  104  105 1    
   206  104  225 1    
   207  105  106 1    
   208  105  107 1    
   209  105  226 1    
   210  106  227 1    
   211  106  228 1    
   212  106  229 1    
   213  107  108 2    
   214  107  109 am   BACKBONE|DICT|INTERRES
   215  109  110 1    
   216  109  230 1    
   217  110  111 1    
   218  110  112 1    
   219  110  231 1    
   220  111  232 1    
   221  111  233 1    
   222  111  234 1    
   223  112  113 2    
   224  112  114 am   BACKBONE|DICT|INTERRES
   225  114  115 1    
   226  114  235 1    
   227  115  116 1    
   228  115  117 1    
   229  115  236 1    
   230  116  237 1    
   231  116  238 1    
   232  116  239 1    
   233  117  118 2    
   234  117  119 am   BACKBONE|DICT|INTERRES
   235  119  120 1    
   236  119  240 1    
   237  120  121 1    
   238  120  124 1    
   239  120  241 1    
   240  121  122 am   BACKBONE|DICT|INTERRES
   241  121  123 2    
   242  122  242 1    
   243  122  243 1    
   244  124  125 1    
   245  124  244 1    
   246  124  245 1    
   247  125  126 1    
   248  126  246 1    
   249  126  247 1    
@<TRIPOS>SUBSTRUCTURE
     1 UNK         1 GROUP             0       ****    0 ROOT    
