@<TRIPOS>MOLECULE
3R540
247   249    1
SMALL
USER_CHARGES


@<TRIPOS>ATOM
      1 CA          1.1295  -12.2560  -47.1335 C.3       0 UNK        -0.1800 
      2 C           2.5505  -12.7703  -46.9546 C.2       0 UNK         0.5000 
      3 O           2.8333  -13.4446  -45.9656 O.2       0 UNK        -0.5000 
      4 N           3.4313  -12.4628  -47.9178 N.am      1 UNK        -0.5000 
      5 CA          4.8423  -12.8768  -47.9881 C.3       1 UNK         0.1400 
      6 C6          5.0436  -14.4098  -48.1338 C.3       23 UNK        -0.0398 
      7 S7          4.1887  -15.1267  -49.5808 S.3       23 UNK        -0.2404 
      8 C8          2.8048  -15.9698  -48.7595 C.3       23 UNK        -0.0205 
      9 C9          2.1371  -16.9885  -49.6622 C.ar      23 UNK        -0.0193 
     10 C10         0.9714  -16.6633  -50.3590 C.ar      23 UNK        -0.1150 
     11 C11         0.3105  -17.6308  -51.1211 C.ar      23 UNK        -0.0193 
     12 C12         0.8381  -18.9231  -51.2039 C.ar      23 UNK        -0.1150 
     13 C13         2.0038  -19.2578  -50.5083 C.ar      23 UNK        -0.0193 
     14 C14         2.6523  -18.2837  -49.7462 C.ar      23 UNK        -0.1150 
     15 C15         2.5515  -20.6762  -50.5478 C.3       23 UNK        -0.0205 
     16 S16         2.2946  -21.5383  -48.9634 S.3       23 UNK        -0.2404 
     17 C17         0.4791  -21.6746  -48.9360 C.3       23 UNK        -0.0398 
     18 CA         -0.0079  -22.6563  -47.8454 C.3       11 UNK         0.1400 
     19 N           0.1074  -22.1120  -46.4875 N.am      11 UNK        -0.5000 
     20 C          -0.0977  -22.8280  -45.3716 C.2       10 UNK         0.5000 
     21 O          -0.3501  -24.0321  -45.3728 O.2       10 UNK        -0.5000 
     22 CA         -0.0830  -22.0707  -44.0319 C.3       10 UNK         0.1400 
     23 CB          1.3546  -21.8028  -43.5633 C.3       10 UNK        -0.1800 
     24 N          -0.8400  -20.8197  -44.0872 N.am      10 UNK        -0.5000 
     25 C          -2.1585  -20.7441  -44.3218 C.2       9 UNK         0.5000 
     26 O          -2.8846  -21.7283  -44.4551 O.2       9 UNK        -0.5000 
     27 CA         -2.7643  -19.3390  -44.4863 C.3       9 UNK         0.1400 
     28 CB         -3.0830  -18.7160  -43.1193 C.3       9 UNK        -0.1800 
     29 N          -1.9027  -18.4374  -45.2492 N.am      9 UNK        -0.5000 
     30 C          -1.5331  -18.6257  -46.5244 C.2       8 UNK         0.5000 
     31 O          -1.9152  -19.5699  -47.2161 O.2       8 UNK        -0.5000 
     32 CA         -0.5088  -17.6264  -47.0913 C.3       8 UNK         0.1400 
     33 CB         -1.1736  -16.2888  -47.4553 C.3       8 UNK        -0.1800 
     34 N           0.5903  -17.3874  -46.1533 N.am      8 UNK        -0.5000 
     35 C           1.4904  -18.3138  -45.7932 C.2       7 UNK         0.5000 
     36 O           1.5204  -19.4519  -46.2592 O.2       7 UNK        -0.5000 
     37 CA          2.4866  -17.9220  -44.6844 C.3       7 UNK         0.1400 
     38 CB          3.7285  -17.2246  -45.2552 C.3       7 UNK        -0.1800 
     39 N           1.8836  -17.0612  -43.6679 N.am      7 UNK        -0.5000 
     40 C           0.9788  -17.4777  -42.7728 C.2       6 UNK         0.5000 
     41 O           0.5700  -18.6358  -42.7014 O.2       6 UNK        -0.5000 
     42 CA          0.4050  -16.4054  -41.8309 C.3       6 UNK         0.1400 
     43 CB          1.3626  -16.1394  -40.6596 C.3       6 UNK        -0.1800 
     44 N           0.1130  -15.1424  -42.5117 N.am      6 UNK        -0.5000 
     45 C          -0.7918  -14.9877  -43.4885 C.2       5 UNK         0.5000 
     46 O          -1.4272  -15.9267  -43.9666 O.2       5 UNK        -0.5000 
     47 CA         -1.0033  -13.5681  -44.0568 C.3       5 UNK         0.1400 
     48 CB         -2.4928  -13.2591  -44.3072 C.3       5 UNK        -0.1800 
     49 N          -0.3660  -12.4958  -43.2823 N.am      5 UNK        -0.5000 
     50 C          -0.6266  -12.0955  -42.0297 C.2       4 UNK         0.5000 
     51 O          -1.4947  -12.6006  -41.3168 O.2       4 UNK        -0.5000 
     52 CA          0.2797  -10.9702  -41.4777 C.3       4 UNK         0.1400 
     53 CB         -0.0050  -10.6504  -39.9988 C.3       4 UNK        -0.1800 
     54 N           1.7080  -11.2778  -41.6238 N.am      4 UNK        -0.5000 
     55 C           2.4061  -11.2050  -42.7635 C.2       3 UNK         0.5000 
     56 O           1.9064  -10.8690  -43.8419 O.2       3 UNK        -0.5000 
     57 CA          3.8856  -11.6105  -42.6953 C.3       3 UNK         0.1400 
     58 CB          4.0351  -13.1315  -42.5136 C.3       3 UNK        -0.1800 
     59 N           4.5223  -11.2140  -43.9446 N.am      3 UNK        -0.5000 
     60 C           5.7197  -10.6373  -44.0807 C.2       2 UNK         0.5000 
     61 O           6.4930  -10.4421  -43.1409 O.2       2 UNK        -0.5000 
     62 CA          6.0952  -10.1769  -45.5077 C.3       2 UNK         0.1400 
     63 CB          7.6193  -10.0591  -45.7232 C.3       2 UNK        -0.1800 
     64 N           5.4678  -10.9793  -46.5685 N.am      2 UNK        -0.5000 
     65 C           5.6751  -12.2801  -46.8293 C.2       1 UNK         0.5000 
     66 O           6.4633  -12.9886  -46.2002 O.2       1 UNK        -0.5000 
     67 C          -1.4364  -23.1420  -48.1569 C.2       11 UNK         0.5000 
     68 O          -1.5862  -24.1967  -48.7746 O.2       11 UNK        -0.5000 
     69 N          -2.4603  -22.3939  -47.7253 N.am      12 UNK        -0.5000 
     70 CA         -3.8644  -22.7778  -47.8753 C.3       12 UNK         0.1400 
     71 CB         -4.7745  -21.5945  -47.5177 C.3       12 UNK        -0.1800 
     72 C          -4.2184  -24.0368  -47.0623 C.2       12 UNK         0.5000 
     73 O          -4.8523  -24.9432  -47.6016 O.2       12 UNK        -0.5000 
     74 N          -3.7546  -24.0998  -45.8061 N.am      13 UNK        -0.5000 
     75 CA         -3.9156  -25.2484  -44.9102 C.3       13 UNK         0.1400 
     76 CB         -3.4319  -24.8705  -43.5021 C.3       13 UNK        -0.1800 
     77 C          -3.1943  -26.5148  -45.4111 C.2       13 UNK         0.5000 
     78 O          -3.7361  -27.6133  -45.2851 O.2       13 UNK        -0.5000 
     79 N          -2.0029  -26.3366  -45.9973 N.am      14 UNK        -0.5000 
     80 CA         -1.2047  -27.3948  -46.6212 C.3       14 UNK         0.1400 
     81 CB          0.2432  -26.8985  -46.7652 C.3       14 UNK        -0.1800 
     82 C          -1.7438  -27.8554  -47.9916 C.2       14 UNK         0.5000 
     83 O          -1.2614  -28.8613  -48.5131 O.2       14 UNK        -0.5000 
     84 N          -2.6997  -27.1048  -48.5604 N.am      15 UNK        -0.5000 
     85 CA         -3.2797  -27.2575  -49.8994 C.3       15 UNK         0.1400 
     86 CB         -4.0330  -28.5967  -50.0378 C.3       15 UNK        -0.1800 
     87 C          -2.2617  -27.0095  -51.0350 C.2       15 UNK         0.5000 
     88 O          -2.4249  -27.5317  -52.1392 O.2       15 UNK        -0.5000 
     89 N          -1.2417  -26.1889  -50.7490 N.am      16 UNK        -0.5000 
     90 CA         -0.3346  -25.6050  -51.7363 C.3       16 UNK         0.1400 
     91 CB          0.9766  -25.2006  -51.0442 C.3       16 UNK        -0.1800 
     92 C          -0.9917  -24.3919  -52.4214 C.2       16 UNK         0.5000 
     93 O          -0.7543  -24.1587  -53.6069 O.2       16 UNK        -0.5000 
     94 N          -1.8302  -23.6729  -51.6634 N.am      17 UNK        -0.5000 
     95 CA         -2.7714  -22.6711  -52.1500 C.3       17 UNK         0.1400 
     96 CB         -2.5447  -21.3445  -51.3990 C.3       17 UNK        -0.1800 
     97 C          -4.1998  -23.2377  -52.0138 C.2       17 UNK         0.5000 
     98 O          -4.4086  -24.4111  -52.3283 O.2       17 UNK        -0.5000 
     99 N          -5.1479  -22.4044  -51.5568 N.am      18 UNK        -0.5000 
    100 CA        -6.5943  -22.6538  -51.4790 C.3       18 UNK         0.1400 
    101 CB        -6.9098  -23.8779  -50.5914 C.3       18 UNK        -0.1800 
    102 C         -7.2641  -22.7372  -52.8692 C.2       18 UNK         0.5000 
    103 O         -6.5984  -22.5795  -53.8960 O.2       18 UNK        -0.5000 
    104 N         -8.5894  -22.9420  -52.8747 N.am      19 UNK        -0.5000 
    105 CA        -9.4658  -22.9895  -54.0501 C.3       19 UNK         0.1400 
    106 CB        -9.1865  -24.2573  -54.8897 C.3       19 UNK        -0.1800 
    107 C         -9.4062  -21.6731  -54.8550 C.2       19 UNK         0.5000 
    108 O         -9.9540  -20.6684  -54.3994 O.2       19 UNK        -0.5000 
    109 N         -8.7437  -21.6956  -56.0187 N.am      20 UNK        -0.5000 
    110 CA        -8.5210  -20.5310  -56.8768 C.3       20 UNK         0.1400 
    111 CB        -8.2007  -21.0204  -58.2979 C.3       20 UNK        -0.1800 
    112 C         -7.4050  -19.5961  -56.3657 C.2       20 UNK         0.5000 
    113 O         -7.3828  -18.4263  -56.7526 O.2       20 UNK        -0.5000 
    114 N         -6.4969  -20.1160  -55.5287 N.am      21 UNK        -0.5000 
    115 CA        -5.4134  -19.3629  -54.8971 C.3       21 UNK         0.1400 
    116 CB        -4.1970  -20.2916  -54.7412 C.3       21 UNK        -0.1800 
    117 C         -5.8640  -18.7611  -53.5496 C.2       21 UNK         0.5000 
    118 O         -7.0363  -18.8651  -53.1824 O.2       21 UNK        -0.5000 
    119 N         -4.9156  -18.1405  -52.8369 N.am      22 UNK        -0.5000 
    120 CA        -5.0599  -17.3630  -51.5873 C.3       22 UNK         0.1400 
    121 C         -5.7104  -18.0579  -50.3431 C.2       22 UNK         0.5000 
    122 N         -6.4221  -19.1636  -50.4926 N.am      22 UNK        -0.7600 
    123 O         -5.5940  -17.5698  -49.2224 O.2       22 UNK        -0.5000 
    124 C124       -3.7243  -16.6511  -51.2403 C.3       23 UNK        -0.0398 
    125 S125       -2.3914  -17.7999  -50.7457 S.3       23 UNK        -0.2404 
    126 C126       -1.0035  -17.2902  -51.8027 C.3       23 UNK        -0.0205 
    127 H127        1.0397  -11.6075  -48.0051 H         1 UNK         0.0600 
    128 H128        0.8206  -11.6877  -46.2565 H         1 UNK         0.0600 
    129 H129        0.4432  -13.0929  -47.2615 H         1 UNK         0.0600 
    130 H130        3.1140  -11.9118  -48.7031 H         1 UNK         0.3000 
    131 H131        5.2399  -12.4173  -48.8944 H         1 UNK         0.0600 
    132 H132        6.1044  -14.6352  -48.2553 H         1 UNK         0.0800 
    133 H133        4.7381  -14.9239  -47.2224 H         1 UNK         0.0800 
    134 H134        3.1673  -16.4858  -47.8740 H         1 UNK         0.0800 
    135 H135        2.0780  -15.2350  -48.4135 H         1 UNK         0.0800 
    136 H136        0.5584  -15.6677  -50.2786 H         1 UNK         0.1150 
    137 H137        0.3249  -19.6734  -51.7869 H         1 UNK         0.1150 
    138 H138        3.5436  -18.5444  -49.1926 H         1 UNK         0.1150 
    139 H139        2.0949  -21.2503  -51.3556 H         1 UNK         0.0800 
    140 H140        3.6205  -20.6420  -50.7624 H         1 UNK         0.0800 
    141 H141        0.1667  -22.0072  -49.9276 H         1 UNK         0.0800 
    142 H142        0.0439  -20.6840  -48.7918 H         1 UNK         0.0800 
    143 H143        0.6270  -23.5440  -47.8863 H         1 UNK         0.0600 
    144 H144        0.3595  -21.1316  -46.4092 H         1 UNK         0.3000 
    145 H145       -0.5622  -22.7097  -43.2875 H         1 UNK         0.0600 
    146 H146        1.3677  -21.3221  -42.5851 H         1 UNK         0.0600 
    147 H147        1.8956  -21.1627  -44.2590 H         1 UNK         0.0600 
    148 H148        1.9140  -22.7348  -43.4749 H         1 UNK         0.0600 
    149 H149       -0.3218  -19.9636  -43.9197 H         1 UNK         0.3000 
    150 H150       -3.7005  -19.4441  -45.0379 H         1 UNK         0.0600 
    151 H151       -3.5804  -17.7526  -43.2322 H         1 UNK         0.0600 
    152 H152       -2.1809  -18.5579  -42.5280 H         1 UNK         0.0600 
    153 H153       -3.7468  -19.3603  -42.5416 H         1 UNK         0.0600 
    154 H154       -1.5763  -17.6058  -44.7624 H         1 UNK         0.3000 
    155 H155       -0.0930  -18.0621  -48.0021 H         1 UNK         0.0600 
    156 H156       -1.9893  -16.4399  -48.1619 H         1 UNK         0.0600 
    157 H157       -0.4623  -15.6075  -47.9209 H         1 UNK         0.0600 
    158 H158       -1.5934  -15.7888  -46.5834 H         1 UNK         0.0600 
    159 H159        0.6041  -16.4949  -45.6850 H         1 UNK         0.3000 
    160 H160        2.8153  -18.8450  -44.2021 H         1 UNK         0.0600 
    161 H161        3.4924  -16.2252  -45.6204 H         1 UNK         0.0600 
    162 H162        4.1597  -17.7953  -46.0788 H         1 UNK         0.0600 
    163 H163        4.5018  -17.1212  -44.4939 H         1 UNK         0.0600 
    164 H164        2.1589  -16.0902  -43.6655 H         1 UNK         0.3000 
    165 H165       -0.5332  -16.7897  -41.4250 H         1 UNK         0.0600 
    166 H166        0.9269  -15.4402  -39.9455 H         1 UNK         0.0600 
    167 H167        1.5815  -17.0608  -40.1183 H         1 UNK         0.0600 
    168 H168        2.3123  -15.7246  -40.9992 H         1 UNK         0.0600 
    169 H169        0.5852  -14.3194  -42.1705 H         1 UNK         0.3000 
    170 H170       -0.5048  -13.5688  -45.0260 H         1 UNK         0.0600 
    171 H171       -3.0771  -13.3077  -43.3880 H         1 UNK         0.0600 
    172 H172       -2.6224  -12.2656  -44.7363 H         1 UNK         0.0600 
    173 H173       -2.9294  -13.9720  -45.0077 H         1 UNK         0.0600 
    174 H174        0.3913  -12.0071  -43.7540 H         1 UNK         0.3000 
    175 H175        0.0564  -10.0717  -42.0569 H         1 UNK         0.0600 
    176 H176        0.1943  -11.5083  -39.3554 H         1 UNK         0.0600 
    177 H177        0.6084   -9.8194  -39.6500 H         1 UNK         0.0600 
    178 H178       -1.0473  -10.3639  -39.8528 H         1 UNK         0.0600 
    179 H179        2.1801  -11.5841  -40.7851 H         1 UNK         0.3000 
    180 H180        4.3434  -11.0899  -41.8516 H         1 UNK         0.0600 
    181 H181        5.0854  -13.4233  -42.5037 H         1 UNK         0.0600 
    182 H182        3.5457  -13.6830  -43.3173 H         1 UNK         0.0600 
    183 H183        3.5984  -13.4633  -41.5713 H         1 UNK         0.0600 
    184 H184        3.9259  -11.3018  -44.7572 H         1 UNK         0.3000 
    185 H185        5.6786   -9.1739  -45.6095 H         1 UNK         0.0600 
    186 H186        7.8504   -9.7283  -46.7357 H         1 UNK         0.0600 
    187 H187        8.0553   -9.3306  -45.0387 H         1 UNK         0.0600 
    188 H188        8.1291  -11.0079  -45.5547 H         1 UNK         0.0600 
    189 H189        4.7857  -10.4929  -47.1338 H         1 UNK         0.3000 
    190 H190       -2.2684  -21.4990  -47.2829 H         1 UNK         0.3000 
    191 H191       -4.0315  -23.0166  -48.9267 H         1 UNK         0.0600 
    192 H192       -4.5544  -20.7266  -48.1405 H         1 UNK         0.0600 
    193 H193       -4.6592  -21.2958  -46.4761 H         1 UNK         0.0600 
    194 H194       -5.8234  -21.8495  -47.6732 H         1 UNK         0.0600 
    195 H195       -3.2734  -23.2898  -45.4213 H         1 UNK         0.3000 
    196 H196       -4.9818  -25.4769  -44.8529 H         1 UNK         0.0600 
    197 H197       -3.9960  -24.0261  -43.1055 H         1 UNK         0.0600 
    198 H198       -2.3763  -24.5971  -43.4997 H         1 UNK         0.0600 
    199 H199       -3.5587  -25.7020  -42.8079 H         1 UNK         0.0600 
    200 H200       -1.5897  -25.4080  -45.9872 H         1 UNK         0.3000 
    201 H201       -1.2043  -28.2641  -45.9606 H         1 UNK         0.0600 
    202 H202        0.6648  -26.6254  -45.7977 H         1 UNK         0.0600 
    203 H203        0.3042  -26.0256  -47.4161 H         1 UNK         0.0600 
    204 H204        0.8847  -27.6710  -47.1910 H         1 UNK         0.0600 
    205 H205       -3.0232  -26.2959  -48.0450 H         1 UNK         0.3000 
    206 H206       -4.0189  -26.4600  -49.9909 H         1 UNK         0.0600 
    207 H207       -3.3526  -29.4483  -50.0460 H         1 UNK         0.0600 
    208 H208       -4.7393  -28.7372  -49.2196 H         1 UNK         0.0600 
    209 H209       -4.6038  -28.6278  -50.9665 H         1 UNK         0.0600 
    210 H210       -1.2259  -25.7672  -49.8256 H         1 UNK         0.3000 
    211 H211       -0.1053  -26.3491  -52.5019 H         1 UNK         0.0600 
    212 H212        0.8121  -24.4565  -50.2654 H         1 UNK         0.0600 
    213 H213        1.6802  -24.7748  -51.7605 H         1 UNK         0.0600 
    214 H214        1.4605  -26.0626  -50.5847 H         1 UNK         0.0600 
    215 H215       -1.9601  -23.9703  -50.7028 H         1 UNK         0.3000 
    216 H216       -2.6074  -22.4869  -53.2131 H         1 UNK         0.0600 
    217 H217       -3.1633  -20.5460  -51.8089 H         1 UNK         0.0600 
    218 H218       -2.7674  -21.4239  -50.3361 H         1 UNK         0.0600 
    219 H219       -1.5105  -21.0189  -51.4937 H         1 UNK         0.0600 
    220 H220       -4.8684  -21.4612  -51.3287 H         1 UNK         0.3000 
    221 H221       -7.0214  -21.7804  -50.9878 H         1 UNK         0.0600 
    222 H222       -6.6485  -24.8174  -51.0788 H         1 UNK         0.0600 
    223 H223       -6.3688  -23.8296  -49.6471 H         1 UNK         0.0600 
    224 H224       -7.9708  -23.9268  -50.3462 H         1 UNK         0.0600 
    225 H225       -9.0634  -23.0191  -51.9861 H         1 UNK         0.3000 
    226 H226      -10.4867  -23.0686  -53.6733 H         1 UNK         0.0600 
    227 H227       -9.3527  -25.1568  -54.2969 H         1 UNK         0.0600 
    228 H228       -9.8553  -24.3133  -55.7495 H         1 UNK         0.0600 
    229 H229       -8.1625  -24.2972  -55.2617 H         1 UNK         0.0600 
    230 H230       -8.3010  -22.5581  -56.3009 H         1 UNK         0.3000 
    231 H231       -9.4434  -19.9477  -56.9193 H         1 UNK         0.0600 
    232 H232       -8.0588  -20.1797  -58.9784 H         1 UNK         0.0600 
    233 H233       -9.0126  -21.6275  -58.6989 H         1 UNK         0.0600 
    234 H234       -7.2891  -21.6190  -58.3213 H         1 UNK         0.0600 
    235 H235       -6.6293  -21.0640  -55.1895 H         1 UNK         0.3000 
    236 H236       -5.1209  -18.5329  -55.5434 H         1 UNK         0.0600 
    237 H237       -4.4134  -21.1147  -54.0644 H         1 UNK         0.0600 
    238 H238       -3.9071  -20.7209  -55.7004 H         1 UNK         0.0600 
    239 H239       -3.3265  -19.7615  -54.3539 H         1 UNK         0.0600 
    240 H240       -3.9770  -18.1506  -53.2064 H         1 UNK         0.3000 
    241 H241       -5.7688  -16.5706  -51.8323 H         1 UNK         0.0600 
    242 H242       -6.8702  -19.5719  -49.6892 H         1 UNK         0.3800 
    243 H243       -6.7098  -19.4055  -51.4355 H         1 UNK         0.3800 
    244 H244       -3.3987  -16.0546  -52.0932 H         1 UNK         0.0800 
    245 H245       -3.8718  -15.9352  -50.4299 H         1 UNK         0.0800 
    246 H246       -1.0739  -17.7899  -52.7698 H         1 UNK         0.0800 
    247 H247       -1.0512  -16.2177  -51.9973 H         1 UNK         0.0800 
@<TRIPOS>BOND
     1    1    2 1    
     2    1  127 1    
     3    1  128 1    
     4    1  129 1    
     5    2    3 2    
     6    2    4 am   BACKBONE|DICT|INTERRES
     7    4    5 1    
     8    4  130 1    
     9    5    6 1    
    10    5   65 1    
    11    5  131 1    
    12    6    7 1    
    13    6  132 1    
    14    6  133 1    
    15    7    8 1    
    16    8    9 1    
    17    8  134 1    
    18    8  135 1    
    19    9   10 ar   
    20    9   14 ar   
    21   10   11 ar   
    22   10  136 1    
    23   11   12 ar   
    24   11  126 1    
    25   12   13 ar   
    26   12  137 1    
    27   13   14 ar   
    28   13   15 1    
    29   14  138 1    
    30   15   16 1    
    31   15  139 1    
    32   15  140 1    
    33   16   17 1    
    34   17   18 1    
    35   17  141 1    
    36   17  142 1    
    37   18   19 1    
    38   18   67 1    
    39   18  143 1    
    40   19   20 am   BACKBONE|DICT|INTERRES
    41   19  144 1    
    42   20   21 2    
    43   20   22 1    
    44   22   23 1    
    45   22   24 1    
    46   22  145 1    
    47   23  146 1    
    48   23  147 1    
    49   23  148 1    
    50   24   25 am   BACKBONE|DICT|INTERRES
    51   24  149 1    
    52   25   26 2    
    53   25   27 1    
    54   27   28 1    
    55   27   29 1    
    56   27  150 1    
    57   28  151 1    
    58   28  152 1    
    59   28  153 1    
    60   29   30 am   BACKBONE|DICT|INTERRES
    61   29  154 1    
    62   30   31 2    
    63   30   32 1    
    64   32   33 1    
    65   32   34 1    
    66   32  155 1    
    67   33  156 1    
    68   33  157 1    
    69   33  158 1    
    70   34   35 am   BACKBONE|DICT|INTERRES
    71   34  159 1    
    72   35   36 2    
    73   35   37 1    
    74   37   38 1    
    75   37   39 1    
    76   37  160 1    
    77   38  161 1    
    78   38  162 1    
    79   38  163 1    
    80   39   40 am   BACKBONE|DICT|INTERRES
    81   39  164 1    
    82   40   41 2    
    83   40   42 1    
    84   42   43 1    
    85   42   44 1    
    86   42  165 1    
    87   43  166 1    
    88   43  167 1    
    89   43  168 1    
    90   44   45 am   BACKBONE|DICT|INTERRES
    91   44  169 1    
    92   45   46 2    
    93   45   47 1    
    94   47   48 1    
    95   47   49 1    
    96   47  170 1    
    97   48  171 1    
    98   48  172 1    
    99   48  173 1    
   100   49   50 am   BACKBONE|DICT|INTERRES
   101   49  174 1    
   102   50   51 2    
   103   50   52 1    
   104   52   53 1    
   105   52   54 1    
   106   52  175 1    
   107   53  176 1    
   108   53  177 1    
   109   53  178 1    
   110   54   55 am   BACKBONE|DICT|INTERRES
   111   54  179 1    
   112   55   56 2    
   113   55   57 1    
   114   57   58 1    
   115   57   59 1    
   116   57  180 1    
   117   58  181 1    
   118   58  182 1    
   119   58  183 1    
   120   59   60 am   BACKBONE|DICT|INTERRES
   121   59  184 1    
   122   60   61 2    
   123   60   62 1    
   124   62   63 1    
   125   62   64 1    
   126   62  185 1    
   127   63  186 1    
   128   63  187 1    
   129   63  188 1    
   130   64   65 am   BACKBONE|DICT|INTERRES
   131   64  189 1    
   132   65   66 2    
   133   67   68 2    
   134   67   69 am   BACKBONE|DICT|INTERRES
   135   69   70 1    
   136   69  190 1    
   137   70   71 1    
   138   70   72 1    
   139   70  191 1    
   140   71  192 1    
   141   71  193 1    
   142   71  194 1    
   143   72   73 2    
   144   72   74 am   BACKBONE|DICT|INTERRES
   145   74   75 1    
   146   74  195 1    
   147   75   76 1    
   148   75   77 1    
   149   75  196 1    
   150   76  197 1    
   151   76  198 1    
   152   76  199 1    
   153   77   78 2    
   154   77   79 am   BACKBONE|DICT|INTERRES
   155   79   80 1    
   156   79  200 1    
   157   80   81 1    
   158   80   82 1    
   159   80  201 1    
   160   81  202 1    
   161   81  203 1    
   162   81  204 1    
   163   82   83 2    
   164   82   84 am   BACKBONE|DICT|INTERRES
   165   84   85 1    
   166   84  205 1    
   167   85   86 1    
   168   85   87 1    
   169   85  206 1    
   170   86  207 1    
   171   86  208 1    
   172   86  209 1    
   173   87   88 2    
   174   87   89 am   BACKBONE|DICT|INTERRES
   175   89   90 1    
   176   89  210 1    
   177   90   91 1    
   178   90   92 1    
   179   90  211 1    
   180   91  212 1    
   181   91  213 1    
   182   91  214 1    
   183   92   93 2    
   184   92   94 am   BACKBONE|DICT|INTERRES
   185   94   95 1    
   186   94  215 1    
   187   95   96 1    
   188   95   97 1    
   189   95  216 1    
   190   96  217 1    
   191   96  218 1    
   192   96  219 1    
   193   97   98 2    
   194   97   99 am   BACKBONE|DICT|INTERRES
   195   99  100 1    
   196   99  220 1    
   197  100  101 1    
   198  100  102 1    
   199  100  221 1    
   200  101  222 1    
   201  101  223 1    
   202  101  224 1    
   203  102  103 2    
   204  102  104 am   BACKBONE|DICT|INTERRES
   205  104  105 1    
   206  104  225 1    
   207  105  106 1    
   208  105  107 1    
   209  105  226 1    
   210  106  227 1    
   211  106  228 1    
   212  106  229 1    
   213  107  108 2    
   214  107  109 am   BACKBONE|DICT|INTERRES
   215  109  110 1    
   216  109  230 1    
   217  110  111 1    
   218  110  112 1    
   219  110  231 1    
   220  111  232 1    
   221  111  233 1    
   222  111  234 1    
   223  112  113 2    
   224  112  114 am   BACKBONE|DICT|INTERRES
   225  114  115 1    
   226  114  235 1    
   227  115  116 1    
   228  115  117 1    
   229  115  236 1    
   230  116  237 1    
   231  116  238 1    
   232  116  239 1    
   233  117  118 2    
   234  117  119 am   BACKBONE|DICT|INTERRES
   235  119  120 1    
   236  119  240 1    
   237  120  121 1    
   238  120  124 1    
   239  120  241 1    
   240  121  122 am   BACKBONE|DICT|INTERRES
   241  121  123 2    
   242  122  242 1    
   243  122  243 1    
   244  124  125 1    
   245  124  244 1    
   246  124  245 1    
   247  125  126 1    
   248  126  246 1    
   249  126  247 1    
@<TRIPOS>SUBSTRUCTURE
     1 UNK         1 GROUP             0       ****    0 ROOT    
