@<TRIPOS>MOLECULE
3R540
247   249    1
SMALL
USER_CHARGES


@<TRIPOS>ATOM
      1 CA         -4.9964  -14.0684  -49.9159 C.3       0 UNK        -0.1800 
      2 C          -3.8362  -14.3596  -48.9761 C.2       0 UNK         0.5000 
      3 O          -2.6822  -14.1644  -49.3538 O.2       0 UNK        -0.5000 
      4 N          -4.1285  -14.7994  -47.7452 N.am      1 UNK        -0.5000 
      5 CA         -3.1340  -15.1482  -46.7184 C.3       1 UNK         0.1400 
      6 C6         -3.7758  -15.7887  -45.4658 C.3       23 UNK        -0.0398 
      7 S7         -4.8163  -17.2345  -45.8525 S.3       23 UNK        -0.2404 
      8 C8         -3.7673  -18.6228  -45.3207 C.3       23 UNK        -0.0205 
      9 C9         -2.7416  -19.0240  -46.3727 C.ar      23 UNK        -0.0193 
     10 C10        -3.1627  -19.6368  -47.5563 C.ar      23 UNK        -0.1150 
     11 C11        -2.2269  -20.0980  -48.4854 C.ar      23 UNK        -0.0193 
     12 C12        -0.8668  -19.9115  -48.2448 C.ar      23 UNK        -0.1150 
     13 C13        -0.4284  -19.2986  -47.0705 C.ar      23 UNK        -0.0193 
     14 C14        -1.3728  -18.8553  -46.1384 C.ar      23 UNK        -0.1150 
     15 C15         1.0616  -19.1194  -46.8105 C.3       23 UNK        -0.0205 
     16 S16         2.0347  -20.6423  -47.0680 S.3       23 UNK        -0.2404 
     17 C17         1.5862  -21.5850  -45.5779 C.3       23 UNK        -0.0398 
     18 CA          1.0901  -23.0302  -45.8321 C.3       11 UNK         0.1400 
     19 N           1.0093  -23.7611  -44.5645 N.am      11 UNK        -0.5000 
     20 C           0.7864  -25.0748  -44.4244 C.2       10 UNK         0.5000 
     21 O           0.6732  -25.8591  -45.3650 O.2       10 UNK        -0.5000 
     22 CA          0.6101  -25.5795  -42.9801 C.3       10 UNK         0.1400 
     23 CB          1.9750  -25.8452  -42.3280 C.3       10 UNK        -0.1800 
     24 N          -0.1502  -24.6388  -42.1522 N.am      10 UNK        -0.5000 
     25 C          -1.4495  -24.3590  -42.3309 C.2       9 UNK         0.5000 
     26 O          -2.1505  -24.9072  -43.1790 O.2       9 UNK        -0.5000 
     27 CA         -2.0586  -23.2534  -41.4487 C.3       9 UNK         0.1400 
     28 CB         -2.6068  -23.8468  -40.1426 C.3       9 UNK        -0.1800 
     29 N          -1.1127  -22.1791  -41.1361 N.am      9 UNK        -0.5000 
     30 C          -0.5900  -21.3401  -42.0402 C.2       8 UNK         0.5000 
     31 O          -0.8439  -21.3924  -43.2452 O.2       8 UNK        -0.5000 
     32 CA          0.4529  -20.3413  -41.5032 C.3       8 UNK         0.1400 
     33 CB          1.8499  -20.9820  -41.5201 C.3       8 UNK        -0.1800 
     34 N           0.5181  -19.0734  -42.2317 N.am      8 UNK        -0.5000 
     35 C          -0.4656  -18.1741  -42.3432 C.2       7 UNK         0.5000 
     36 O          -1.6072  -18.3678  -41.9240 O.2       7 UNK        -0.5000 
     37 CA         -0.1453  -16.8113  -43.0071 C.3       7 UNK         0.1400 
     38 CB         -0.2428  -15.6717  -41.9744 C.3       7 UNK        -0.1800 
     39 N           1.1142  -16.6852  -43.7624 N.am      7 UNK        -0.5000 
     40 C           2.3796  -16.8063  -43.3285 C.2       6 UNK         0.5000 
     41 O           2.6917  -17.2538  -42.2257 O.2       6 UNK        -0.5000 
     42 CA          3.4919  -16.3208  -44.2803 C.3       6 UNK         0.1400 
     43 CB          4.0488  -17.4719  -45.1309 C.3       6 UNK        -0.1800 
     44 N           3.0733  -15.2241  -45.1572 N.am      6 UNK        -0.5000 
     45 C           2.7722  -13.9864  -44.7428 C.2       5 UNK         0.5000 
     46 O           2.8267  -13.6370  -43.5631 O.2       5 UNK        -0.5000 
     47 CA          2.3246  -12.9580  -45.7988 C.3       5 UNK         0.1400 
     48 CB          3.4985  -12.0622  -46.2362 C.3       5 UNK        -0.1800 
     49 N           1.6173  -13.5081  -46.9610 N.am      5 UNK        -0.5000 
     50 C           2.0726  -14.2591  -47.9732 C.2       4 UNK         0.5000 
     51 O           3.2053  -14.7381  -48.0200 O.2       4 UNK        -0.5000 
     52 CA          1.0845  -14.5222  -49.1283 C.3       4 UNK         0.1400 
     53 CB          0.3277  -15.8346  -48.8921 C.3       4 UNK        -0.1800 
     54 N           0.1120  -13.4435  -49.3041 N.am      4 UNK        -0.5000 
     55 C           0.4042  -12.1956  -49.6979 C.2       3 UNK         0.5000 
     56 O           1.5226  -11.8325  -50.0635 O.2       3 UNK        -0.5000 
     57 CA         -0.7430  -11.1732  -49.6249 C.3       3 UNK         0.1400 
     58 CB         -1.6140  -11.2281  -50.8900 C.3       3 UNK        -0.1800 
     59 N          -1.5761  -11.3915  -48.4405 N.am      3 UNK        -0.5000 
     60 C          -1.2216  -11.0486  -47.1931 C.2       2 UNK         0.5000 
     61 O          -0.1854  -10.4439  -46.9184 O.2       2 UNK        -0.5000 
     62 CA         -2.1699  -11.4714  -46.0554 C.3       2 UNK         0.1400 
     63 CB         -3.2180  -10.3799  -45.7934 C.3       2 UNK        -0.1800 
     64 N          -2.8520  -12.7366  -46.3295 N.am      2 UNK        -0.5000 
     65 C          -2.2655  -13.9421  -46.2982 C.2       1 UNK         0.5000 
     66 O          -1.0900  -14.1198  -45.9805 O.2       1 UNK        -0.5000 
     67 C          -0.2580  -23.0872  -46.5843 C.2       11 UNK         0.5000 
     68 O          -0.2795  -23.3628  -47.7871 O.2       11 UNK        -0.5000 
     69 N          -1.3546  -22.8950  -45.8354 N.am      12 UNK        -0.5000 
     70 CA         -2.7301  -23.0143  -46.3119 C.3       12 UNK         0.1400 
     71 CB         -3.6954  -22.5076  -45.2300 C.3       12 UNK        -0.1800 
     72 C          -3.0889  -24.4423  -46.7531 C.2       12 UNK         0.5000 
     73 O          -3.6248  -24.6158  -47.8473 O.2       12 UNK        -0.5000 
     74 N          -2.7608  -25.4364  -45.9156 N.am      13 UNK        -0.5000 
     75 CA         -3.0038  -26.8598  -46.1647 C.3       13 UNK         0.1400 
     76 CB         -2.6558  -27.6671  -44.9052 C.3       13 UNK        -0.1800 
     77 C          -2.2377  -27.4038  -47.3837 C.2       13 UNK         0.5000 
     78 O          -2.7880  -28.2053  -48.1397 O.2       13 UNK        -0.5000 
     79 N          -0.9956  -26.9381  -47.5683 N.am      14 UNK        -0.5000 
     80 CA         -0.1567  -27.2486  -48.7262 C.3       14 UNK         0.1400 
     81 CB          1.3010  -26.9064  -48.3814 C.3       14 UNK        -0.1800 
     82 C          -0.5853  -26.5100  -50.0104 C.2       14 UNK         0.5000 
     83 O          -0.1572  -26.9066  -51.0949 O.2       14 UNK        -0.5000 
     84 N          -1.3854  -25.4408  -49.8645 N.am      15 UNK        -0.5000 
     85 CA         -1.8006  -24.4842  -50.8980 C.3       15 UNK         0.1400 
     86 CB         -2.7283  -25.1559  -51.9307 C.3       15 UNK        -0.1800 
     87 C          -0.5920  -23.7662  -51.5438 C.2       15 UNK         0.5000 
     88 O          -0.5948  -23.4998  -52.7465 O.2       15 UNK        -0.5000 
     89 N           0.4442  -23.5166  -50.7305 N.am      16 UNK        -0.5000 
     90 CA          1.8140  -23.2710  -51.1836 C.3       16 UNK         0.1400 
     91 CB          2.7620  -23.3983  -49.9816 C.3       16 UNK        -0.1800 
     92 C           2.0399  -21.9324  -51.9058 C.2       16 UNK         0.5000 
     93 O           2.8888  -21.8666  -52.7960 O.2       16 UNK        -0.5000 
     94 N           1.3084  -20.8883  -51.4993 N.am      17 UNK        -0.5000 
     95 CA          1.5087  -19.5246  -51.9952 C.3       17 UNK         0.1400 
     96 CB          0.9843  -18.5296  -50.9537 C.3       17 UNK        -0.1800 
     97 C           0.8545  -19.2562  -53.3610 C.2       17 UNK         0.5000 
     98 O           1.2850  -18.3349  -54.0553 O.2       17 UNK        -0.5000 
     99 N          -0.1828  -20.0361  -53.7045 N.am      18 UNK        -0.5000 
    100 CA        -1.0321  -19.8945  -54.8964 C.3       18 UNK         0.1400 
    101 CB        -0.2363  -20.2229  -56.1766 C.3       18 UNK        -0.1800 
    102 C         -1.7656  -18.5324  -54.9745 C.2       18 UNK         0.5000 
    103 O         -2.0526  -18.0427  -56.0687 O.2       18 UNK        -0.5000 
    104 N         -2.0556  -17.9484  -53.8045 N.am      19 UNK        -0.5000 
    105 CA        -2.8193  -16.7157  -53.6263 C.3       19 UNK         0.1400 
    106 CB        -2.4515  -16.1175  -52.2558 C.3       19 UNK        -0.1800 
    107 C         -4.3356  -16.9755  -53.7342 C.2       19 UNK         0.5000 
    108 O         -4.7641  -18.1239  -53.8667 O.2       19 UNK        -0.5000 
    109 N         -5.1354  -15.9043  -53.6393 N.am      20 UNK        -0.5000 
    110 CA        -6.6016  -15.9316  -53.7374 C.3       20 UNK         0.1400 
    111 CB        -7.1324  -14.4927  -53.6456 C.3       20 UNK        -0.1800 
    112 C         -7.3028  -16.8272  -52.6930 C.2       20 UNK         0.5000 
    113 O         -8.3718  -17.3688  -52.9759 O.2       20 UNK        -0.5000 
    114 N         -6.6779  -16.9863  -51.5191 N.am      21 UNK        -0.5000 
    115 CA        -7.1311  -17.8655  -50.4398 C.3       21 UNK         0.1400 
    116 CB        -6.4940  -17.3904  -49.1241 C.3       21 UNK        -0.1800 
    117 C         -6.8003  -19.3528  -50.6794 C.2       21 UNK         0.5000 
    118 O         -7.3429  -20.2069  -49.9773 O.2       21 UNK        -0.5000 
    119 N         -5.9047  -19.6389  -51.6318 N.am      22 UNK        -0.5000 
    120 CA        -5.3399  -20.9726  -51.8880 C.3       22 UNK         0.1400 
    121 C         -6.1334  -21.8097  -52.9316 C.2       22 UNK         0.5000 
    122 N         -7.1938  -21.2889  -53.5373 N.am      22 UNK        -0.7600 
    123 O         -5.7877  -22.9593  -53.1882 O.2       22 UNK        -0.5000 
    124 C124       -3.8318  -20.8979  -52.2556 C.3       23 UNK        -0.0398 
    125 S125       -2.8605  -19.8097  -51.1535 S.3       23 UNK        -0.2404 
    126 C126       -2.6735  -20.8774  -49.7052 C.3       23 UNK        -0.0205 
    127 H127       -4.9134  -13.0544  -50.3079 H         1 UNK         0.0600 
    128 H128       -5.9601  -14.1591  -49.4140 H         1 UNK         0.0600 
    129 H129       -4.9774  -14.7598  -50.7567 H         1 UNK         0.0600 
    130 H130       -5.0917  -14.9592  -47.4868 H         1 UNK         0.3000 
    131 H131       -2.4647  -15.8882  -47.1619 H         1 UNK         0.0600 
    132 H132       -4.4061  -15.0629  -44.9487 H         1 UNK         0.0800 
    133 H133       -3.0079  -16.0812  -44.7491 H         1 UNK         0.0800 
    134 H134       -3.2886  -18.3932  -44.3675 H         1 UNK         0.0800 
    135 H135       -4.4193  -19.4748  -45.1277 H         1 UNK         0.0800 
    136 H136       -4.2180  -19.7912  -47.7333 H         1 UNK         0.1150 
    137 H137       -0.1436  -20.2816  -48.9547 H         1 UNK         0.1150 
    138 H138       -1.0411  -18.4025  -45.2188 H         1 UNK         0.1150 
    139 H139        1.4473  -18.3520  -47.4778 H         1 UNK         0.0800 
    140 H140        1.2299  -18.7592  -45.7955 H         1 UNK         0.0800 
    141 H141        0.8496  -21.0204  -45.0093 H         1 UNK         0.0800 
    142 H142        2.4808  -21.6140  -44.9548 H         1 UNK         0.0800 
    143 H143        1.8306  -23.5392  -46.4529 H         1 UNK         0.0600 
    144 H144        1.0349  -23.1996  -43.7276 H         1 UNK         0.3000 
    145 H145        0.0609  -26.5224  -43.0198 H         1 UNK         0.0600 
    146 H146        1.8590  -26.2722  -41.3317 H         1 UNK         0.0600 
    147 H147        2.5572  -26.5542  -42.9183 H         1 UNK         0.0600 
    148 H148        2.5647  -24.9323  -42.2358 H         1 UNK         0.0600 
    149 H149        0.3526  -24.1580  -41.4213 H         1 UNK         0.3000 
    150 H150       -2.8929  -22.8148  -42.0003 H         1 UNK         0.0600 
    151 H151       -1.8139  -24.2796  -39.5314 H         1 UNK         0.0600 
    152 H152       -3.3317  -24.6360  -40.3471 H         1 UNK         0.0600 
    153 H153       -3.1147  -23.0879  -39.5472 H         1 UNK         0.0600 
    154 H154       -0.8468  -22.0844  -40.1664 H         1 UNK         0.3000 
    155 H155        0.1943  -20.1042  -40.4693 H         1 UNK         0.0600 
    156 H156        2.1810  -21.1985  -42.5358 H         1 UNK         0.0600 
    157 H157        1.8642  -21.9189  -40.9618 H         1 UNK         0.0600 
    158 H158        2.5893  -20.3240  -41.0627 H         1 UNK         0.0600 
    159 H159        1.4387  -18.7716  -42.5254 H         1 UNK         0.3000 
    160 H160       -0.9367  -16.6436  -43.7372 H         1 UNK         0.0600 
    161 H161        0.5191  -15.7634  -41.1995 H         1 UNK         0.0600 
    162 H162       -1.2147  -15.6693  -41.4791 H         1 UNK         0.0600 
    163 H163       -0.1208  -14.6985  -42.4507 H         1 UNK         0.0600 
    164 H164        1.0040  -16.3106  -44.6941 H         1 UNK         0.3000 
    165 H165        4.3047  -15.9518  -43.6512 H         1 UNK         0.0600 
    166 H166        4.9741  -17.1762  -45.6256 H         1 UNK         0.0600 
    167 H167        4.2744  -18.3461  -44.5187 H         1 UNK         0.0600 
    168 H168        3.3495  -17.7803  -45.9053 H         1 UNK         0.0600 
    169 H169        3.0750  -15.3935  -46.1574 H         1 UNK         0.3000 
    170 H170        1.5945  -12.3157  -45.3037 H         1 UNK         0.0600 
    171 H171        3.9449  -11.5591  -45.3776 H         1 UNK         0.0600 
    172 H172        4.2881  -12.6339  -46.7244 H         1 UNK         0.0600 
    173 H173        3.1650  -11.2892  -46.9289 H         1 UNK         0.0600 
    174 H174        0.6278  -13.2935  -46.9783 H         1 UNK         0.3000 
    175 H175        1.6603  -14.6142  -50.0514 H         1 UNK         0.0600 
    176 H176       -0.2177  -15.8272  -47.9490 H         1 UNK         0.0600 
    177 H177       -0.3853  -16.0374  -49.6916 H         1 UNK         0.0600 
    178 H178        1.0271  -16.6657  -48.8573 H         1 UNK         0.0600 
    179 H179       -0.8599  -13.6728  -49.1134 H         1 UNK         0.3000 
    180 H180       -0.3018  -10.1760  -49.5627 H         1 UNK         0.0600 
    181 H181       -2.0735  -12.2070  -51.0282 H         1 UNK         0.0600 
    182 H182       -1.0181  -11.0199  -51.7793 H         1 UNK         0.0600 
    183 H183       -2.4112  -10.4858  -50.8521 H         1 UNK         0.0600 
    184 H184       -2.4159  -11.9354  -48.5761 H         1 UNK         0.3000 
    185 H185       -1.5702  -11.5922  -45.1507 H         1 UNK         0.0600 
    186 H186       -2.7394   -9.4273  -45.5621 H         1 UNK         0.0600 
    187 H187       -3.8619  -10.2221  -46.6593 H         1 UNK         0.0600 
    188 H188       -3.8523  -10.6378  -44.9452 H         1 UNK         0.0600 
    189 H189       -3.8228  -12.6818  -46.6015 H         1 UNK         0.3000 
    190 H190       -1.2346  -22.6244  -44.8656 H         1 UNK         0.3000 
    191 H191       -2.8304  -22.3731  -47.1848 H         1 UNK         0.0600 
    192 H192       -3.3767  -21.5418  -44.8404 H         1 UNK         0.0600 
    193 H193       -4.7008  -22.3862  -45.6344 H         1 UNK         0.0600 
    194 H194       -3.7629  -23.1940  -44.3868 H         1 UNK         0.0600 
    195 H195       -2.3680  -25.1993  -45.0076 H         1 UNK         0.3000 
    196 H196       -4.0703  -26.9828  -46.3636 H         1 UNK         0.0600 
    197 H197       -2.8424  -28.7309  -45.0575 H         1 UNK         0.0600 
    198 H198       -3.2591  -27.3501  -44.0544 H         1 UNK         0.0600 
    199 H199       -1.6062  -27.5524  -44.6327 H         1 UNK         0.0600 
    200 H200       -0.5874  -26.3320  -46.8630 H         1 UNK         0.3000 
    201 H201       -0.2187  -28.3202  -48.9264 H         1 UNK         0.0600 
    202 H202        1.9662  -27.1148  -49.2204 H         1 UNK         0.0600 
    203 H203        1.6529  -27.4945  -47.5337 H         1 UNK         0.0600 
    204 H204        1.4124  -25.8523  -48.1245 H         1 UNK         0.0600 
    205 H205       -1.6813  -25.2077  -48.9251 H         1 UNK         0.3000 
    206 H206       -2.3917  -23.7301  -50.3828 H         1 UNK         0.0600 
    207 H207       -3.5636  -25.6565  -51.4410 H         1 UNK         0.0600 
    208 H208       -3.1502  -24.4191  -52.6152 H         1 UNK         0.0600 
    209 H209       -2.1996  -25.8950  -52.5331 H         1 UNK         0.0600 
    210 H210        0.3208  -23.6918  -49.7380 H         1 UNK         0.3000 
    211 H211        2.0691  -24.0613  -51.8931 H         1 UNK         0.0600 
    212 H212        2.5039  -22.6928  -49.1920 H         1 UNK         0.0600 
    213 H213        3.7956  -23.2044  -50.2717 H         1 UNK         0.0600 
    214 H214        2.7294  -24.4016  -49.5585 H         1 UNK         0.0600 
    215 H215        0.6304  -21.0280  -50.7665 H         1 UNK         0.3000 
    216 H216        2.5808  -19.3480  -52.1078 H         1 UNK         0.0600 
    217 H217        1.1804  -17.5031  -51.2660 H         1 UNK         0.0600 
    218 H218        1.4783  -18.6783  -49.9940 H         1 UNK         0.0600 
    219 H219       -0.0910  -18.6240  -50.8026 H         1 UNK         0.0600 
    220 H220       -0.4310  -20.7864  -53.0745 H         1 UNK         0.3000 
    221 H221       -1.8128  -20.6497  -54.7998 H         1 UNK         0.0600 
    222 H222        0.5250  -19.4709  -56.3855 H         1 UNK         0.0600 
    223 H223        0.2605  -21.1896  -56.0936 H         1 UNK         0.0600 
    224 H224       -0.8942  -20.2712  -57.0449 H         1 UNK         0.0600 
    225 H225       -1.8352  -18.4542  -52.9587 H         1 UNK         0.3000 
    226 H226       -2.5362  -16.0073  -54.4074 H         1 UNK         0.0600 
    227 H227       -1.3721  -16.0041  -52.1514 H         1 UNK         0.0600 
    228 H228       -2.8859  -15.1264  -52.1243 H         1 UNK         0.0600 
    229 H229       -2.7997  -16.7410  -51.4311 H         1 UNK         0.0600 
    230 H230       -4.7150  -14.9923  -53.5352 H         1 UNK         0.3000 
    231 H231       -6.8553  -16.3273  -54.7229 H         1 UNK         0.0600 
    232 H232       -6.8772  -14.0298  -52.6914 H         1 UNK         0.0600 
    233 H233       -8.2189  -14.4694  -53.7414 H         1 UNK         0.0600 
    234 H234       -6.7253  -13.8692  -54.4419 H         1 UNK         0.0600 
    235 H235       -5.7941  -16.5214  -51.3831 H         1 UNK         0.3000 
    236 H236       -8.2157  -17.7813  -50.3451 H         1 UNK         0.0600 
    237 H237       -6.8020  -16.3742  -48.8814 H         1 UNK         0.0600 
    238 H238       -6.7980  -18.0235  -48.2894 H         1 UNK         0.0600 
    239 H239       -5.4040  -17.4147  -49.1700 H         1 UNK         0.0600 
    240 H240       -5.5359  -18.8975  -52.2172 H         1 UNK         0.3000 
    241 H241       -5.4084  -21.5477  -50.9635 H         1 UNK         0.0600 
    242 H242       -7.4828  -20.3448  -53.3338 H         1 UNK         0.3800 
    243 H243       -7.7055  -21.8396  -54.2086 H         1 UNK         0.3800 
    244 H244       -3.3842  -21.8928  -52.2536 H         1 UNK         0.0800 
    245 H245       -3.7183  -20.5196  -53.2718 H         1 UNK         0.0800 
    246 H246       -3.6075  -21.3974  -49.4897 H         1 UNK         0.0800 
    247 H247       -1.9298  -21.6396  -49.9259 H         1 UNK         0.0800 
@<TRIPOS>BOND
     1    1    2 1    
     2    1  127 1    
     3    1  128 1    
     4    1  129 1    
     5    2    3 2    
     6    2    4 am   BACKBONE|DICT|INTERRES
     7    4    5 1    
     8    4  130 1    
     9    5    6 1    
    10    5   65 1    
    11    5  131 1    
    12    6    7 1    
    13    6  132 1    
    14    6  133 1    
    15    7    8 1    
    16    8    9 1    
    17    8  134 1    
    18    8  135 1    
    19    9   10 ar   
    20    9   14 ar   
    21   10   11 ar   
    22   10  136 1    
    23   11   12 ar   
    24   11  126 1    
    25   12   13 ar   
    26   12  137 1    
    27   13   14 ar   
    28   13   15 1    
    29   14  138 1    
    30   15   16 1    
    31   15  139 1    
    32   15  140 1    
    33   16   17 1    
    34   17   18 1    
    35   17  141 1    
    36   17  142 1    
    37   18   19 1    
    38   18   67 1    
    39   18  143 1    
    40   19   20 am   BACKBONE|DICT|INTERRES
    41   19  144 1    
    42   20   21 2    
    43   20   22 1    
    44   22   23 1    
    45   22   24 1    
    46   22  145 1    
    47   23  146 1    
    48   23  147 1    
    49   23  148 1    
    50   24   25 am   BACKBONE|DICT|INTERRES
    51   24  149 1    
    52   25   26 2    
    53   25   27 1    
    54   27   28 1    
    55   27   29 1    
    56   27  150 1    
    57   28  151 1    
    58   28  152 1    
    59   28  153 1    
    60   29   30 am   BACKBONE|DICT|INTERRES
    61   29  154 1    
    62   30   31 2    
    63   30   32 1    
    64   32   33 1    
    65   32   34 1    
    66   32  155 1    
    67   33  156 1    
    68   33  157 1    
    69   33  158 1    
    70   34   35 am   BACKBONE|DICT|INTERRES
    71   34  159 1    
    72   35   36 2    
    73   35   37 1    
    74   37   38 1    
    75   37   39 1    
    76   37  160 1    
    77   38  161 1    
    78   38  162 1    
    79   38  163 1    
    80   39   40 am   BACKBONE|DICT|INTERRES
    81   39  164 1    
    82   40   41 2    
    83   40   42 1    
    84   42   43 1    
    85   42   44 1    
    86   42  165 1    
    87   43  166 1    
    88   43  167 1    
    89   43  168 1    
    90   44   45 am   BACKBONE|DICT|INTERRES
    91   44  169 1    
    92   45   46 2    
    93   45   47 1    
    94   47   48 1    
    95   47   49 1    
    96   47  170 1    
    97   48  171 1    
    98   48  172 1    
    99   48  173 1    
   100   49   50 am   BACKBONE|DICT|INTERRES
   101   49  174 1    
   102   50   51 2    
   103   50   52 1    
   104   52   53 1    
   105   52   54 1    
   106   52  175 1    
   107   53  176 1    
   108   53  177 1    
   109   53  178 1    
   110   54   55 am   BACKBONE|DICT|INTERRES
   111   54  179 1    
   112   55   56 2    
   113   55   57 1    
   114   57   58 1    
   115   57   59 1    
   116   57  180 1    
   117   58  181 1    
   118   58  182 1    
   119   58  183 1    
   120   59   60 am   BACKBONE|DICT|INTERRES
   121   59  184 1    
   122   60   61 2    
   123   60   62 1    
   124   62   63 1    
   125   62   64 1    
   126   62  185 1    
   127   63  186 1    
   128   63  187 1    
   129   63  188 1    
   130   64   65 am   BACKBONE|DICT|INTERRES
   131   64  189 1    
   132   65   66 2    
   133   67   68 2    
   134   67   69 am   BACKBONE|DICT|INTERRES
   135   69   70 1    
   136   69  190 1    
   137   70   71 1    
   138   70   72 1    
   139   70  191 1    
   140   71  192 1    
   141   71  193 1    
   142   71  194 1    
   143   72   73 2    
   144   72   74 am   BACKBONE|DICT|INTERRES
   145   74   75 1    
   146   74  195 1    
   147   75   76 1    
   148   75   77 1    
   149   75  196 1    
   150   76  197 1    
   151   76  198 1    
   152   76  199 1    
   153   77   78 2    
   154   77   79 am   BACKBONE|DICT|INTERRES
   155   79   80 1    
   156   79  200 1    
   157   80   81 1    
   158   80   82 1    
   159   80  201 1    
   160   81  202 1    
   161   81  203 1    
   162   81  204 1    
   163   82   83 2    
   164   82   84 am   BACKBONE|DICT|INTERRES
   165   84   85 1    
   166   84  205 1    
   167   85   86 1    
   168   85   87 1    
   169   85  206 1    
   170   86  207 1    
   171   86  208 1    
   172   86  209 1    
   173   87   88 2    
   174   87   89 am   BACKBONE|DICT|INTERRES
   175   89   90 1    
   176   89  210 1    
   177   90   91 1    
   178   90   92 1    
   179   90  211 1    
   180   91  212 1    
   181   91  213 1    
   182   91  214 1    
   183   92   93 2    
   184   92   94 am   BACKBONE|DICT|INTERRES
   185   94   95 1    
   186   94  215 1    
   187   95   96 1    
   188   95   97 1    
   189   95  216 1    
   190   96  217 1    
   191   96  218 1    
   192   96  219 1    
   193   97   98 2    
   194   97   99 am   BACKBONE|DICT|INTERRES
   195   99  100 1    
   196   99  220 1    
   197  100  101 1    
   198  100  102 1    
   199  100  221 1    
   200  101  222 1    
   201  101  223 1    
   202  101  224 1    
   203  102  103 2    
   204  102  104 am   BACKBONE|DICT|INTERRES
   205  104  105 1    
   206  104  225 1    
   207  105  106 1    
   208  105  107 1    
   209  105  226 1    
   210  106  227 1    
   211  106  228 1    
   212  106  229 1    
   213  107  108 2    
   214  107  109 am   BACKBONE|DICT|INTERRES
   215  109  110 1    
   216  109  230 1    
   217  110  111 1    
   218  110  112 1    
   219  110  231 1    
   220  111  232 1    
   221  111  233 1    
   222  111  234 1    
   223  112  113 2    
   224  112  114 am   BACKBONE|DICT|INTERRES
   225  114  115 1    
   226  114  235 1    
   227  115  116 1    
   228  115  117 1    
   229  115  236 1    
   230  116  237 1    
   231  116  238 1    
   232  116  239 1    
   233  117  118 2    
   234  117  119 am   BACKBONE|DICT|INTERRES
   235  119  120 1    
   236  119  240 1    
   237  120  121 1    
   238  120  124 1    
   239  120  241 1    
   240  121  122 am   BACKBONE|DICT|INTERRES
   241  121  123 2    
   242  122  242 1    
   243  122  243 1    
   244  124  125 1    
   245  124  244 1    
   246  124  245 1    
   247  125  126 1    
   248  126  246 1    
   249  126  247 1    
@<TRIPOS>SUBSTRUCTURE
     1 UNK         1 GROUP             0       ****    0 ROOT    
