@<TRIPOS>MOLECULE
3R540
247   249    1
SMALL
USER_CHARGES


@<TRIPOS>ATOM
      1 CA         -2.5412  -17.8608  -46.7108 C.3       0 UNK        -0.1800 
      2 C          -1.8211  -16.5485  -46.4405 C.2       0 UNK         0.5000 
      3 O          -0.6632  -16.5656  -46.0384 O.2       0 UNK        -0.5000 
      4 N          -2.4636  -15.4044  -46.7116 N.am      1 UNK        -0.5000 
      5 CA         -1.7931  -14.0939  -46.7754 C.3       1 UNK         0.1400 
      6 C6         -2.7685  -12.9026  -46.5899 C.3       23 UNK        -0.0398 
      7 S7         -3.2918  -12.6994  -44.8510 S.3       23 UNK        -0.2404 
      8 C8         -5.0864  -12.9931  -44.9328 C.3       23 UNK        -0.0205 
      9 C9         -5.3893  -14.4394  -45.2778 C.ar      23 UNK        -0.0193 
     10 C10        -5.7622  -14.7873  -46.5773 C.ar      23 UNK        -0.1150 
     11 C11        -5.9581  -16.1253  -46.9227 C.ar      23 UNK        -0.0193 
     12 C12        -5.8117  -17.1178  -45.9488 C.ar      23 UNK        -0.1150 
     13 C13        -5.4553  -16.7786  -44.6389 C.ar      23 UNK        -0.0193 
     14 C14        -5.2543  -15.4361  -44.3081 C.ar      23 UNK        -0.1150 
     15 C15        -5.2741  -17.8602  -43.5854 C.3       23 UNK        -0.0205 
     16 S16        -3.5285  -18.0298  -43.0855 S.3       23 UNK        -0.2404 
     17 C17        -3.4690  -19.8011  -42.6710 C.3       23 UNK        -0.0398 
     18 CA         -2.9056  -20.6570  -43.8314 C.3       11 UNK         0.1400 
     19 N          -1.4921  -20.3866  -44.1368 N.am      11 UNK        -0.5000 
     20 C          -0.8322  -20.9044  -45.1855 C.2       10 UNK         0.5000 
     21 O          -1.3779  -21.5631  -46.0683 O.2       10 UNK        -0.5000 
     22 CA          0.6937  -20.7289  -45.2388 C.3       10 UNK         0.1400 
     23 CB          1.0813  -19.4788  -46.0324 C.3       10 UNK        -0.1800 
     24 N           1.2774  -20.6743  -43.9007 N.am      10 UNK        -0.5000 
     25 C           1.5638  -21.7550  -43.1619 C.2       9 UNK         0.5000 
     26 O           1.4372  -22.9089  -43.5706 O.2       9 UNK        -0.5000 
     27 CA          2.0383  -21.5117  -41.7145 C.3       9 UNK         0.1400 
     28 CB          3.5711  -21.4438  -41.6500 C.3       9 UNK        -0.1800 
     29 N           1.4775  -20.2960  -41.1197 N.am      9 UNK        -0.5000 
     30 C           0.1811  -20.1292  -40.8241 C.2       8 UNK         0.5000 
     31 O          -0.6660  -21.0101  -40.9754 O.2       8 UNK        -0.5000 
     32 CA         -0.2529  -18.7301  -40.3355 C.3       8 UNK         0.1400 
     33 CB         -0.1740  -18.6523  -38.8040 C.3       8 UNK        -0.1800 
     34 N           0.5000  -17.6085  -40.9153 N.am      8 UNK        -0.5000 
     35 C           0.6562  -17.3696  -42.2254 C.2       7 UNK         0.5000 
     36 O           0.2267  -18.1258  -43.0982 O.2       7 UNK        -0.5000 
     37 CA          1.4517  -16.1131  -42.6257 C.3       7 UNK         0.1400 
     38 CB          2.7692  -15.9832  -41.8326 C.3       7 UNK        -0.1800 
     39 N           1.7481  -16.1765  -44.0535 N.am      7 UNK        -0.5000 
     40 C           2.0871  -15.1557  -44.8495 C.2       6 UNK         0.5000 
     41 O           2.1159  -13.9810  -44.4763 O.2       6 UNK        -0.5000 
     42 CA          2.5176  -15.5357  -46.2882 C.3       6 UNK         0.1400 
     43 CB          3.1324  -14.3584  -47.0721 C.3       6 UNK        -0.1800 
     44 N           3.4171  -16.6977  -46.3130 N.am      6 UNK        -0.5000 
     45 C           4.5856  -16.8255  -45.6604 C.2       5 UNK         0.5000 
     46 O           5.1153  -15.9207  -45.0142 O.2       5 UNK        -0.5000 
     47 CA          5.2747  -18.2045  -45.6902 C.3       5 UNK         0.1400 
     48 CB          5.0210  -18.9404  -44.3642 C.3       5 UNK        -0.1800 
     49 N           4.8401  -19.0702  -46.7851 N.am      5 UNK        -0.5000 
     50 C           5.1436  -18.8994  -48.0773 C.2       4 UNK         0.5000 
     51 O           5.8562  -17.9863  -48.4980 O.2       4 UNK        -0.5000 
     52 CA          4.5506  -19.9175  -49.0768 C.3       4 UNK         0.1400 
     53 CB          3.7878  -21.0903  -48.4190 C.3       4 UNK        -0.1800 
     54 N           3.7091  -19.2795  -50.0945 N.am      4 UNK        -0.5000 
     55 C           2.6791  -18.4436  -49.8917 C.2       3 UNK         0.5000 
     56 O           2.3006  -18.0787  -48.7764 O.2       3 UNK        -0.5000 
     57 CA          1.9788  -17.9473  -51.1741 C.3       3 UNK         0.1400 
     58 CB          1.1038  -19.0552  -51.7961 C.3       3 UNK        -0.1800 
     59 N           1.2328  -16.6932  -50.9981 N.am      3 UNK        -0.5000 
     60 C           0.0997  -16.4830  -50.3127 C.2       2 UNK         0.5000 
     61 O          -0.5777  -17.3635  -49.7763 O.2       2 UNK        -0.5000 
     62 CA         -0.3728  -15.0216  -50.2456 C.3       2 UNK         0.1400 
     63 CB         -1.2412  -14.6699  -51.4632 C.3       2 UNK        -0.1800 
     64 N          -1.1692  -14.8551  -49.0386 N.am      2 UNK        -0.5000 
     65 C          -0.9719  -13.9429  -48.0795 C.2       1 UNK         0.5000 
     66 O          -0.1675  -13.0161  -48.1805 O.2       1 UNK        -0.5000 
     67 C          -3.1368  -22.1541  -43.5502 C.2       11 UNK         0.5000 
     68 O          -4.0771  -22.7330  -44.0941 O.2       11 UNK        -0.5000 
     69 N          -2.2382  -22.7686  -42.7666 N.am      12 UNK        -0.5000 
     70 CA         -2.2204  -24.2074  -42.4857 C.3       12 UNK         0.1400 
     71 CB         -1.1495  -24.4987  -41.4239 C.3       12 UNK        -0.1800 
     72 C          -1.9942  -25.0764  -43.7414 C.2       12 UNK         0.5000 
     73 O          -2.5003  -26.1970  -43.8031 O.2       12 UNK        -0.5000 
     74 N          -1.2685  -24.5323  -44.7270 N.am      13 UNK        -0.5000 
     75 CA         -1.0238  -25.1414  -46.0351 C.3       13 UNK         0.1400 
     76 CB          0.3620  -24.6940  -46.5300 C.3       13 UNK        -0.1800 
     77 C          -2.1069  -24.7935  -47.0788 C.2       13 UNK         0.5000 
     78 O          -1.9864  -25.2312  -48.2233 O.2       13 UNK        -0.5000 
     79 N          -3.1153  -23.9926  -46.6990 N.am      14 UNK        -0.5000 
     80 CA         -4.2057  -23.4765  -47.5347 C.3       14 UNK         0.1400 
     81 CB         -5.1655  -24.6176  -47.9314 C.3       14 UNK        -0.1800 
     82 C          -3.6975  -22.6685  -48.7485 C.2       14 UNK         0.5000 
     83 O          -4.1324  -22.9080  -49.8760 O.2       14 UNK        -0.5000 
     84 N          -2.7436  -21.7587  -48.4965 N.am      15 UNK        -0.5000 
     85 CA         -2.0107  -20.9522  -49.4815 C.3       15 UNK         0.1400 
     86 CB         -2.9445  -19.9393  -50.1788 C.3       15 UNK        -0.1800 
     87 C          -1.2244  -21.8391  -50.4693 C.2       15 UNK         0.5000 
     88 O          -1.2592  -21.6064  -51.6788 O.2       15 UNK        -0.5000 
     89 N          -0.5685  -22.8730  -49.9178 N.am      16 UNK        -0.5000 
     90 CA          0.1541  -23.9446  -50.6133 C.3       16 UNK         0.1400 
     91 CB          1.4403  -23.3994  -51.2642 C.3       16 UNK        -0.1800 
     92 C          -0.7534  -24.7159  -51.5944 C.2       16 UNK         0.5000 
     93 O          -0.3971  -24.9012  -52.7587 O.2       16 UNK        -0.5000 
     94 N          -1.9287  -25.1222  -51.0917 N.am      17 UNK        -0.5000 
     95 CA         -3.0410  -25.7434  -51.8170 C.3       17 UNK         0.1400 
     96 CB         -2.6672  -27.1693  -52.2724 C.3       17 UNK        -0.1800 
     97 C          -3.5600  -24.8492  -52.9642 C.2       17 UNK         0.5000 
     98 O          -3.7184  -25.3151  -54.0944 O.2       17 UNK        -0.5000 
     99 N          -3.8013  -23.5720  -52.6343 N.am      18 UNK        -0.5000 
    100 CA        -4.2421  -22.4864  -53.5133 C.3       18 UNK         0.1400 
    101 CB        -5.7037  -22.7074  -53.9540 C.3       18 UNK        -0.1800 
    102 C         -3.2805  -22.2374  -54.6947 C.2       18 UNK         0.5000 
    103 O         -3.7127  -22.1790  -55.8483 O.2       18 UNK        -0.5000 
    104 N         -1.9844  -22.0889  -54.3852 N.am      19 UNK        -0.5000 
    105 CA        -0.9460  -21.7095  -55.3480 C.3       19 UNK         0.1400 
    106 CB         0.4396  -21.9633  -54.7395 C.3       19 UNK        -0.1800 
    107 C         -1.0746  -20.2377  -55.7820 C.2       19 UNK         0.5000 
    108 O         -0.7555  -19.9066  -56.9247 O.2       19 UNK        -0.5000 
    109 N         -1.5682  -19.3980  -54.8658 N.am      20 UNK        -0.5000 
    110 CA        -2.0185  -18.0355  -55.1183 C.3       20 UNK         0.1400 
    111 CB        -1.3667  -17.0970  -54.0915 C.3       20 UNK        -0.1800 
    112 C         -3.5477  -17.9930  -54.9818 C.2       20 UNK         0.5000 
    113 O         -4.1279  -18.8327  -54.2874 O.2       20 UNK        -0.5000 
    114 N         -4.1705  -16.9932  -55.6200 N.am      21 UNK        -0.5000 
    115 CA        -5.6153  -16.7470  -55.5635 C.3       21 UNK         0.1400 
    116 CB        -5.9868  -15.6781  -56.6027 C.3       21 UNK        -0.1800 
    117 C         -6.1061  -16.3332  -54.1619 C.2       21 UNK         0.5000 
    118 O         -7.2431  -16.6414  -53.8037 O.2       21 UNK        -0.5000 
    119 N         -5.2297  -15.6675  -53.3950 N.am      22 UNK        -0.5000 
    120 CA        -5.4303  -15.2822  -51.9879 C.3       22 UNK         0.1400 
    121 C         -6.5061  -14.1734  -51.7549 C.2       22 UNK         0.5000 
    122 N         -6.9122  -13.4274  -52.7753 N.am      22 UNK        -0.7600 
    123 O         -6.9617  -13.9565  -50.6363 O.2       22 UNK        -0.5000 
    124 C124       -5.5970  -16.5314  -51.0728 C.3       23 UNK        -0.0398 
    125 S125       -4.8361  -16.3197  -49.4302 S.3       23 UNK        -0.2404 
    126 C126       -6.2981  -16.4840  -48.3581 C.3       23 UNK        -0.0205 
    127 H127       -2.7967  -18.3554  -45.7789 H         1 UNK         0.0600 
    128 H128       -1.8930  -18.5273  -47.2796 H         1 UNK         0.0600 
    129 H129       -3.4519  -17.7159  -47.2867 H         1 UNK         0.0600 
    130 H130       -3.4359  -15.4280  -46.9884 H         1 UNK         0.3000 
    131 H131       -1.0631  -14.0441  -45.9640 H         1 UNK         0.0600 
    132 H132       -2.2881  -11.9628  -46.8685 H         1 UNK         0.0800 
    133 H133       -3.6314  -12.9977  -47.2494 H         1 UNK         0.0800 
    134 H134       -5.5307  -12.7499  -43.9666 H         1 UNK         0.0800 
    135 H135       -5.5375  -12.3138  -45.6578 H         1 UNK         0.0800 
    136 H136       -5.8669  -14.0221  -47.3343 H         1 UNK         0.1150 
    137 H137       -5.9556  -18.1552  -46.2162 H         1 UNK         0.1150 
    138 H138       -4.9581  -15.1706  -43.3028 H         1 UNK         0.1150 
    139 H139       -5.8788  -17.6243  -42.7087 H         1 UNK         0.0800 
    140 H140       -5.6446  -18.8121  -43.9689 H         1 UNK         0.0800 
    141 H141       -4.4738  -20.1283  -42.3968 H         1 UNK         0.0800 
    142 H142       -2.8696  -19.9252  -41.7709 H         1 UNK         0.0800 
    143 H143       -3.4805  -20.4193  -44.7291 H         1 UNK         0.0600 
    144 H144       -0.9906  -19.7768  -43.5015 H         1 UNK         0.3000 
    145 H145        1.1072  -21.5885  -45.7692 H         1 UNK         0.0600 
    146 H146        0.7184  -18.5736  -45.5561 H         1 UNK         0.0600 
    147 H147        2.1609  -19.3914  -46.1248 H         1 UNK         0.0600 
    148 H148        0.6646  -19.5062  -47.0403 H         1 UNK         0.0600 
    149 H149        1.2985  -19.7607  -43.4631 H         1 UNK         0.3000 
    150 H150        1.7105  -22.3645  -41.1162 H         1 UNK         0.0600 
    151 H151        4.0217  -22.3327  -42.0937 H         1 UNK         0.0600 
    152 H152        3.9189  -21.3852  -40.6185 H         1 UNK         0.0600 
    153 H153        3.9595  -20.5767  -42.1836 H         1 UNK         0.0600 
    154 H154        2.1103  -19.5250  -40.9658 H         1 UNK         0.3000 
    155 H155       -1.2958  -18.5949  -40.6258 H         1 UNK         0.0600 
    156 H156       -0.7447  -19.4589  -38.3414 H         1 UNK         0.0600 
    157 H157       -0.5855  -17.7130  -38.4342 H         1 UNK         0.0600 
    158 H158        0.8544  -18.7323  -38.4496 H         1 UNK         0.0600 
    159 H159        0.8924  -16.9522  -40.2561 H         1 UNK         0.3000 
    160 H160        0.8178  -15.2457  -42.4328 H         1 UNK         0.0600 
    161 H161        3.3434  -15.1150  -42.1566 H         1 UNK         0.0600 
    162 H162        3.4017  -16.8624  -41.9622 H         1 UNK         0.0600 
    163 H163        2.5869  -15.8578  -40.7652 H         1 UNK         0.0600 
    164 H164        1.6119  -17.0902  -44.4646 H         1 UNK         0.3000 
    165 H165        1.6182  -15.8380  -46.8233 H         1 UNK         0.0600 
    166 H166        4.0325  -13.9750  -46.5910 H         1 UNK         0.0600 
    167 H167        3.3942  -14.6580  -48.0869 H         1 UNK         0.0600 
    168 H168        2.4254  -13.5319  -47.1507 H         1 UNK         0.0600 
    169 H169        3.0927  -17.4732  -46.8804 H         1 UNK         0.3000 
    170 H170        6.3487  -18.0353  -45.7917 H         1 UNK         0.0600 
    171 H171        3.9590  -19.1369  -44.2122 H         1 UNK         0.0600 
    172 H172        5.5486  -19.8939  -44.3321 H         1 UNK         0.0600 
    173 H173        5.3686  -18.3501  -43.5152 H         1 UNK         0.0600 
    174 H174        4.2559  -19.8532  -46.5341 H         1 UNK         0.3000 
    175 H175        5.4058  -20.3424  -49.6042 H         1 UNK         0.0600 
    176 H176        2.8521  -20.7710  -47.9616 H         1 UNK         0.0600 
    177 H177        3.5446  -21.8480  -49.1613 H         1 UNK         0.0600 
    178 H178        4.3893  -21.5868  -47.6564 H         1 UNK         0.0600 
    179 H179        3.9668  -19.4887  -51.0484 H         1 UNK         0.3000 
    180 H180        2.7673  -17.7124  -51.8907 H         1 UNK         0.0600 
    181 H181        0.2991  -19.3602  -51.1291 H         1 UNK         0.0600 
    182 H182        1.6915  -19.9474  -52.0134 H         1 UNK         0.0600 
    183 H183        0.6566  -18.7311  -52.7341 H         1 UNK         0.0600 
    184 H184        1.6934  -15.8828  -51.3867 H         1 UNK         0.3000 
    185 H185        0.5028  -14.3694  -50.2219 H         1 UNK         0.0600 
    186 H186       -1.6296  -13.6539  -51.3908 H         1 UNK         0.0600 
    187 H187       -0.6617  -14.7312  -52.3846 H         1 UNK         0.0600 
    188 H188       -2.0905  -15.3475  -51.5579 H         1 UNK         0.0600 
    189 H189       -1.7849  -15.6328  -48.8391 H         1 UNK         0.3000 
    190 H190       -1.5255  -22.2071  -42.3097 H         1 UNK         0.3000 
    191 H191       -3.1940  -24.4765  -42.0712 H         1 UNK         0.0600 
    192 H192       -0.1511  -24.2414  -41.7781 H         1 UNK         0.0600 
    193 H193       -1.3357  -23.9338  -40.5101 H         1 UNK         0.0600 
    194 H194       -1.1409  -25.5562  -41.1572 H         1 UNK         0.0600 
    195 H195       -0.8771  -23.6124  -44.5817 H         1 UNK         0.3000 
    196 H196       -1.0099  -26.2280  -45.9304 H         1 UNK         0.0600 
    197 H197        1.1321  -24.8941  -45.7846 H         1 UNK         0.0600 
    198 H198        0.3850  -23.6286  -46.7571 H         1 UNK         0.0600 
    199 H199        0.6451  -25.2293  -47.4367 H         1 UNK         0.0600 
    200 H200       -3.1224  -23.6633  -45.7411 H         1 UNK         0.3000 
    201 H201       -4.7644  -22.7750  -46.9136 H         1 UNK         0.0600 
    202 H202       -6.0355  -24.2295  -48.4622 H         1 UNK         0.0600 
    203 H203       -5.5320  -25.1462  -47.0515 H         1 UNK         0.0600 
    204 H204       -4.6834  -25.3466  -48.5835 H         1 UNK         0.0600 
    205 H205       -2.4007  -21.6819  -47.5395 H         1 UNK         0.3000 
    206 H206       -1.2658  -20.3812  -48.9251 H         1 UNK         0.0600 
    207 H207       -3.4541  -19.3088  -49.4504 H         1 UNK         0.0600 
    208 H208       -3.7038  -20.4306  -50.7865 H         1 UNK         0.0600 
    209 H209       -2.3797  -19.2771  -50.8363 H         1 UNK         0.0600 
    210 H210       -0.6607  -22.9939  -48.9201 H         1 UNK         0.3000 
    211 H211        0.4537  -24.6645  -49.8509 H         1 UNK         0.0600 
    212 H212        2.0851  -22.9352  -50.5213 H         1 UNK         0.0600 
    213 H213        2.0122  -24.1989  -51.7364 H         1 UNK         0.0600 
    214 H214        1.2250  -22.6540  -52.0272 H         1 UNK         0.0600 
    215 H215       -2.0923  -24.9638  -50.1001 H         1 UNK         0.3000 
    216 H216       -3.8603  -25.8302  -51.1019 H         1 UNK         0.0600 
    217 H217       -3.5271  -27.6754  -52.7127 H         1 UNK         0.0600 
    218 H218       -1.8738  -27.1628  -53.0203 H         1 UNK         0.0600 
    219 H219       -2.3303  -27.7750  -51.4312 H         1 UNK         0.0600 
    220 H220       -3.6817  -23.3092  -51.6583 H         1 UNK         0.3000 
    221 H221       -4.2183  -21.5781  -52.9097 H         1 UNK         0.0600 
    222 H222       -5.8081  -23.5874  -54.5894 H         1 UNK         0.0600 
    223 H223       -6.3588  -22.8354  -53.0923 H         1 UNK         0.0600 
    224 H224       -6.0734  -21.8497  -54.5173 H         1 UNK         0.0600 
    225 H225       -1.7057  -22.1233  -53.4060 H         1 UNK         0.3000 
    226 H226       -1.0512  -22.3363  -56.2359 H         1 UNK         0.0600 
    227 H227        0.5611  -23.0079  -54.4544 H         1 UNK         0.0600 
    228 H228        1.2291  -21.7272  -55.4539 H         1 UNK         0.0600 
    229 H229        0.6033  -21.3477  -53.8550 H         1 UNK         0.0600 
    230 H230       -1.8613  -19.7916  -53.9821 H         1 UNK         0.3000 
    231 H231       -1.7446  -17.7120  -56.1246 H         1 UNK         0.0600 
    232 H232       -1.7101  -16.0709  -54.2256 H         1 UNK         0.0600 
    233 H233       -0.2823  -17.0887  -54.2004 H         1 UNK         0.0600 
    234 H234       -1.5998  -17.3937  -53.0676 H         1 UNK         0.0600 
    235 H235       -3.6257  -16.3468  -56.1727 H         1 UNK         0.3000 
    236 H236       -6.1262  -17.6749  -55.8298 H         1 UNK         0.0600 
    237 H237       -5.7192  -15.9977  -57.6101 H         1 UNK         0.0600 
    238 H238       -7.0608  -15.4867  -56.5992 H         1 UNK         0.0600 
    239 H239       -5.4836  -14.7308  -56.4055 H         1 UNK         0.0600 
    240 H240       -4.3291  -15.4425  -53.7902 H         1 UNK         0.3000 
    241 H241       -4.4918  -14.7995  -51.7148 H         1 UNK         0.0600 
    242 H242       -6.5475  -13.5810  -53.7015 H         1 UNK         0.3800 
    243 H243       -7.5990  -12.7065  -52.6186 H         1 UNK         0.3800 
    244 H244       -6.6468  -16.8156  -50.9847 H         1 UNK         0.0800 
    245 H245       -5.0997  -17.3938  -51.5201 H         1 UNK         0.0800 
    246 H246       -7.0943  -15.8279  -48.7122 H         1 UNK         0.0800 
    247 H247       -6.6814  -17.5035  -48.4227 H         1 UNK         0.0800 
@<TRIPOS>BOND
     1    1    2 1    
     2    1  127 1    
     3    1  128 1    
     4    1  129 1    
     5    2    3 2    
     6    2    4 am   BACKBONE|DICT|INTERRES
     7    4    5 1    
     8    4  130 1    
     9    5    6 1    
    10    5   65 1    
    11    5  131 1    
    12    6    7 1    
    13    6  132 1    
    14    6  133 1    
    15    7    8 1    
    16    8    9 1    
    17    8  134 1    
    18    8  135 1    
    19    9   10 ar   
    20    9   14 ar   
    21   10   11 ar   
    22   10  136 1    
    23   11   12 ar   
    24   11  126 1    
    25   12   13 ar   
    26   12  137 1    
    27   13   14 ar   
    28   13   15 1    
    29   14  138 1    
    30   15   16 1    
    31   15  139 1    
    32   15  140 1    
    33   16   17 1    
    34   17   18 1    
    35   17  141 1    
    36   17  142 1    
    37   18   19 1    
    38   18   67 1    
    39   18  143 1    
    40   19   20 am   BACKBONE|DICT|INTERRES
    41   19  144 1    
    42   20   21 2    
    43   20   22 1    
    44   22   23 1    
    45   22   24 1    
    46   22  145 1    
    47   23  146 1    
    48   23  147 1    
    49   23  148 1    
    50   24   25 am   BACKBONE|DICT|INTERRES
    51   24  149 1    
    52   25   26 2    
    53   25   27 1    
    54   27   28 1    
    55   27   29 1    
    56   27  150 1    
    57   28  151 1    
    58   28  152 1    
    59   28  153 1    
    60   29   30 am   BACKBONE|DICT|INTERRES
    61   29  154 1    
    62   30   31 2    
    63   30   32 1    
    64   32   33 1    
    65   32   34 1    
    66   32  155 1    
    67   33  156 1    
    68   33  157 1    
    69   33  158 1    
    70   34   35 am   BACKBONE|DICT|INTERRES
    71   34  159 1    
    72   35   36 2    
    73   35   37 1    
    74   37   38 1    
    75   37   39 1    
    76   37  160 1    
    77   38  161 1    
    78   38  162 1    
    79   38  163 1    
    80   39   40 am   BACKBONE|DICT|INTERRES
    81   39  164 1    
    82   40   41 2    
    83   40   42 1    
    84   42   43 1    
    85   42   44 1    
    86   42  165 1    
    87   43  166 1    
    88   43  167 1    
    89   43  168 1    
    90   44   45 am   BACKBONE|DICT|INTERRES
    91   44  169 1    
    92   45   46 2    
    93   45   47 1    
    94   47   48 1    
    95   47   49 1    
    96   47  170 1    
    97   48  171 1    
    98   48  172 1    
    99   48  173 1    
   100   49   50 am   BACKBONE|DICT|INTERRES
   101   49  174 1    
   102   50   51 2    
   103   50   52 1    
   104   52   53 1    
   105   52   54 1    
   106   52  175 1    
   107   53  176 1    
   108   53  177 1    
   109   53  178 1    
   110   54   55 am   BACKBONE|DICT|INTERRES
   111   54  179 1    
   112   55   56 2    
   113   55   57 1    
   114   57   58 1    
   115   57   59 1    
   116   57  180 1    
   117   58  181 1    
   118   58  182 1    
   119   58  183 1    
   120   59   60 am   BACKBONE|DICT|INTERRES
   121   59  184 1    
   122   60   61 2    
   123   60   62 1    
   124   62   63 1    
   125   62   64 1    
   126   62  185 1    
   127   63  186 1    
   128   63  187 1    
   129   63  188 1    
   130   64   65 am   BACKBONE|DICT|INTERRES
   131   64  189 1    
   132   65   66 2    
   133   67   68 2    
   134   67   69 am   BACKBONE|DICT|INTERRES
   135   69   70 1    
   136   69  190 1    
   137   70   71 1    
   138   70   72 1    
   139   70  191 1    
   140   71  192 1    
   141   71  193 1    
   142   71  194 1    
   143   72   73 2    
   144   72   74 am   BACKBONE|DICT|INTERRES
   145   74   75 1    
   146   74  195 1    
   147   75   76 1    
   148   75   77 1    
   149   75  196 1    
   150   76  197 1    
   151   76  198 1    
   152   76  199 1    
   153   77   78 2    
   154   77   79 am   BACKBONE|DICT|INTERRES
   155   79   80 1    
   156   79  200 1    
   157   80   81 1    
   158   80   82 1    
   159   80  201 1    
   160   81  202 1    
   161   81  203 1    
   162   81  204 1    
   163   82   83 2    
   164   82   84 am   BACKBONE|DICT|INTERRES
   165   84   85 1    
   166   84  205 1    
   167   85   86 1    
   168   85   87 1    
   169   85  206 1    
   170   86  207 1    
   171   86  208 1    
   172   86  209 1    
   173   87   88 2    
   174   87   89 am   BACKBONE|DICT|INTERRES
   175   89   90 1    
   176   89  210 1    
   177   90   91 1    
   178   90   92 1    
   179   90  211 1    
   180   91  212 1    
   181   91  213 1    
   182   91  214 1    
   183   92   93 2    
   184   92   94 am   BACKBONE|DICT|INTERRES
   185   94   95 1    
   186   94  215 1    
   187   95   96 1    
   188   95   97 1    
   189   95  216 1    
   190   96  217 1    
   191   96  218 1    
   192   96  219 1    
   193   97   98 2    
   194   97   99 am   BACKBONE|DICT|INTERRES
   195   99  100 1    
   196   99  220 1    
   197  100  101 1    
   198  100  102 1    
   199  100  221 1    
   200  101  222 1    
   201  101  223 1    
   202  101  224 1    
   203  102  103 2    
   204  102  104 am   BACKBONE|DICT|INTERRES
   205  104  105 1    
   206  104  225 1    
   207  105  106 1    
   208  105  107 1    
   209  105  226 1    
   210  106  227 1    
   211  106  228 1    
   212  106  229 1    
   213  107  108 2    
   214  107  109 am   BACKBONE|DICT|INTERRES
   215  109  110 1    
   216  109  230 1    
   217  110  111 1    
   218  110  112 1    
   219  110  231 1    
   220  111  232 1    
   221  111  233 1    
   222  111  234 1    
   223  112  113 2    
   224  112  114 am   BACKBONE|DICT|INTERRES
   225  114  115 1    
   226  114  235 1    
   227  115  116 1    
   228  115  117 1    
   229  115  236 1    
   230  116  237 1    
   231  116  238 1    
   232  116  239 1    
   233  117  118 2    
   234  117  119 am   BACKBONE|DICT|INTERRES
   235  119  120 1    
   236  119  240 1    
   237  120  121 1    
   238  120  124 1    
   239  120  241 1    
   240  121  122 am   BACKBONE|DICT|INTERRES
   241  121  123 2    
   242  122  242 1    
   243  122  243 1    
   244  124  125 1    
   245  124  244 1    
   246  124  245 1    
   247  125  126 1    
   248  126  246 1    
   249  126  247 1    
@<TRIPOS>SUBSTRUCTURE
     1 UNK         1 GROUP             0       ****    0 ROOT    
