@<TRIPOS>MOLECULE
3R540
247   249    1
SMALL
USER_CHARGES


@<TRIPOS>ATOM
      1 CA          7.2004   -9.8841  -49.8499 C.3       0 UNK        -0.1800 
      2 C           6.9151  -10.7151  -48.6065 C.2       0 UNK         0.5000 
      3 O           7.4114  -10.3924  -47.5265 O.2       0 UNK        -0.5000 
      4 N           6.1274  -11.7862  -48.7568 N.am      1 UNK        -0.5000 
      5 CA          5.6770  -12.6607  -47.6696 C.3       1 UNK         0.1400 
      6 C6          5.2965  -14.0676  -48.1993 C.3       23 UNK        -0.0398 
      7 S7          3.9190  -14.0903  -49.4019 S.3       23 UNK        -0.2404 
      8 C8          2.8483  -15.3488  -48.6432 C.3       23 UNK        -0.0205 
      9 C9          1.5492  -15.5315  -49.4132 C.ar      23 UNK        -0.0193 
     10 C10         1.5522  -16.1500  -50.6668 C.ar      23 UNK        -0.1150 
     11 C11         0.3625  -16.3067  -51.3847 C.ar      23 UNK        -0.0193 
     12 C12        -0.8400  -15.8603  -50.8283 C.ar      23 UNK        -0.1150 
     13 C13        -0.8597  -15.2645  -49.5639 C.ar      23 UNK        -0.0193 
     14 C14         0.3401  -15.0912  -48.8683 C.ar      23 UNK        -0.1150 
     15 C15        -2.1713  -14.7917  -48.9514 C.3       23 UNK        -0.0205 
     16 S16        -3.3348  -16.1578  -48.6248 S.3       23 UNK        -0.2404 
     17 C17        -2.3843  -17.2259  -47.4912 C.3       23 UNK        -0.0398 
     18 CA         -2.2473  -18.6749  -48.0372 C.3       11 UNK         0.1400 
     19 N          -0.8616  -19.1572  -48.0425 N.am      11 UNK        -0.5000 
     20 C          -0.4553  -20.2501  -48.7070 C.2       10 UNK         0.5000 
     21 O          -1.2045  -20.9689  -49.3651 O.2       10 UNK        -0.5000 
     22 CA          1.0262  -20.6376  -48.5691 C.3       10 UNK         0.1400 
     23 CB          1.8961  -19.7763  -49.4974 C.3       10 UNK        -0.1800 
     24 N           1.5206  -20.5210  -47.1979 N.am      10 UNK        -0.5000 
     25 C           1.0423  -21.1678  -46.1270 C.2       9 UNK         0.5000 
     26 O           0.1136  -21.9733  -46.1794 O.2       9 UNK        -0.5000 
     27 CA          1.6638  -20.8194  -44.7604 C.3       9 UNK         0.1400 
     28 CB          2.9866  -21.5720  -44.5280 C.3       9 UNK        -0.1800 
     29 N           1.8047  -19.3750  -44.5402 N.am      9 UNK        -0.5000 
     30 C           2.6075  -18.4981  -45.1617 C.2       8 UNK         0.5000 
     31 O           3.4480  -18.8016  -46.0087 O.2       8 UNK        -0.5000 
     32 CA          2.3666  -17.0177  -44.8355 C.3       8 UNK         0.1400 
     33 CB          1.1418  -16.5328  -45.6238 C.3       8 UNK        -0.1800 
     34 N           2.1397  -16.7708  -43.4147 N.am      8 UNK        -0.5000 
     35 C           3.0291  -16.9747  -42.4335 C.2       7 UNK         0.5000 
     36 O           4.1829  -17.3631  -42.6176 O.2       7 UNK        -0.5000 
     37 CA          2.5335  -16.7089  -41.0020 C.3       7 UNK         0.1400 
     38 CB          2.6333  -15.2156  -40.6563 C.3       7 UNK        -0.1800 
     39 N           1.1518  -17.1563  -40.8263 N.am      7 UNK        -0.5000 
     40 C           0.7947  -18.4274  -40.5963 C.2       6 UNK         0.5000 
     41 O           1.5984  -19.3461  -40.4356 O.2       6 UNK        -0.5000 
     42 CA         -0.7156  -18.7278  -40.5458 C.3       6 UNK         0.1400 
     43 CB         -1.2446  -18.5894  -39.1103 C.3       6 UNK        -0.1800 
     44 N          -1.5042  -17.8697  -41.4317 N.am      6 UNK        -0.5000 
     45 C          -1.4767  -17.9349  -42.7690 C.2       5 UNK         0.5000 
     46 O          -0.7814  -18.7265  -43.4066 O.2       5 UNK        -0.5000 
     47 CA         -2.3452  -16.9157  -43.5263 C.3       5 UNK         0.1400 
     48 CB         -3.7789  -17.4403  -43.6940 C.3       5 UNK        -0.1800 
     49 N          -2.3800  -15.5790  -42.9270 N.am      5 UNK        -0.5000 
     50 C          -1.3063  -14.8042  -42.7268 C.2       4 UNK         0.5000 
     51 O          -0.1454  -15.1827  -42.8910 O.2       4 UNK        -0.5000 
     52 CA         -1.5633  -13.3664  -42.2526 C.3       4 UNK         0.1400 
     53 CB         -1.0571  -13.1692  -40.8155 C.3       4 UNK        -0.1800 
     54 N          -0.8919  -12.4157  -43.1369 N.am      4 UNK        -0.5000 
     55 C          -1.2971  -12.1126  -44.3788 C.2       3 UNK         0.5000 
     56 O          -2.3244  -12.5601  -44.8899 O.2       3 UNK        -0.5000 
     57 CA         -0.4170  -11.1365  -45.1825 C.3       3 UNK         0.1400 
     58 CB         -0.9061   -9.6924  -44.9913 C.3       3 UNK        -0.1800 
     59 N           0.9976  -11.2155  -44.8112 N.am      3 UNK        -0.5000 
     60 C           1.8373  -12.1549  -45.2631 C.2       2 UNK         0.5000 
     61 O           1.5146  -13.0377  -46.0590 O.2       2 UNK        -0.5000 
     62 CA          3.2708  -12.1136  -44.6985 C.3       2 UNK         0.1400 
     63 CB          3.3573  -12.9746  -43.4289 C.3       2 UNK        -0.1800 
     64 N           4.2832  -12.5778  -45.6506 N.am      2 UNK        -0.5000 
     65 C           4.5561  -12.0009  -46.8294 C.2       1 UNK         0.5000 
     66 O           3.9795  -10.9897  -47.2424 O.2       1 UNK        -0.5000 
     67 C          -3.1888  -19.6489  -47.2966 C.2       11 UNK         0.5000 
     68 O          -4.3054  -19.8830  -47.7581 O.2       11 UNK        -0.5000 
     69 N          -2.7109  -20.2275  -46.1831 N.am      12 UNK        -0.5000 
     70 CA         -3.4319  -21.2467  -45.4190 C.3       12 UNK         0.1400 
     71 CB         -2.7381  -21.4901  -44.0701 C.3       12 UNK        -0.1800 
     72 C          -3.5826  -22.5577  -46.2074 C.2       12 UNK         0.5000 
     73 O          -4.6766  -23.1192  -46.2411 O.2       12 UNK        -0.5000 
     74 N          -2.5004  -22.9943  -46.8670 N.am      13 UNK        -0.5000 
     75 CA         -2.4874  -24.1621  -47.7471 C.3       13 UNK         0.1400 
     76 CB         -1.0475  -24.4750  -48.1760 C.3       13 UNK        -0.1800 
     77 C          -3.4030  -23.9910  -48.9719 C.2       13 UNK         0.5000 
     78 O          -4.0994  -24.9379  -49.3363 O.2       13 UNK        -0.5000 
     79 N          -3.4153  -22.7878  -49.5616 N.am      14 UNK        -0.5000 
     80 CA         -4.3122  -22.4017  -50.6503 C.3       14 UNK         0.1400 
     81 CB         -3.9159  -21.0173  -51.1848 C.3       14 UNK        -0.1800 
     82 C          -5.7912  -22.4205  -50.2254 C.2       14 UNK         0.5000 
     83 O          -6.6195  -22.9794  -50.9439 O.2       14 UNK        -0.5000 
     84 N          -6.0915  -21.8477  -49.0500 N.am      15 UNK        -0.5000 
     85 CA         -7.4292  -21.8233  -48.4515 C.3       15 UNK         0.1400 
     86 CB         -7.4250  -20.9026  -47.2218 C.3       15 UNK        -0.1800 
     87 C          -7.9525  -23.2245  -48.0817 C.2       15 UNK         0.5000 
     88 O          -9.1361  -23.5033  -48.2762 O.2       15 UNK        -0.5000 
     89 N          -7.0566  -24.0887  -47.5867 N.am      16 UNK        -0.5000 
     90 CA         -7.3274  -25.4930  -47.2712 C.3       16 UNK         0.1400 
     91 CB         -6.2153  -26.0101  -46.3442 C.3       16 UNK        -0.1800 
     92 C          -7.4403  -26.3979  -48.5158 C.2       16 UNK         0.5000 
     93 O          -7.8814  -27.5401  -48.3837 O.2       16 UNK        -0.5000 
     94 N          -7.0128  -25.8914  -49.6826 N.am      17 UNK        -0.5000 
     95 CA         -6.8790  -26.5850  -50.9689 C.3       17 UNK         0.1400 
     96 CB         -8.2495  -27.0535  -51.5002 C.3       17 UNK        -0.1800 
     97 C          -5.8195  -27.7097  -50.9446 C.2       17 UNK         0.5000 
     98 O          -5.8939  -28.6496  -51.7382 O.2       17 UNK        -0.5000 
     99 N          -4.8360  -27.5797  -50.0446 N.am      18 UNK        -0.5000 
    100 CA        -3.6396  -28.4166  -49.9714 C.3       18 UNK         0.1400 
    101 CB        -3.0733  -28.3511  -48.5446 C.3       18 UNK        -0.1800 
    102 C         -2.5837  -27.9633  -50.9968 C.2       18 UNK         0.5000 
    103 O         -1.8137  -28.7898  -51.4873 O.2       18 UNK        -0.5000 
    104 N         -2.5930  -26.6643  -51.3142 N.am      19 UNK        -0.5000 
    105 CA        -1.8532  -26.0357  -52.4010 C.3       19 UNK         0.1400 
    106 CB        -0.9009  -24.9814  -51.8107 C.3       19 UNK        -0.1800 
    107 C         -2.8551  -25.3817  -53.3664 C.2       19 UNK         0.5000 
    108 O         -4.0433  -25.2677  -53.0504 O.2       19 UNK        -0.5000 
    109 N         -2.3514  -24.9495  -54.5272 N.am      20 UNK        -0.5000 
    110 CA        -3.0958  -24.1595  -55.5075 C.3       20 UNK         0.1400 
    111 CB        -2.2909  -24.1170  -56.8163 C.3       20 UNK        -0.1800 
    112 C         -3.3715  -22.7305  -55.0000 C.2       20 UNK         0.5000 
    113 O         -2.6647  -22.2397  -54.1160 O.2       20 UNK        -0.5000 
    114 N         -4.3769  -22.0775  -55.5950 N.am      21 UNK        -0.5000 
    115 CA        -4.7411  -20.6845  -55.3399 C.3       21 UNK         0.1400 
    116 CB        -6.1493  -20.4263  -55.9032 C.3       21 UNK        -0.1800 
    117 C         -3.6901  -19.7262  -55.9332 C.2       21 UNK         0.5000 
    118 O         -3.8186  -19.3072  -57.0851 O.2       21 UNK        -0.5000 
    119 N         -2.6454  -19.4398  -55.1486 N.am      22 UNK        -0.5000 
    120 CA        -1.4976  -18.6058  -55.5366 C.3       22 UNK         0.1400 
    121 C         -1.7860  -17.0811  -55.6808 C.2       22 UNK         0.5000 
    122 N         -2.9259  -16.5710  -55.2306 N.am      22 UNK        -0.7600 
    123 O         -0.9611  -16.3498  -56.2216 O.2       22 UNK        -0.5000 
    124 C124       -0.2597  -18.8920  -54.6452 C.3       23 UNK        -0.0398 
    125 S125       -0.4849  -18.5063  -52.8700 S.3       23 UNK        -0.2404 
    126 C126        0.3833  -16.9078  -52.7813 C.3       23 UNK        -0.0205 
    127 H127        6.7076  -10.2927  -50.7325 H         1 UNK         0.0600 
    128 H128        6.8485   -8.8624  -49.7068 H         1 UNK         0.0600 
    129 H129        8.2727   -9.8529  -50.0431 H         1 UNK         0.0600 
    130 H130        5.7176  -11.9803  -49.6595 H         1 UNK         0.3000 
    131 H131        6.5243  -12.7992  -46.9942 H         1 UNK         0.0600 
    132 H132        5.0711  -14.7329  -47.3645 H         1 UNK         0.0800 
    133 H133        6.1642  -14.5128  -48.6881 H         1 UNK         0.0800 
    134 H134        3.3779  -16.3015  -48.5930 H         1 UNK         0.0800 
    135 H135        2.6426  -15.0482  -47.6152 H         1 UNK         0.0800 
    136 H136        2.4877  -16.4873  -51.0906 H         1 UNK         0.1150 
    137 H137       -1.7624  -15.9811  -51.3790 H         1 UNK         0.1150 
    138 H138        0.3336  -14.6140  -47.8980 H         1 UNK         0.1150 
    139 H139       -1.9933  -14.2506  -48.0203 H         1 UNK         0.0800 
    140 H140       -2.6437  -14.0817  -49.6315 H         1 UNK         0.0800 
    141 H141       -2.8888  -17.1960  -46.5257 H         1 UNK         0.0800 
    142 H142       -1.4064  -16.7797  -47.3140 H         1 UNK         0.0800 
    143 H143       -2.5621  -18.6825  -49.0834 H         1 UNK         0.0600 
    144 H144       -0.1807  -18.6267  -47.5225 H         1 UNK         0.3000 
    145 H145        1.1267  -21.6818  -48.8717 H         1 UNK         0.0600 
    146 H146        2.9331  -20.1122  -49.4901 H         1 UNK         0.0600 
    147 H147        1.5430  -19.8308  -50.5284 H         1 UNK         0.0600 
    148 H148        1.8826  -18.7267  -49.2020 H         1 UNK         0.0600 
    149 H149        2.2982  -19.8858  -47.0402 H         1 UNK         0.3000 
    150 H150        0.9578  -21.1594  -44.0008 H         1 UNK         0.0600 
    151 H151        2.8304  -22.6504  -44.5751 H         1 UNK         0.0600 
    152 H152        3.3996  -21.3452  -43.5450 H         1 UNK         0.0600 
    153 H153        3.7403  -21.3217  -45.2747 H         1 UNK         0.0600 
    154 H154        1.0935  -18.9876  -43.9263 H         1 UNK         0.3000 
    155 H155        3.2415  -16.4459  -45.1511 H         1 UNK         0.0600 
    156 H156        0.9773  -15.4659  -45.4870 H         1 UNK         0.0600 
    157 H157        0.2357  -17.0475  -45.3106 H         1 UNK         0.0600 
    158 H158        1.2619  -16.7214  -46.6894 H         1 UNK         0.0600 
    159 H159        1.2392  -16.3653  -43.1709 H         1 UNK         0.3000 
    160 H160        3.1792  -17.2582  -40.3133 H         1 UNK         0.0600 
    161 H161        1.9998  -14.6099  -41.3035 H         1 UNK         0.0600 
    162 H162        3.6569  -14.8562  -40.7692 H         1 UNK         0.0600 
    163 H163        2.3339  -15.0288  -39.6250 H         1 UNK         0.0600 
    164 H164        0.4289  -16.4726  -41.0001 H         1 UNK         0.3000 
    165 H165       -0.8566  -19.7635  -40.8631 H         1 UNK         0.0600 
    166 H166       -1.1509  -17.5666  -38.7430 H         1 UNK         0.0600 
    167 H167       -2.2949  -18.8746  -39.0477 H         1 UNK         0.0600 
    168 H168       -0.6924  -19.2357  -38.4267 H         1 UNK         0.0600 
    169 H169       -2.0999  -17.1824  -40.9938 H         1 UNK         0.3000 
    170 H170       -1.9084  -16.8017  -44.5175 H         1 UNK         0.0600 
    171 H171       -3.7862  -18.4208  -44.1700 H         1 UNK         0.0600 
    172 H172       -4.2868  -17.5384  -42.7338 H         1 UNK         0.0600 
    173 H173       -4.3722  -16.7747  -44.3212 H         1 UNK         0.0600 
    174 H174       -3.2966  -15.1909  -42.7565 H         1 UNK         0.3000 
    175 H175       -2.6366  -13.1651  -42.2702 H         1 UNK         0.0600 
    176 H176       -1.2783  -12.1643  -40.4556 H         1 UNK         0.0600 
    177 H177       -1.5365  -13.8713  -40.1321 H         1 UNK         0.0600 
    178 H178        0.0199  -13.3209  -40.7400 H         1 UNK         0.0600 
    179 H179       -0.0166  -12.0365  -42.8107 H         1 UNK         0.3000 
    180 H180       -0.5213  -11.3902  -46.2399 H         1 UNK         0.0600 
    181 H181       -0.8228   -9.3715  -43.9522 H         1 UNK         0.0600 
    182 H182       -1.9528   -9.5934  -45.2824 H         1 UNK         0.0600 
    183 H183       -0.3326   -8.9976  -45.6051 H         1 UNK         0.0600 
    184 H184        1.3368  -10.5155  -44.1672 H         1 UNK         0.3000 
    185 H185        3.5125  -11.0812  -44.4375 H         1 UNK         0.0600 
    186 H186        4.3513  -12.9301  -42.9835 H         1 UNK         0.0600 
    187 H187        2.6494  -12.6308  -42.6739 H         1 UNK         0.0600 
    188 H188        3.1285  -14.0199  -43.6397 H         1 UNK         0.0600 
    189 H189        4.7905  -13.4073  -45.3820 H         1 UNK         0.3000 
    190 H190       -1.7695  -20.0203  -45.8842 H         1 UNK         0.3000 
    191 H191       -4.4363  -20.8694  -45.2150 H         1 UNK         0.0600 
    192 H192       -2.7697  -20.5997  -43.4441 H         1 UNK         0.0600 
    193 H193       -3.2335  -22.2879  -43.5153 H         1 UNK         0.0600 
    194 H194       -1.6939  -21.7768  -44.1932 H         1 UNK         0.0600 
    195 H195       -1.6193  -22.5004  -46.7501 H         1 UNK         0.3000 
    196 H196       -2.8602  -25.0117  -47.1718 H         1 UNK         0.0600 
    197 H197       -1.0110  -25.3830  -48.7784 H         1 UNK         0.0600 
    198 H198       -0.4042  -24.6341  -47.3104 H         1 UNK         0.0600 
    199 H199       -0.6173  -23.6660  -48.7673 H         1 UNK         0.0600 
    200 H200       -2.7488  -22.0841  -49.2554 H         1 UNK         0.3000 
    201 H201       -4.1877  -23.1231  -51.4594 H         1 UNK         0.0600 
    202 H202       -2.9074  -21.0291  -51.5991 H         1 UNK         0.0600 
    203 H203       -3.9475  -20.2568  -50.4056 H         1 UNK         0.0600 
    204 H204       -4.5915  -20.6985  -51.9773 H         1 UNK         0.0600 
    205 H205       -5.3578  -21.3689  -48.5358 H         1 UNK         0.3000 
    206 H206       -8.1143  -21.3999  -49.1888 H         1 UNK         0.0600 
    207 H207       -7.1401  -19.8857  -47.4923 H         1 UNK         0.0600 
    208 H208       -8.4148  -20.8529  -46.7664 H         1 UNK         0.0600 
    209 H209       -6.7288  -21.2525  -46.4591 H         1 UNK         0.0600 
    210 H210       -6.1196  -23.7527  -47.3810 H         1 UNK         0.3000 
    211 H211       -8.2765  -25.5517  -46.7347 H         1 UNK         0.0600 
    212 H212       -5.2391  -25.9704  -46.8290 H         1 UNK         0.0600 
    213 H213       -6.3951  -27.0455  -46.0521 H         1 UNK         0.0600 
    214 H214       -6.1587  -25.4206  -45.4290 H         1 UNK         0.0600 
    215 H215       -6.6606  -24.9426  -49.6747 H         1 UNK         0.3000 
    216 H216       -6.4983  -25.8373  -51.6662 H         1 UNK         0.0600 
    217 H217       -8.9720  -26.2373  -51.4986 H         1 UNK         0.0600 
    218 H218       -8.6605  -27.8689  -50.9048 H         1 UNK         0.0600 
    219 H219       -8.1676  -27.4105  -52.5274 H         1 UNK         0.0600 
    220 H220       -4.8195  -26.7267  -49.4939 H         1 UNK         0.3000 
    221 H221       -3.9087  -29.4519  -50.1909 H         1 UNK         0.0600 
    222 H222       -2.7803  -27.3367  -48.2729 H         1 UNK         0.0600 
    223 H223       -3.8062  -28.6945  -47.8142 H         1 UNK         0.0600 
    224 H224       -2.1918  -28.9857  -48.4455 H         1 UNK         0.0600 
    225 H225       -3.3035  -26.0786  -50.8890 H         1 UNK         0.3000 
    226 H226       -1.2746  -26.7767  -52.9563 H         1 UNK         0.0600 
    227 H227       -0.2097  -25.4306  -51.0979 H         1 UNK         0.0600 
    228 H228       -0.2989  -24.5128  -52.5898 H         1 UNK         0.0600 
    229 H229       -1.4449  -24.1862  -51.3001 H         1 UNK         0.0600 
    230 H230       -1.3616  -25.0498  -54.6972 H         1 UNK         0.3000 
    231 H231       -4.0518  -24.6526  -55.6967 H         1 UNK         0.0600 
    232 H232       -2.8276  -23.5685  -57.5914 H         1 UNK         0.0600 
    233 H233       -2.1078  -25.1209  -57.2001 H         1 UNK         0.0600 
    234 H234       -1.3253  -23.6283  -56.6788 H         1 UNK         0.0600 
    235 H235       -4.8872  -22.5393  -56.3337 H         1 UNK         0.3000 
    236 H236       -4.7825  -20.5217  -54.2623 H         1 UNK         0.0600 
    237 H237       -6.4492  -19.3900  -55.7424 H         1 UNK         0.0600 
    238 H238       -6.2007  -20.6207  -56.9753 H         1 UNK         0.0600 
    239 H239       -6.8905  -21.0579  -55.4130 H         1 UNK         0.0600 
    240 H240       -2.5805  -19.8851  -54.2425 H         1 UNK         0.3000 
    241 H241       -1.2215  -18.9268  -56.5430 H         1 UNK         0.0600 
    242 H242       -3.6075  -17.1604  -54.7815 H         1 UNK         0.3800 
    243 H243       -3.1051  -15.5850  -55.3360 H         1 UNK         0.3800 
    244 H244       -0.0071  -19.9508  -54.7171 H         1 UNK         0.0800 
    245 H245        0.6150  -18.3650  -55.0299 H         1 UNK         0.0800 
    246 H246        1.4110  -17.0418  -53.1225 H         1 UNK         0.0800 
    247 H247       -0.0797  -16.2007  -53.4700 H         1 UNK         0.0800 
@<TRIPOS>BOND
     1    1    2 1    
     2    1  127 1    
     3    1  128 1    
     4    1  129 1    
     5    2    3 2    
     6    2    4 am   BACKBONE|DICT|INTERRES
     7    4    5 1    
     8    4  130 1    
     9    5    6 1    
    10    5   65 1    
    11    5  131 1    
    12    6    7 1    
    13    6  132 1    
    14    6  133 1    
    15    7    8 1    
    16    8    9 1    
    17    8  134 1    
    18    8  135 1    
    19    9   10 ar   
    20    9   14 ar   
    21   10   11 ar   
    22   10  136 1    
    23   11   12 ar   
    24   11  126 1    
    25   12   13 ar   
    26   12  137 1    
    27   13   14 ar   
    28   13   15 1    
    29   14  138 1    
    30   15   16 1    
    31   15  139 1    
    32   15  140 1    
    33   16   17 1    
    34   17   18 1    
    35   17  141 1    
    36   17  142 1    
    37   18   19 1    
    38   18   67 1    
    39   18  143 1    
    40   19   20 am   BACKBONE|DICT|INTERRES
    41   19  144 1    
    42   20   21 2    
    43   20   22 1    
    44   22   23 1    
    45   22   24 1    
    46   22  145 1    
    47   23  146 1    
    48   23  147 1    
    49   23  148 1    
    50   24   25 am   BACKBONE|DICT|INTERRES
    51   24  149 1    
    52   25   26 2    
    53   25   27 1    
    54   27   28 1    
    55   27   29 1    
    56   27  150 1    
    57   28  151 1    
    58   28  152 1    
    59   28  153 1    
    60   29   30 am   BACKBONE|DICT|INTERRES
    61   29  154 1    
    62   30   31 2    
    63   30   32 1    
    64   32   33 1    
    65   32   34 1    
    66   32  155 1    
    67   33  156 1    
    68   33  157 1    
    69   33  158 1    
    70   34   35 am   BACKBONE|DICT|INTERRES
    71   34  159 1    
    72   35   36 2    
    73   35   37 1    
    74   37   38 1    
    75   37   39 1    
    76   37  160 1    
    77   38  161 1    
    78   38  162 1    
    79   38  163 1    
    80   39   40 am   BACKBONE|DICT|INTERRES
    81   39  164 1    
    82   40   41 2    
    83   40   42 1    
    84   42   43 1    
    85   42   44 1    
    86   42  165 1    
    87   43  166 1    
    88   43  167 1    
    89   43  168 1    
    90   44   45 am   BACKBONE|DICT|INTERRES
    91   44  169 1    
    92   45   46 2    
    93   45   47 1    
    94   47   48 1    
    95   47   49 1    
    96   47  170 1    
    97   48  171 1    
    98   48  172 1    
    99   48  173 1    
   100   49   50 am   BACKBONE|DICT|INTERRES
   101   49  174 1    
   102   50   51 2    
   103   50   52 1    
   104   52   53 1    
   105   52   54 1    
   106   52  175 1    
   107   53  176 1    
   108   53  177 1    
   109   53  178 1    
   110   54   55 am   BACKBONE|DICT|INTERRES
   111   54  179 1    
   112   55   56 2    
   113   55   57 1    
   114   57   58 1    
   115   57   59 1    
   116   57  180 1    
   117   58  181 1    
   118   58  182 1    
   119   58  183 1    
   120   59   60 am   BACKBONE|DICT|INTERRES
   121   59  184 1    
   122   60   61 2    
   123   60   62 1    
   124   62   63 1    
   125   62   64 1    
   126   62  185 1    
   127   63  186 1    
   128   63  187 1    
   129   63  188 1    
   130   64   65 am   BACKBONE|DICT|INTERRES
   131   64  189 1    
   132   65   66 2    
   133   67   68 2    
   134   67   69 am   BACKBONE|DICT|INTERRES
   135   69   70 1    
   136   69  190 1    
   137   70   71 1    
   138   70   72 1    
   139   70  191 1    
   140   71  192 1    
   141   71  193 1    
   142   71  194 1    
   143   72   73 2    
   144   72   74 am   BACKBONE|DICT|INTERRES
   145   74   75 1    
   146   74  195 1    
   147   75   76 1    
   148   75   77 1    
   149   75  196 1    
   150   76  197 1    
   151   76  198 1    
   152   76  199 1    
   153   77   78 2    
   154   77   79 am   BACKBONE|DICT|INTERRES
   155   79   80 1    
   156   79  200 1    
   157   80   81 1    
   158   80   82 1    
   159   80  201 1    
   160   81  202 1    
   161   81  203 1    
   162   81  204 1    
   163   82   83 2    
   164   82   84 am   BACKBONE|DICT|INTERRES
   165   84   85 1    
   166   84  205 1    
   167   85   86 1    
   168   85   87 1    
   169   85  206 1    
   170   86  207 1    
   171   86  208 1    
   172   86  209 1    
   173   87   88 2    
   174   87   89 am   BACKBONE|DICT|INTERRES
   175   89   90 1    
   176   89  210 1    
   177   90   91 1    
   178   90   92 1    
   179   90  211 1    
   180   91  212 1    
   181   91  213 1    
   182   91  214 1    
   183   92   93 2    
   184   92   94 am   BACKBONE|DICT|INTERRES
   185   94   95 1    
   186   94  215 1    
   187   95   96 1    
   188   95   97 1    
   189   95  216 1    
   190   96  217 1    
   191   96  218 1    
   192   96  219 1    
   193   97   98 2    
   194   97   99 am   BACKBONE|DICT|INTERRES
   195   99  100 1    
   196   99  220 1    
   197  100  101 1    
   198  100  102 1    
   199  100  221 1    
   200  101  222 1    
   201  101  223 1    
   202  101  224 1    
   203  102  103 2    
   204  102  104 am   BACKBONE|DICT|INTERRES
   205  104  105 1    
   206  104  225 1    
   207  105  106 1    
   208  105  107 1    
   209  105  226 1    
   210  106  227 1    
   211  106  228 1    
   212  106  229 1    
   213  107  108 2    
   214  107  109 am   BACKBONE|DICT|INTERRES
   215  109  110 1    
   216  109  230 1    
   217  110  111 1    
   218  110  112 1    
   219  110  231 1    
   220  111  232 1    
   221  111  233 1    
   222  111  234 1    
   223  112  113 2    
   224  112  114 am   BACKBONE|DICT|INTERRES
   225  114  115 1    
   226  114  235 1    
   227  115  116 1    
   228  115  117 1    
   229  115  236 1    
   230  116  237 1    
   231  116  238 1    
   232  116  239 1    
   233  117  118 2    
   234  117  119 am   BACKBONE|DICT|INTERRES
   235  119  120 1    
   236  119  240 1    
   237  120  121 1    
   238  120  124 1    
   239  120  241 1    
   240  121  122 am   BACKBONE|DICT|INTERRES
   241  121  123 2    
   242  122  242 1    
   243  122  243 1    
   244  124  125 1    
   245  124  244 1    
   246  124  245 1    
   247  125  126 1    
   248  126  246 1    
   249  126  247 1    
@<TRIPOS>SUBSTRUCTURE
     1 UNK         1 GROUP             0       ****    0 ROOT    
