@<TRIPOS>MOLECULE
3R540
247   249    1
SMALL
USER_CHARGES


@<TRIPOS>ATOM
      1 CA         -3.9221  -15.6778  -48.5303 C.3       0 UNK        -0.1800 
      2 C          -3.0706  -14.4244  -48.6688 C.2       0 UNK         0.5000 
      3 O          -3.5914  -13.3530  -48.9775 O.2       0 UNK        -0.5000 
      4 N          -1.7600  -14.5640  -48.4389 N.am      1 UNK        -0.5000 
      5 CA         -0.7701  -13.4852  -48.4021 C.3       1 UNK         0.1400 
      6 C6          0.6853  -14.0272  -48.3710 C.3       23 UNK        -0.0398 
      7 S7          1.1017  -15.1319  -49.7647 S.3       23 UNK        -0.2404 
      8 C8          0.8239  -16.7693  -49.0056 C.3       23 UNK        -0.0205 
      9 C9          1.3321  -17.9337  -49.8462 C.ar      23 UNK        -0.0193 
     10 C10         1.0450  -18.0140  -51.2131 C.ar      23 UNK        -0.1150 
     11 C11         1.4808  -19.1036  -51.9772 C.ar      23 UNK        -0.0193 
     12 C12         2.2099  -20.1198  -51.3495 C.ar      23 UNK        -0.1150 
     13 C13         2.4962  -20.0601  -49.9820 C.ar      23 UNK        -0.0193 
     14 C14         2.0571  -18.9627  -49.2373 C.ar      23 UNK        -0.1150 
     15 C15         3.2916  -21.1747  -49.3161 C.3       23 UNK        -0.0205 
     16 S16         2.2344  -22.5694  -48.8089 S.3       23 UNK        -0.2404 
     17 C17         1.4376  -21.9101  -47.3044 C.3       23 UNK        -0.0398 
     18 CA          0.8638  -23.0279  -46.3980 C.3       11 UNK         0.1400 
     19 N           0.6648  -22.5741  -45.0225 N.am      11 UNK        -0.5000 
     20 C           0.4347  -23.3821  -43.9783 C.2       10 UNK         0.5000 
     21 O           0.4557  -24.6111  -44.0454 O.2       10 UNK        -0.5000 
     22 CA          0.0876  -22.7044  -42.6395 C.3       10 UNK         0.1400 
     23 CB          1.3635  -22.3045  -41.8842 C.3       10 UNK        -0.1800 
     24 N          -0.7787  -21.5344  -42.8004 N.am      10 UNK        -0.5000 
     25 C          -2.0247  -21.5783  -43.2956 C.2       9 UNK         0.5000 
     26 O          -2.5891  -22.6174  -43.6380 O.2       9 UNK        -0.5000 
     27 CA         -2.7465  -20.2324  -43.4831 C.3       9 UNK         0.1400 
     28 CB         -3.3092  -19.7229  -42.1480 C.3       9 UNK        -0.1800 
     29 N          -1.8890  -19.2079  -44.0787 N.am      9 UNK        -0.5000 
     30 C          -1.3430  -19.2861  -45.3009 C.2       8 UNK         0.5000 
     31 O          -1.5217  -20.2219  -46.0775 O.2       8 UNK        -0.5000 
     32 CA         -0.3865  -18.1538  -45.7036 C.3       8 UNK         0.1400 
     33 CB         -1.1721  -16.8826  -46.0505 C.3       8 UNK        -0.1800 
     34 N           0.5959  -17.8632  -44.6614 N.am      8 UNK        -0.5000 
     35 C           1.4887  -18.7439  -44.1872 C.2       7 UNK         0.5000 
     36 O           1.6296  -19.8829  -44.6296 O.2       7 UNK        -0.5000 
     37 CA          2.3274  -18.2943  -42.9808 C.3       7 UNK         0.1400 
     38 CB          3.5565  -17.4948  -43.4371 C.3       7 UNK        -0.1800 
     39 N           1.5354  -17.5022  -42.0393 N.am      7 UNK        -0.5000 
     40 C           0.5665  -18.0054  -41.2607 C.2       6 UNK         0.5000 
     41 O           0.2671  -19.1992  -41.2277 O.2       6 UNK        -0.5000 
     42 CA         -0.2275  -16.9978  -40.4085 C.3       6 UNK         0.1400 
     43 CB          0.5391  -16.6486  -39.1242 C.3       6 UNK        -0.1800 
     44 N          -0.5391  -15.7684  -41.1400 N.am      6 UNK        -0.5000 
     45 C          -1.3760  -15.7070  -42.1851 C.2       5 UNK         0.5000 
     46 O          -2.0076  -16.6752  -42.6074 O.2       5 UNK        -0.5000 
     47 CA         -1.4956  -14.3509  -42.9082 C.3       5 UNK         0.1400 
     48 CB         -2.6158  -13.5023  -42.2902 C.3       5 UNK        -0.1800 
     49 N          -0.2573  -13.5662  -42.9388 N.am      5 UNK        -0.5000 
     50 C           0.9004  -13.9767  -43.4746 C.2       4 UNK         0.5000 
     51 O           1.0850  -15.1137  -43.9114 O.2       4 UNK        -0.5000 
     52 CA          2.0101  -12.9206  -43.5645 C.3       4 UNK         0.1400 
     53 CB          3.3165  -13.4634  -44.1765 C.3       4 UNK        -0.1800 
     54 N           1.5239  -11.7914  -44.3529 N.am      4 UNK        -0.5000 
     55 C           1.9388  -10.5251  -44.2149 C.2       3 UNK         0.5000 
     56 O           2.7555  -10.1709  -43.3633 O.2       3 UNK        -0.5000 
     57 CA          1.3766   -9.4689  -45.1903 C.3       3 UNK         0.1400 
     58 CB          2.4460   -9.0725  -46.2208 C.3       3 UNK        -0.1800 
     59 N           0.1781   -9.9014  -45.9094 N.am      3 UNK        -0.5000 
     60 C          -1.0454  -10.0047  -45.3749 C.2       2 UNK         0.5000 
     61 O          -1.3094   -9.7072  -44.2095 O.2       2 UNK        -0.5000 
     62 CA         -2.1580  -10.5551  -46.2912 C.3       2 UNK         0.1400 
     63 CB         -2.9581   -9.4015  -46.9148 C.3       2 UNK        -0.1800 
     64 N          -1.6913  -11.4458  -47.3625 N.am      2 UNK        -0.5000 
     65 C          -1.0391  -12.5997  -47.1683 C.2       1 UNK         0.5000 
     66 O          -0.6723  -12.9891  -46.0604 O.2       1 UNK        -0.5000 
     67 C          -0.4333  -23.6396  -46.9665 C.2       11 UNK         0.5000 
     68 O          -0.4116  -24.7808  -47.4266 O.2       11 UNK        -0.5000 
     69 N          -1.5501  -22.9001  -46.8831 N.am      12 UNK        -0.5000 
     70 CA         -2.8659  -23.2879  -47.4023 C.3       12 UNK         0.1400 
     71 CB         -3.8507  -22.1200  -47.2500 C.3       12 UNK        -0.1800 
     72 C          -3.4378  -24.5728  -46.7828 C.2       12 UNK         0.5000 
     73 O          -4.1400  -25.3053  -47.4775 O.2       12 UNK        -0.5000 
     74 N          -3.0813  -24.8641  -45.5254 N.am      13 UNK        -0.5000 
     75 CA         -3.4087  -26.1125  -44.8333 C.3       13 UNK         0.1400 
     76 CB         -2.9293  -26.0197  -43.3768 C.3       13 UNK        -0.1800 
     77 C          -2.8396  -27.3796  -45.5100 C.2       13 UNK         0.5000 
     78 O          -3.3993  -28.4594  -45.3141 O.2       13 UNK        -0.5000 
     79 N          -1.7598  -27.2322  -46.2908 N.am      14 UNK        -0.5000 
     80 CA         -1.1315  -28.3055  -47.0585 C.3       14 UNK         0.1400 
     81 CB          0.3667  -28.3513  -46.7166 C.3       14 UNK        -0.1800 
     82 C          -1.3317  -28.1119  -48.5716 C.2       14 UNK         0.5000 
     83 O          -1.6751  -29.0699  -49.2650 O.2       14 UNK        -0.5000 
     84 N          -1.0886  -26.8904  -49.0641 N.am      15 UNK        -0.5000 
     85 CA         -1.0271  -26.5664  -50.4893 C.3       15 UNK         0.1400 
     86 CB         -0.1350  -25.3275  -50.6730 C.3       15 UNK        -0.1800 
     87 C          -2.3973  -26.3163  -51.1398 C.2       15 UNK         0.5000 
     88 O          -2.5004  -26.4371  -52.3613 O.2       15 UNK        -0.5000 
     89 N          -3.4033  -25.9270  -50.3410 N.am      16 UNK        -0.5000 
     90 CA         -4.7617  -25.5014  -50.7154 C.3       16 UNK         0.1400 
     91 CB         -5.5365  -26.6282  -51.4254 C.3       16 UNK        -0.1800 
     92 C          -4.8105  -24.1871  -51.5223 C.2       16 UNK         0.5000 
     93 O          -5.5065  -23.2525  -51.1247 O.2       16 UNK        -0.5000 
     94 N          -4.0568  -24.1261  -52.6268 N.am      17 UNK        -0.5000 
     95 CA         -3.9871  -23.0016  -53.5613 C.3       17 UNK         0.1400 
     96 CB         -3.2355  -23.4466  -54.8247 C.3       17 UNK        -0.1800 
     97 C          -3.3353  -21.7365  -52.9768 C.2       17 UNK         0.5000 
     98 O          -3.5758  -20.6479  -53.4956 O.2       17 UNK        -0.5000 
     99 N          -2.5421  -21.8796  -51.9063 N.am      18 UNK        -0.5000 
    100 CA        -1.8303  -20.7890  -51.2294 C.3       18 UNK         0.1400 
    101 CB        -0.8780  -21.3827  -50.1899 C.3       18 UNK        -0.1800 
    102 C         -2.7327  -19.7087  -50.5967 C.2       18 UNK         0.5000 
    103 O         -2.2355  -18.6452  -50.2246 O.2       18 UNK        -0.5000 
    104 N         -4.0480  -19.9585  -50.5365 N.am      19 UNK        -0.5000 
    105 CA        -5.0996  -18.9915  -50.2216 C.3       19 UNK         0.1400 
    106 CB        -6.3814  -19.7677  -49.8726 C.3       19 UNK        -0.1800 
    107 C         -5.3119  -17.9624  -51.3618 C.2       19 UNK         0.5000 
    108 O         -6.4242  -17.8175  -51.8699 O.2       19 UNK        -0.5000 
    109 N         -4.2248  -17.2786  -51.7450 N.am      20 UNK        -0.5000 
    110 CA        -4.0967  -16.1951  -52.7272 C.3       20 UNK         0.1400 
    111 CB        -4.9592  -14.9813  -52.3225 C.3       20 UNK        -0.1800 
    112 C         -4.3231  -16.5779  -54.2065 C.2       20 UNK         0.5000 
    113 O         -4.2050  -15.6971  -55.0604 O.2       20 UNK        -0.5000 
    114 N         -4.6229  -17.8475  -54.5134 N.am      21 UNK        -0.5000 
    115 CA        -4.7897  -18.3264  -55.8875 C.3       21 UNK         0.1400 
    116 CB        -5.7399  -19.5360  -55.9158 C.3       21 UNK        -0.1800 
    117 C         -3.4251  -18.6545  -56.5154 C.2       21 UNK         0.5000 
    118 O         -3.0787  -18.0960  -57.5567 O.2       21 UNK        -0.5000 
    119 N         -2.6740  -19.5342  -55.8418 N.am      22 UNK        -0.5000 
    120 CA        -1.2916  -19.9484  -56.1376 C.3       22 UNK         0.1400 
    121 C         -1.0725  -20.6289  -57.5250 C.2       22 UNK         0.5000 
    122 N         -2.1070  -21.1428  -58.1790 N.am      22 UNK        -0.7600 
    123 O          0.0539  -20.7305  -58.0039 O.2       22 UNK        -0.5000 
    124 C124       -0.2670  -18.8203  -55.8356 C.3       23 UNK        -0.0398 
    125 S125       -0.2830  -18.3435  -54.0708 S.3       23 UNK        -0.2404 
    126 C126        1.2183  -19.2035  -53.4808 C.3       23 UNK        -0.0205 
    127 H127       -4.2582  -15.7905  -47.4997 H         1 UNK         0.0600 
    128 H128       -3.3565  -16.5666  -48.8084 H         1 UNK         0.0600 
    129 H129       -4.8024  -15.6219  -49.1696 H         1 UNK         0.0600 
    130 H130       -1.4058  -15.4739  -48.1930 H         1 UNK         0.3000 
    131 H131       -0.8890  -12.8809  -49.3039 H         1 UNK         0.0600 
    132 H132        1.3864  -13.1915  -48.4050 H         1 UNK         0.0800 
    133 H133        0.8987  -14.5448  -47.4343 H         1 UNK         0.0800 
    134 H134       -0.2437  -16.9175  -48.8481 H         1 UNK         0.0800 
    135 H135        1.3000  -16.7848  -48.0241 H         1 UNK         0.0800 
    136 H136        0.4796  -17.2189  -51.6763 H         1 UNK         0.1150 
    137 H137        2.5564  -20.9659  -51.9264 H         1 UNK         0.1150 
    138 H138        2.2745  -18.9168  -48.1793 H         1 UNK         0.1150 
    139 H139        4.0445  -21.5459  -50.0129 H         1 UNK         0.0800 
    140 H140        3.8429  -20.7932  -48.4553 H         1 UNK         0.0800 
    141 H141        0.6748  -21.1790  -47.5750 H         1 UNK         0.0800 
    142 H142        2.1999  -21.3572  -46.7548 H         1 UNK         0.0800 
    143 H143        1.6054  -23.8289  -46.3538 H         1 UNK         0.0600 
    144 H144        0.6967  -21.5708  -44.8661 H         1 UNK         0.3000 
    145 H145       -0.4519  -23.4336  -42.0315 H         1 UNK         0.0600 
    146 H146        1.1280  -21.8898  -40.9039 H         1 UNK         0.0600 
    147 H147        2.0100  -23.1684  -41.7252 H         1 UNK         0.0600 
    148 H148        1.9397  -21.5600  -42.4333 H         1 UNK         0.0600 
    149 H149       -0.3997  -20.6421  -42.5004 H         1 UNK         0.3000 
    150 H150       -3.5848  -20.3981  -44.1626 H         1 UNK         0.0600 
    151 H151       -3.9596  -20.4676  -41.6876 H         1 UNK         0.0600 
    152 H152       -3.9003  -18.8180  -42.2904 H         1 UNK         0.0600 
    153 H153       -2.5152  -19.4934  -41.4367 H         1 UNK         0.0600 
    154 H154       -1.7208  -18.3772  -43.5184 H         1 UNK         0.3000 
    155 H155        0.1601  -18.4775  -46.5912 H         1 UNK         0.0600 
    156 H156       -1.8235  -16.5701  -45.2360 H         1 UNK         0.0600 
    157 H157       -0.5048  -16.0516  -46.2738 H         1 UNK         0.0600 
    158 H158       -1.8065  -17.0554  -46.9192 H         1 UNK         0.0600 
    159 H159        0.5956  -16.9234  -44.2737 H         1 UNK         0.3000 
    160 H160        2.6797  -19.1880  -42.4619 H         1 UNK         0.0600 
    161 H161        4.2043  -18.1081  -44.0647 H         1 UNK         0.0600 
    162 H162        3.2764  -16.6183  -44.0208 H         1 UNK         0.0600 
    163 H163        4.1501  -17.1592  -42.5867 H         1 UNK         0.0600 
    164 H164        1.6648  -16.5013  -42.0711 H         1 UNK         0.3000 
    165 H165       -1.1691  -17.4728  -40.1243 H         1 UNK         0.0600 
    166 H166       -0.0502  -15.9970  -38.4787 H         1 UNK         0.0600 
    167 H167        0.7706  -17.5480  -38.5521 H         1 UNK         0.0600 
    168 H168        1.4820  -16.1446  -39.3399 H         1 UNK         0.0600 
    169 H169       -0.0582  -14.9274  -40.8571 H         1 UNK         0.3000 
    170 H170       -1.7669  -14.5592  -43.9446 H         1 UNK         0.0600 
    171 H171       -3.5595  -14.0494  -42.2784 H         1 UNK         0.0600 
    172 H172       -2.3862  -13.2194  -41.2622 H         1 UNK         0.0600 
    173 H173       -2.7784  -12.5887  -42.8628 H         1 UNK         0.0600 
    174 H174       -0.3264  -12.6083  -42.6272 H         1 UNK         0.3000 
    175 H175        2.2162  -12.5940  -42.5431 H         1 UNK         0.0600 
    176 H176        3.1614  -13.8324  -45.1912 H         1 UNK         0.0600 
    177 H177        4.0871  -12.6935  -44.2147 H         1 UNK         0.0600 
    178 H178        3.7135  -14.2853  -43.5805 H         1 UNK         0.0600 
    179 H179        0.8061  -12.0160  -45.0358 H         1 UNK         0.3000 
    180 H180        1.1252   -8.5837  -44.6023 H         1 UNK         0.0600 
    181 H181        2.7351   -9.9183  -46.8459 H         1 UNK         0.0600 
    182 H182        3.3476   -8.7051  -45.7287 H         1 UNK         0.0600 
    183 H183        2.0888   -8.2767  -46.8747 H         1 UNK         0.0600 
    184 H184        0.2991  -10.1664  -46.8756 H         1 UNK         0.3000 
    185 H185       -2.8340  -11.1348  -45.6591 H         1 UNK         0.0600 
    186 H186       -3.8125   -9.7743  -47.4803 H         1 UNK         0.0600 
    187 H187       -3.3468   -8.7331  -46.1453 H         1 UNK         0.0600 
    188 H188       -2.3428   -8.8042  -47.5888 H         1 UNK         0.0600 
    189 H189       -2.0000  -11.2184  -48.2973 H         1 UNK         0.3000 
    190 H190       -1.4921  -21.9651  -46.4811 H         1 UNK         0.3000 
    191 H191       -2.7504  -23.4899  -48.4682 H         1 UNK         0.0600 
    192 H192       -3.9894  -21.8491  -46.2030 H         1 UNK         0.0600 
    193 H193       -4.8291  -22.3757  -47.6590 H         1 UNK         0.0600 
    194 H194       -3.4996  -21.2354  -47.7816 H         1 UNK         0.0600 
    195 H195       -2.5595  -24.1725  -44.9971 H         1 UNK         0.3000 
    196 H196       -4.4962  -26.2092  -44.8283 H         1 UNK         0.0600 
    197 H197       -3.1812  -26.9246  -42.8224 H         1 UNK         0.0600 
    198 H198       -3.3975  -25.1822  -42.8594 H         1 UNK         0.0600 
    199 H199       -1.8486  -25.8883  -43.3182 H         1 UNK         0.0600 
    200 H200       -1.3707  -26.3039  -46.4122 H         1 UNK         0.3000 
    201 H201       -1.5621  -29.2732  -46.7932 H         1 UNK         0.0600 
    202 H202        0.5203  -28.5648  -45.6587 H         1 UNK         0.0600 
    203 H203        0.8627  -27.4058  -46.9404 H         1 UNK         0.0600 
    204 H204        0.8743  -29.1327  -47.2836 H         1 UNK         0.0600 
    205 H205       -0.8028  -26.1471  -48.4275 H         1 UNK         0.3000 
    206 H206       -0.5594  -27.3996  -51.0183 H         1 UNK         0.0600 
    207 H207        0.8632  -25.4949  -50.2677 H         1 UNK         0.0600 
    208 H208       -0.0189  -25.0774  -51.7284 H         1 UNK         0.0600 
    209 H209       -0.5534  -24.4536  -50.1730 H         1 UNK         0.0600 
    210 H210       -3.2192  -25.8831  -49.3459 H         1 UNK         0.3000 
    211 H211       -5.2842  -25.3037  -49.7794 H         1 UNK         0.0600 
    212 H212       -5.1045  -26.8818  -52.3935 H         1 UNK         0.0600 
    213 H213       -6.5721  -26.3345  -51.6005 H         1 UNK         0.0600 
    214 H214       -5.5540  -27.5339  -50.8191 H         1 UNK         0.0600 
    215 H215       -3.4909  -24.9436  -52.8438 H         1 UNK         0.3000 
    216 H216       -5.0080  -22.7377  -53.8448 H         1 UNK         0.0600 
    217 H217       -3.1954  -22.6436  -55.5619 H         1 UNK         0.0600 
    218 H218       -3.7290  -24.2952  -55.2985 H         1 UNK         0.0600 
    219 H219       -2.2089  -23.7387  -54.5996 H         1 UNK         0.0600 
    220 H220       -2.4043  -22.8094  -51.5416 H         1 UNK         0.3000 
    221 H221       -1.2266  -20.2806  -51.9818 H         1 UNK         0.0600 
    222 H222       -1.4109  -21.9720  -49.4509 H         1 UNK         0.0600 
    223 H223       -0.1295  -22.0196  -50.6604 H         1 UNK         0.0600 
    224 H224       -0.3465  -20.5951  -49.6566 H         1 UNK         0.0600 
    225 H225       -4.3658  -20.8522  -50.8847 H         1 UNK         0.3000 
    226 H226       -4.7999  -18.4350  -49.3323 H         1 UNK         0.0600 
    227 H227       -6.2157  -20.4445  -49.0341 H         1 UNK         0.0600 
    228 H228       -7.1863  -19.0894  -49.5866 H         1 UNK         0.0600 
    229 H229       -6.7333  -20.3624  -50.7167 H         1 UNK         0.0600 
    230 H230       -3.3582  -17.5352  -51.2784 H         1 UNK         0.3000 
    231 H231       -3.0532  -15.8818  -52.6694 H         1 UNK         0.0600 
    232 H232       -4.7842  -14.1340  -52.9865 H         1 UNK         0.0600 
    233 H233       -4.7230  -14.6444  -51.3149 H         1 UNK         0.0600 
    234 H234       -6.0248  -15.2078  -52.3618 H         1 UNK         0.0600 
    235 H235       -4.6593  -18.5379  -53.7759 H         1 UNK         0.3000 
    236 H236       -5.2535  -17.5412  -56.4887 H         1 UNK         0.0600 
    237 H237       -6.7178  -19.2732  -55.5122 H         1 UNK         0.0600 
    238 H238       -5.8939  -19.8829  -56.9382 H         1 UNK         0.0600 
    239 H239       -5.3603  -20.3789  -55.3402 H         1 UNK         0.0600 
    240 H240       -3.0553  -19.9134  -54.9760 H         1 UNK         0.3000 
    241 H241       -1.0868  -20.7528  -55.4303 H         1 UNK         0.0600 
    242 H242       -1.9580  -21.5911  -59.0693 H         1 UNK         0.3800 
    243 H243       -3.0388  -21.0644  -57.8058 H         1 UNK         0.3800 
    244 H244        0.7459  -19.1246  -56.1034 H         1 UNK         0.0800 
    245 H245       -0.4830  -17.9380  -56.4393 H         1 UNK         0.0800 
    246 H246        1.1390  -20.2542  -53.7647 H         1 UNK         0.0800 
    247 H247        2.0853  -18.8010  -54.0060 H         1 UNK         0.0800 
@<TRIPOS>BOND
     1    1    2 1    
     2    1  127 1    
     3    1  128 1    
     4    1  129 1    
     5    2    3 2    
     6    2    4 am   BACKBONE|DICT|INTERRES
     7    4    5 1    
     8    4  130 1    
     9    5    6 1    
    10    5   65 1    
    11    5  131 1    
    12    6    7 1    
    13    6  132 1    
    14    6  133 1    
    15    7    8 1    
    16    8    9 1    
    17    8  134 1    
    18    8  135 1    
    19    9   10 ar   
    20    9   14 ar   
    21   10   11 ar   
    22   10  136 1    
    23   11   12 ar   
    24   11  126 1    
    25   12   13 ar   
    26   12  137 1    
    27   13   14 ar   
    28   13   15 1    
    29   14  138 1    
    30   15   16 1    
    31   15  139 1    
    32   15  140 1    
    33   16   17 1    
    34   17   18 1    
    35   17  141 1    
    36   17  142 1    
    37   18   19 1    
    38   18   67 1    
    39   18  143 1    
    40   19   20 am   BACKBONE|DICT|INTERRES
    41   19  144 1    
    42   20   21 2    
    43   20   22 1    
    44   22   23 1    
    45   22   24 1    
    46   22  145 1    
    47   23  146 1    
    48   23  147 1    
    49   23  148 1    
    50   24   25 am   BACKBONE|DICT|INTERRES
    51   24  149 1    
    52   25   26 2    
    53   25   27 1    
    54   27   28 1    
    55   27   29 1    
    56   27  150 1    
    57   28  151 1    
    58   28  152 1    
    59   28  153 1    
    60   29   30 am   BACKBONE|DICT|INTERRES
    61   29  154 1    
    62   30   31 2    
    63   30   32 1    
    64   32   33 1    
    65   32   34 1    
    66   32  155 1    
    67   33  156 1    
    68   33  157 1    
    69   33  158 1    
    70   34   35 am   BACKBONE|DICT|INTERRES
    71   34  159 1    
    72   35   36 2    
    73   35   37 1    
    74   37   38 1    
    75   37   39 1    
    76   37  160 1    
    77   38  161 1    
    78   38  162 1    
    79   38  163 1    
    80   39   40 am   BACKBONE|DICT|INTERRES
    81   39  164 1    
    82   40   41 2    
    83   40   42 1    
    84   42   43 1    
    85   42   44 1    
    86   42  165 1    
    87   43  166 1    
    88   43  167 1    
    89   43  168 1    
    90   44   45 am   BACKBONE|DICT|INTERRES
    91   44  169 1    
    92   45   46 2    
    93   45   47 1    
    94   47   48 1    
    95   47   49 1    
    96   47  170 1    
    97   48  171 1    
    98   48  172 1    
    99   48  173 1    
   100   49   50 am   BACKBONE|DICT|INTERRES
   101   49  174 1    
   102   50   51 2    
   103   50   52 1    
   104   52   53 1    
   105   52   54 1    
   106   52  175 1    
   107   53  176 1    
   108   53  177 1    
   109   53  178 1    
   110   54   55 am   BACKBONE|DICT|INTERRES
   111   54  179 1    
   112   55   56 2    
   113   55   57 1    
   114   57   58 1    
   115   57   59 1    
   116   57  180 1    
   117   58  181 1    
   118   58  182 1    
   119   58  183 1    
   120   59   60 am   BACKBONE|DICT|INTERRES
   121   59  184 1    
   122   60   61 2    
   123   60   62 1    
   124   62   63 1    
   125   62   64 1    
   126   62  185 1    
   127   63  186 1    
   128   63  187 1    
   129   63  188 1    
   130   64   65 am   BACKBONE|DICT|INTERRES
   131   64  189 1    
   132   65   66 2    
   133   67   68 2    
   134   67   69 am   BACKBONE|DICT|INTERRES
   135   69   70 1    
   136   69  190 1    
   137   70   71 1    
   138   70   72 1    
   139   70  191 1    
   140   71  192 1    
   141   71  193 1    
   142   71  194 1    
   143   72   73 2    
   144   72   74 am   BACKBONE|DICT|INTERRES
   145   74   75 1    
   146   74  195 1    
   147   75   76 1    
   148   75   77 1    
   149   75  196 1    
   150   76  197 1    
   151   76  198 1    
   152   76  199 1    
   153   77   78 2    
   154   77   79 am   BACKBONE|DICT|INTERRES
   155   79   80 1    
   156   79  200 1    
   157   80   81 1    
   158   80   82 1    
   159   80  201 1    
   160   81  202 1    
   161   81  203 1    
   162   81  204 1    
   163   82   83 2    
   164   82   84 am   BACKBONE|DICT|INTERRES
   165   84   85 1    
   166   84  205 1    
   167   85   86 1    
   168   85   87 1    
   169   85  206 1    
   170   86  207 1    
   171   86  208 1    
   172   86  209 1    
   173   87   88 2    
   174   87   89 am   BACKBONE|DICT|INTERRES
   175   89   90 1    
   176   89  210 1    
   177   90   91 1    
   178   90   92 1    
   179   90  211 1    
   180   91  212 1    
   181   91  213 1    
   182   91  214 1    
   183   92   93 2    
   184   92   94 am   BACKBONE|DICT|INTERRES
   185   94   95 1    
   186   94  215 1    
   187   95   96 1    
   188   95   97 1    
   189   95  216 1    
   190   96  217 1    
   191   96  218 1    
   192   96  219 1    
   193   97   98 2    
   194   97   99 am   BACKBONE|DICT|INTERRES
   195   99  100 1    
   196   99  220 1    
   197  100  101 1    
   198  100  102 1    
   199  100  221 1    
   200  101  222 1    
   201  101  223 1    
   202  101  224 1    
   203  102  103 2    
   204  102  104 am   BACKBONE|DICT|INTERRES
   205  104  105 1    
   206  104  225 1    
   207  105  106 1    
   208  105  107 1    
   209  105  226 1    
   210  106  227 1    
   211  106  228 1    
   212  106  229 1    
   213  107  108 2    
   214  107  109 am   BACKBONE|DICT|INTERRES
   215  109  110 1    
   216  109  230 1    
   217  110  111 1    
   218  110  112 1    
   219  110  231 1    
   220  111  232 1    
   221  111  233 1    
   222  111  234 1    
   223  112  113 2    
   224  112  114 am   BACKBONE|DICT|INTERRES
   225  114  115 1    
   226  114  235 1    
   227  115  116 1    
   228  115  117 1    
   229  115  236 1    
   230  116  237 1    
   231  116  238 1    
   232  116  239 1    
   233  117  118 2    
   234  117  119 am   BACKBONE|DICT|INTERRES
   235  119  120 1    
   236  119  240 1    
   237  120  121 1    
   238  120  124 1    
   239  120  241 1    
   240  121  122 am   BACKBONE|DICT|INTERRES
   241  121  123 2    
   242  122  242 1    
   243  122  243 1    
   244  124  125 1    
   245  124  244 1    
   246  124  245 1    
   247  125  126 1    
   248  126  246 1    
   249  126  247 1    
@<TRIPOS>SUBSTRUCTURE
     1 UNK         1 GROUP             0       ****    0 ROOT    
