@<TRIPOS>MOLECULE
3R540
247   249    1
SMALL
USER_CHARGES


@<TRIPOS>ATOM
      1 CA          3.4582  -16.3745  -48.4055 C.3       0 UNK        -0.1800 
      2 C           2.5265  -15.1722  -48.4069 C.2       0 UNK         0.5000 
      3 O           2.8527  -14.1367  -47.8266 O.2       0 UNK        -0.5000 
      4 N           1.3734  -15.2823  -49.0816 N.am      1 UNK        -0.5000 
      5 CA          0.3224  -14.2540  -49.1036 C.3       1 UNK         0.1400 
      6 C6         -1.0498  -14.8246  -49.5492 C.3       23 UNK        -0.0398 
      7 S7         -2.4481  -14.1601  -48.5760 S.3       23 UNK        -0.2404 
      8 C8         -2.1687  -14.8545  -46.9093 C.3       23 UNK        -0.0205 
      9 C9         -2.1489  -16.3747  -46.9016 C.ar      23 UNK        -0.0193 
     10 C10        -3.3448  -17.0929  -46.8258 C.ar      23 UNK        -0.1150 
     11 C11        -3.3333  -18.4904  -46.8123 C.ar      23 UNK        -0.0193 
     12 C12        -2.1115  -19.1662  -46.8805 C.ar      23 UNK        -0.1150 
     13 C13        -0.9104  -18.4599  -46.9769 C.ar      23 UNK        -0.0193 
     14 C14        -0.9343  -17.0638  -46.9669 C.ar      23 UNK        -0.1150 
     15 C15         0.4004  -19.2093  -47.1495 C.3       23 UNK        -0.0205 
     16 S16         0.9181  -20.0514  -45.6228 S.3       23 UNK        -0.2404 
     17 C17         2.0695  -21.2908  -46.3044 C.3       23 UNK        -0.0398 
     18 CA          1.5110  -22.7326  -46.4221 C.3       11 UNK         0.1400 
     19 N           1.3850  -23.4257  -45.1373 N.am      11 UNK        -0.5000 
     20 C           1.3702  -24.7638  -45.0304 C.2       10 UNK         0.5000 
     21 O           1.4685  -25.5253  -45.9939 O.2       10 UNK        -0.5000 
     22 CA          1.1785  -25.3503  -43.6213 C.3       10 UNK         0.1400 
     23 CB          2.4784  -25.2542  -42.8082 C.3       10 UNK        -0.1800 
     24 N           0.0946  -24.7031  -42.8844 N.am      10 UNK        -0.5000 
     25 C          -1.2003  -24.7541  -43.2284 C.2       9 UNK         0.5000 
     26 O          -1.6248  -25.3702  -44.2050 O.2       9 UNK        -0.5000 
     27 CA         -2.1802  -23.9500  -42.3515 C.3       9 UNK         0.1400 
     28 CB         -2.7071  -24.8165  -41.1982 C.3       9 UNK        -0.1800 
     29 N          -1.5888  -22.7238  -41.8077 N.am      9 UNK        -0.5000 
     30 C          -1.1663  -21.6992  -42.5584 C.2       8 UNK         0.5000 
     31 O          -1.2554  -21.6746  -43.7887 O.2       8 UNK        -0.5000 
     32 CA         -0.4812  -20.5451  -41.8154 C.3       8 UNK         0.1400 
     33 CB          0.9694  -20.9275  -41.4602 C.3       8 UNK        -0.1800 
     34 N          -0.4931  -19.3668  -42.6733 N.am      8 UNK        -0.5000 
     35 C          -0.2382  -18.1125  -42.2941 C.2       7 UNK         0.5000 
     36 O           0.0143  -17.7816  -41.1324 O.2       7 UNK        -0.5000 
     37 CA         -0.2920  -17.0443  -43.3942 C.3       7 UNK         0.1400 
     38 CB         -1.6129  -16.2623  -43.3262 C.3       7 UNK        -0.1800 
     39 N           0.8179  -16.1157  -43.2121 N.am      7 UNK        -0.5000 
     40 C           1.8672  -15.9879  -44.0305 C.2       6 UNK         0.5000 
     41 O           1.9843  -16.5926  -45.0964 O.2       6 UNK        -0.5000 
     42 CA          2.9575  -14.9947  -43.5795 C.3       6 UNK         0.1400 
     43 CB          4.1971  -15.0085  -44.4920 C.3       6 UNK        -0.1800 
     44 N           2.4355  -13.6304  -43.5160 N.am      6 UNK        -0.5000 
     45 C           1.7270  -13.1169  -42.5018 C.2       5 UNK         0.5000 
     46 O           1.4501  -13.7459  -41.4793 O.2       5 UNK        -0.5000 
     47 CA          1.2393  -11.6639  -42.6534 C.3       5 UNK         0.1400 
     48 CB          2.2037  -10.6986  -41.9478 C.3       5 UNK        -0.1800 
     49 N           1.0881  -11.2442  -44.0473 N.am      5 UNK        -0.5000 
     50 C           0.1271  -11.6576  -44.8810 C.2       4 UNK         0.5000 
     51 O          -0.7456  -12.4659  -44.5655 O.2       4 UNK        -0.5000 
     52 CA          0.1412  -11.0817  -46.3097 C.3       4 UNK         0.1400 
     53 CB         -0.4806   -9.6738  -46.3499 C.3       4 UNK        -0.1800 
     54 N           1.4528  -11.1055  -46.9711 N.am      4 UNK        -0.5000 
     55 C           2.5804  -10.4361  -46.6874 C.2       3 UNK         0.5000 
     56 O           2.6989   -9.6646  -45.7348 O.2       3 UNK        -0.5000 
     57 CA          3.7905  -10.6862  -47.6106 C.3       3 UNK         0.1400 
     58 CB          4.8753  -11.4800  -46.8646 C.3       3 UNK        -0.1800 
     59 N           3.4172  -11.4188  -48.8244 N.am      3 UNK        -0.5000 
     60 C           3.0407  -10.8461  -49.9787 C.2       2 UNK         0.5000 
     61 O           3.0634   -9.6310  -50.1764 O.2       2 UNK        -0.5000 
     62 CA          2.5201  -11.7824  -51.0919 C.3       2 UNK         0.1400 
     63 CB          3.6703  -12.2173  -52.0124 C.3       2 UNK        -0.1800 
     64 N           1.8519  -12.9745  -50.5643 N.am      2 UNK        -0.5000 
     65 C           0.7126  -12.9609  -49.8573 C.2       1 UNK         0.5000 
     66 O           0.0203  -11.9530  -49.7220 O.2       1 UNK        -0.5000 
     67 C           0.2124  -22.8364  -47.2487 C.2       11 UNK         0.5000 
     68 O           0.2945  -22.9618  -48.4688 O.2       11 UNK        -0.5000 
     69 N          -0.9520  -22.8445  -46.5787 N.am      12 UNK        -0.5000 
     70 CA         -2.2589  -23.0788  -47.1961 C.3       12 UNK         0.1400 
     71 CB         -3.3732  -22.8783  -46.1587 C.3       12 UNK        -0.1800 
     72 C          -2.3591  -24.4746  -47.8333 C.2       12 UNK         0.5000 
     73 O          -2.8397  -24.5896  -48.9601 O.2       12 UNK        -0.5000 
     74 N          -1.8634  -25.4991  -47.1242 N.am      13 UNK        -0.5000 
     75 CA         -1.7660  -26.8747  -47.6103 C.3       13 UNK         0.1400 
     76 CB         -1.3539  -27.8059  -46.4606 C.3       13 UNK        -0.1800 
     77 C          -0.8030  -27.0117  -48.8027 C.2       13 UNK         0.5000 
     78 O          -1.1513  -27.6700  -49.7828 O.2       13 UNK        -0.5000 
     79 N           0.3637  -26.3538  -48.7248 N.am      14 UNK        -0.5000 
     80 CA          1.3601  -26.3017  -49.8004 C.3       14 UNK         0.1400 
     81 CB          2.6409  -25.6310  -49.2822 C.3       14 UNK        -0.1800 
     82 C           0.8436  -25.5886  -51.0665 C.2       14 UNK         0.5000 
     83 O           1.1289  -26.0333  -52.1785 O.2       14 UNK        -0.5000 
     84 N           0.0601  -24.5208  -50.8704 N.am      15 UNK        -0.5000 
     85 CA         -0.6356  -23.7664  -51.9141 C.3       15 UNK         0.1400 
     86 CB         -1.0271  -22.3977  -51.3336 C.3       15 UNK        -0.1800 
     87 C          -1.8865  -24.4789  -52.4699 C.2       15 UNK         0.5000 
     88 O          -2.4763  -23.9848  -53.4335 O.2       15 UNK        -0.5000 
     89 N          -2.2994  -25.5844  -51.8280 N.am      16 UNK        -0.5000 
     90 CA         -3.5251  -26.3549  -52.0666 C.3       16 UNK         0.1400 
     91 CB         -3.4323  -27.1104  -53.4078 C.3       16 UNK        -0.1800 
     92 C          -4.7955  -25.4850  -51.9524 C.2       16 UNK         0.5000 
     93 O          -5.7397  -25.6617  -52.7247 O.2       16 UNK        -0.5000 
     94 N          -4.7574  -24.5137  -51.0272 N.am      17 UNK        -0.5000 
     95 CA         -5.6796  -23.3969  -50.7931 C.3       17 UNK         0.1400 
     96 CB         -7.0762  -23.8992  -50.3822 C.3       17 UNK        -0.1800 
     97 C          -5.7755  -22.3867  -51.9556 C.2       17 UNK         0.5000 
     98 O          -5.7800  -21.1810  -51.7088 O.2       17 UNK        -0.5000 
     99 N          -5.8654  -22.8876  -53.1917 N.am      18 UNK        -0.5000 
    100 CA        -6.1192  -22.1387  -54.4181 C.3       18 UNK         0.1400 
    101 CB        -6.2978  -23.1276  -55.5799 C.3       18 UNK        -0.1800 
    102 C         -5.0473  -21.0920  -54.7609 C.2       18 UNK         0.5000 
    103 O         -5.4063  -19.9680  -55.1125 O.2       18 UNK        -0.5000 
    104 N         -3.7606  -21.4573  -54.6525 N.am      19 UNK        -0.5000 
    105 CA        -2.6482  -20.5928  -55.0683 C.3       19 UNK         0.1400 
    106 CB        -1.3707  -21.4287  -55.2397 C.3       19 UNK        -0.1800 
    107 C         -2.4068  -19.3959  -54.1274 C.2       19 UNK         0.5000 
    108 O         -1.8547  -18.3868  -54.5669 O.2       19 UNK        -0.5000 
    109 N         -2.8376  -19.5207  -52.8660 N.am      20 UNK        -0.5000 
    110 CA        -2.7834  -18.4658  -51.8515 C.3       20 UNK         0.1400 
    111 CB        -2.2721  -19.0756  -50.5371 C.3       20 UNK        -0.1800 
    112 C         -4.1448  -17.7630  -51.6643 C.2       20 UNK         0.5000 
    113 O         -4.2166  -16.7908  -50.9133 O.2       20 UNK        -0.5000 
    114 N         -5.1851  -18.2470  -52.3624 N.am      21 UNK        -0.5000 
    115 CA        -6.5748  -17.7808  -52.3480 C.3       21 UNK         0.1400 
    116 CB        -6.6854  -16.3765  -52.9776 C.3       21 UNK        -0.1800 
    117 C         -7.2264  -17.8788  -50.9518 C.2       21 UNK         0.5000 
    118 O         -7.8786  -16.9348  -50.5007 O.2       21 UNK        -0.5000 
    119 N         -7.0323  -19.0272  -50.2916 N.am      22 UNK        -0.5000 
    120 CA        -7.5286  -19.3096  -48.9323 C.3       22 UNK         0.1400 
    121 C         -9.0572  -19.5921  -48.8407 C.2       22 UNK         0.5000 
    122 N         -9.7670  -19.7948  -49.9442 N.am      22 UNK        -0.7600 
    123 O         -9.6112  -19.6239  -47.7453 O.2       22 UNK        -0.5000 
    124 C124       -6.7295  -20.4409  -48.2325 C.3       23 UNK        -0.0398 
    125 S125       -4.9270  -20.1868  -48.2903 S.3       23 UNK        -0.2404 
    126 C126       -4.6398  -19.2662  -46.7488 C.3       23 UNK        -0.0205 
    127 H127        3.0549  -17.2011  -48.9906 H         1 UNK         0.0600 
    128 H128        4.4267  -16.0995  -48.8227 H         1 UNK         0.0600 
    129 H129        3.6122  -16.7240  -47.3846 H         1 UNK         0.0600 
    130 H130        1.1694  -16.1380  -49.5777 H         1 UNK         0.3000 
    131 H131        0.2309  -13.9362  -48.0648 H         1 UNK         0.0600 
    132 H132       -1.0752  -15.9107  -49.4606 H         1 UNK         0.0800 
    133 H133       -1.2376  -14.6288  -50.6065 H         1 UNK         0.0800 
    134 H134       -2.9635  -14.5008  -46.2510 H         1 UNK         0.0800 
    135 H135       -1.2450  -14.4635  -46.4825 H         1 UNK         0.0800 
    136 H136       -4.2844  -16.5602  -46.7857 H         1 UNK         0.1150 
    137 H137       -2.0953  -20.2447  -46.8881 H         1 UNK         0.1150 
    138 H138       -0.0069  -16.5126  -47.0226 H         1 UNK         0.1150 
    139 H139        0.2772  -19.9349  -47.9547 H         1 UNK         0.0800 
    140 H140        1.1952  -18.5307  -47.4631 H         1 UNK         0.0800 
    141 H141        2.4156  -20.9527  -47.2825 H         1 UNK         0.0800 
    142 H142        2.9608  -21.2976  -45.6758 H         1 UNK         0.0800 
    143 H143        2.2655  -23.2803  -46.9909 H         1 UNK         0.0600 
    144 H144        1.2477  -22.8529  -44.3180 H         1 UNK         0.3000 
    145 H145        0.9247  -26.4066  -43.7339 H         1 UNK         0.0600 
    146 H146        2.3759  -25.7490  -41.8423 H         1 UNK         0.0600 
    147 H147        3.3034  -25.7376  -43.3334 H         1 UNK         0.0600 
    148 H148        2.7670  -24.2184  -42.6255 H         1 UNK         0.0600 
    149 H149        0.3517  -24.1738  -42.0651 H         1 UNK         0.3000 
    150 H150       -3.0278  -23.6649  -42.9777 H         1 UNK         0.0600 
    151 H151       -3.1726  -25.7277  -41.5765 H         1 UNK         0.0600 
    152 H152       -3.4615  -24.2849  -40.6180 H         1 UNK         0.0600 
    153 H153       -1.9074  -25.1141  -40.5187 H         1 UNK         0.0600 
    154 H154       -1.4822  -22.6791  -40.8044 H         1 UNK         0.3000 
    155 H155       -1.0454  -20.3310  -40.9055 H         1 UNK         0.0600 
    156 H156        1.4645  -20.1368  -40.8967 H         1 UNK         0.0600 
    157 H157        1.5627  -21.1187  -42.3554 H         1 UNK         0.0600 
    158 H158        1.0030  -21.8264  -40.8437 H         1 UNK         0.0600 
    159 H159       -0.6972  -19.5766  -43.6447 H         1 UNK         0.3000 
    160 H160       -0.2256  -17.5351  -44.3644 H         1 UNK         0.0600 
    161 H161       -1.7682  -15.8142  -42.3440 H         1 UNK         0.0600 
    162 H162       -2.4619  -16.9151  -43.5327 H         1 UNK         0.0600 
    163 H163       -1.6319  -15.4592  -44.0625 H         1 UNK         0.0600 
    164 H164        0.8186  -15.5896  -42.3453 H         1 UNK         0.3000 
    165 H165        3.2827  -15.3007  -42.5828 H         1 UNK         0.0600 
    166 H166        3.9539  -14.6979  -45.5073 H         1 UNK         0.0600 
    167 H167        4.9721  -14.3411  -44.1151 H         1 UNK         0.0600 
    168 H168        4.6290  -16.0083  -44.5498 H         1 UNK         0.0600 
    169 H169        2.5766  -13.0571  -44.3340 H         1 UNK         0.3000 
    170 H170        0.2644  -11.5916  -42.1667 H         1 UNK         0.0600 
    171 H171        2.3264  -10.9655  -40.8973 H         1 UNK         0.0600 
    172 H172        3.1923  -10.7103  -42.4086 H         1 UNK         0.0600 
    173 H173        1.8306   -9.6747  -41.9809 H         1 UNK         0.0600 
    174 H174        1.7633  -10.5752  -44.4096 H         1 UNK         0.3000 
    175 H175       -0.4989  -11.7313  -46.9091 H         1 UNK         0.0600 
    176 H176        0.0953   -8.9542  -45.7674 H         1 UNK         0.0600 
    177 H177       -0.5450   -9.3031  -47.3730 H         1 UNK         0.0600 
    178 H178       -1.4929   -9.6849  -45.9441 H         1 UNK         0.0600 
    179 H179        1.4986  -11.7096  -47.7780 H         1 UNK         0.3000 
    180 H180        4.2072   -9.7131  -47.8783 H         1 UNK         0.0600 
    181 H181        4.5101  -12.4521  -46.5329 H         1 UNK         0.0600 
    182 H182        5.2169  -10.9403  -45.9805 H         1 UNK         0.0600 
    183 H183        5.7462  -11.6480  -47.4982 H         1 UNK         0.0600 
    184 H184        3.3548  -12.4276  -48.7252 H         1 UNK         0.3000 
    185 H185        1.7963  -11.2219  -51.6872 H         1 UNK         0.0600 
    186 H186        4.1750  -11.3509  -52.4419 H         1 UNK         0.0600 
    187 H187        4.4191  -12.7999  -51.4741 H         1 UNK         0.0600 
    188 H188        3.3047  -12.8231  -52.8417 H         1 UNK         0.0600 
    189 H189        2.3621  -13.8436  -50.6238 H         1 UNK         0.3000 
    190 H190       -0.9440  -22.6729  -45.5788 H         1 UNK         0.3000 
    191 H191       -2.3907  -22.3388  -47.9882 H         1 UNK         0.0600 
    192 H192       -4.3547  -22.9179  -46.6327 H         1 UNK         0.0600 
    193 H193       -3.2881  -21.9119  -45.6640 H         1 UNK         0.0600 
    194 H194       -3.3517  -23.6470  -45.3874 H         1 UNK         0.0600 
    195 H195       -1.5404  -25.3296  -46.1764 H         1 UNK         0.3000 
    196 H196       -2.7586  -27.1775  -47.9503 H         1 UNK         0.0600 
    197 H197       -1.2824  -28.8397  -46.8008 H         1 UNK         0.0600 
    198 H198       -2.0852  -27.7795  -45.6526 H         1 UNK         0.0600 
    199 H199       -0.3859  -27.5289  -46.0425 H         1 UNK         0.0600 
    200 H200        0.5928  -25.8670  -47.8648 H         1 UNK         0.3000 
    201 H201        1.6038  -27.3300  -50.0753 H         1 UNK         0.0600 
    202 H202        3.0315  -26.1477  -48.4053 H         1 UNK         0.0600 
    203 H203        2.4677  -24.5903  -49.0093 H         1 UNK         0.0600 
    204 H204        3.4219  -25.6438  -50.0433 H         1 UNK         0.0600 
    205 H205       -0.0554  -24.1737  -49.9218 H         1 UNK         0.3000 
    206 H206        0.0497  -23.6075  -52.7488 H         1 UNK         0.0600 
    207 H207       -0.1476  -21.8336  -51.0234 H         1 UNK         0.0600 
    208 H208       -1.5578  -21.7925  -52.0649 H         1 UNK         0.0600 
    209 H209       -1.6810  -22.5009  -50.4671 H         1 UNK         0.0600 
    210 H210       -1.7513  -25.8919  -51.0349 H         1 UNK         0.3000 
    211 H211       -3.5860  -27.0948  -51.2675 H         1 UNK         0.0600 
    212 H212       -3.4212  -26.4267  -54.2574 H         1 UNK         0.0600 
    213 H213       -4.2814  -27.7821  -53.5386 H         1 UNK         0.0600 
    214 H214       -2.5286  -27.7180  -53.4544 H         1 UNK         0.0600 
    215 H215       -3.9364  -24.5013  -50.4234 H         1 UNK         0.3000 
    216 H216       -5.2626  -22.8515  -49.9453 H         1 UNK         0.0600 
    217 H217       -7.5434  -24.4967  -51.1651 H         1 UNK         0.0600 
    218 H218       -7.7482  -23.0663  -50.1733 H         1 UNK         0.0600 
    219 H219       -7.0233  -24.5099  -49.4810 H         1 UNK         0.0600 
    220 H220       -5.8473  -23.9010  -53.2731 H         1 UNK         0.3000 
    221 H221       -7.0623  -21.6057  -54.2807 H         1 UNK         0.0600 
    222 H222       -5.4038  -23.7340  -55.7318 H         1 UNK         0.0600 
    223 H223       -7.1327  -23.8041  -55.3962 H         1 UNK         0.0600 
    224 H224       -6.5040  -22.6033  -56.5140 H         1 UNK         0.0600 
    225 H225       -3.5252  -22.3898  -54.3263 H         1 UNK         0.3000 
    226 H226       -2.8980  -20.1802  -56.0483 H         1 UNK         0.0600 
    227 H227       -1.5313  -22.2596  -55.9269 H         1 UNK         0.0600 
    228 H228       -0.5617  -20.8216  -55.6476 H         1 UNK         0.0600 
    229 H229       -1.0212  -21.8397  -54.2949 H         1 UNK         0.0600 
    230 H230       -3.2994  -20.3789  -52.5998 H         1 UNK         0.3000 
    231 H231       -2.0753  -17.6899  -52.1491 H         1 UNK         0.0600 
    232 H232       -2.8528  -19.9507  -50.2487 H         1 UNK         0.0600 
    233 H233       -1.2311  -19.3852  -50.6274 H         1 UNK         0.0600 
    234 H234       -2.3250  -18.3563  -49.7190 H         1 UNK         0.0600 
    235 H235       -5.0153  -19.0497  -52.9524 H         1 UNK         0.3000 
    236 H236       -7.1284  -18.4694  -52.9879 H         1 UNK         0.0600 
    237 H237       -6.2414  -16.3560  -53.9729 H         1 UNK         0.0600 
    238 H238       -7.7286  -16.0766  -53.0822 H         1 UNK         0.0600 
    239 H239       -6.1868  -15.6192  -52.3718 H         1 UNK         0.0600 
    240 H240       -6.4824  -19.7604  -50.7338 H         1 UNK         0.3000 
    241 H241       -7.3664  -18.4032  -48.3460 H         1 UNK         0.0600 
    242 H242       -9.3248  -19.7677  -50.8485 H         1 UNK         0.3800 
    243 H243      -10.7568  -19.9718  -49.8735 H         1 UNK         0.3800 
    244 H244       -7.0370  -20.5462  -47.1905 H         1 UNK         0.0800 
    245 H245       -6.9422  -21.3986  -48.7061 H         1 UNK         0.0800 
    246 H246       -4.6207  -19.9560  -45.9049 H         1 UNK         0.0800 
    247 H247       -5.4737  -18.5850  -46.5738 H         1 UNK         0.0800 
@<TRIPOS>BOND
     1    1    2 1    
     2    1  127 1    
     3    1  128 1    
     4    1  129 1    
     5    2    3 2    
     6    2    4 am   BACKBONE|DICT|INTERRES
     7    4    5 1    
     8    4  130 1    
     9    5    6 1    
    10    5   65 1    
    11    5  131 1    
    12    6    7 1    
    13    6  132 1    
    14    6  133 1    
    15    7    8 1    
    16    8    9 1    
    17    8  134 1    
    18    8  135 1    
    19    9   10 ar   
    20    9   14 ar   
    21   10   11 ar   
    22   10  136 1    
    23   11   12 ar   
    24   11  126 1    
    25   12   13 ar   
    26   12  137 1    
    27   13   14 ar   
    28   13   15 1    
    29   14  138 1    
    30   15   16 1    
    31   15  139 1    
    32   15  140 1    
    33   16   17 1    
    34   17   18 1    
    35   17  141 1    
    36   17  142 1    
    37   18   19 1    
    38   18   67 1    
    39   18  143 1    
    40   19   20 am   BACKBONE|DICT|INTERRES
    41   19  144 1    
    42   20   21 2    
    43   20   22 1    
    44   22   23 1    
    45   22   24 1    
    46   22  145 1    
    47   23  146 1    
    48   23  147 1    
    49   23  148 1    
    50   24   25 am   BACKBONE|DICT|INTERRES
    51   24  149 1    
    52   25   26 2    
    53   25   27 1    
    54   27   28 1    
    55   27   29 1    
    56   27  150 1    
    57   28  151 1    
    58   28  152 1    
    59   28  153 1    
    60   29   30 am   BACKBONE|DICT|INTERRES
    61   29  154 1    
    62   30   31 2    
    63   30   32 1    
    64   32   33 1    
    65   32   34 1    
    66   32  155 1    
    67   33  156 1    
    68   33  157 1    
    69   33  158 1    
    70   34   35 am   BACKBONE|DICT|INTERRES
    71   34  159 1    
    72   35   36 2    
    73   35   37 1    
    74   37   38 1    
    75   37   39 1    
    76   37  160 1    
    77   38  161 1    
    78   38  162 1    
    79   38  163 1    
    80   39   40 am   BACKBONE|DICT|INTERRES
    81   39  164 1    
    82   40   41 2    
    83   40   42 1    
    84   42   43 1    
    85   42   44 1    
    86   42  165 1    
    87   43  166 1    
    88   43  167 1    
    89   43  168 1    
    90   44   45 am   BACKBONE|DICT|INTERRES
    91   44  169 1    
    92   45   46 2    
    93   45   47 1    
    94   47   48 1    
    95   47   49 1    
    96   47  170 1    
    97   48  171 1    
    98   48  172 1    
    99   48  173 1    
   100   49   50 am   BACKBONE|DICT|INTERRES
   101   49  174 1    
   102   50   51 2    
   103   50   52 1    
   104   52   53 1    
   105   52   54 1    
   106   52  175 1    
   107   53  176 1    
   108   53  177 1    
   109   53  178 1    
   110   54   55 am   BACKBONE|DICT|INTERRES
   111   54  179 1    
   112   55   56 2    
   113   55   57 1    
   114   57   58 1    
   115   57   59 1    
   116   57  180 1    
   117   58  181 1    
   118   58  182 1    
   119   58  183 1    
   120   59   60 am   BACKBONE|DICT|INTERRES
   121   59  184 1    
   122   60   61 2    
   123   60   62 1    
   124   62   63 1    
   125   62   64 1    
   126   62  185 1    
   127   63  186 1    
   128   63  187 1    
   129   63  188 1    
   130   64   65 am   BACKBONE|DICT|INTERRES
   131   64  189 1    
   132   65   66 2    
   133   67   68 2    
   134   67   69 am   BACKBONE|DICT|INTERRES
   135   69   70 1    
   136   69  190 1    
   137   70   71 1    
   138   70   72 1    
   139   70  191 1    
   140   71  192 1    
   141   71  193 1    
   142   71  194 1    
   143   72   73 2    
   144   72   74 am   BACKBONE|DICT|INTERRES
   145   74   75 1    
   146   74  195 1    
   147   75   76 1    
   148   75   77 1    
   149   75  196 1    
   150   76  197 1    
   151   76  198 1    
   152   76  199 1    
   153   77   78 2    
   154   77   79 am   BACKBONE|DICT|INTERRES
   155   79   80 1    
   156   79  200 1    
   157   80   81 1    
   158   80   82 1    
   159   80  201 1    
   160   81  202 1    
   161   81  203 1    
   162   81  204 1    
   163   82   83 2    
   164   82   84 am   BACKBONE|DICT|INTERRES
   165   84   85 1    
   166   84  205 1    
   167   85   86 1    
   168   85   87 1    
   169   85  206 1    
   170   86  207 1    
   171   86  208 1    
   172   86  209 1    
   173   87   88 2    
   174   87   89 am   BACKBONE|DICT|INTERRES
   175   89   90 1    
   176   89  210 1    
   177   90   91 1    
   178   90   92 1    
   179   90  211 1    
   180   91  212 1    
   181   91  213 1    
   182   91  214 1    
   183   92   93 2    
   184   92   94 am   BACKBONE|DICT|INTERRES
   185   94   95 1    
   186   94  215 1    
   187   95   96 1    
   188   95   97 1    
   189   95  216 1    
   190   96  217 1    
   191   96  218 1    
   192   96  219 1    
   193   97   98 2    
   194   97   99 am   BACKBONE|DICT|INTERRES
   195   99  100 1    
   196   99  220 1    
   197  100  101 1    
   198  100  102 1    
   199  100  221 1    
   200  101  222 1    
   201  101  223 1    
   202  101  224 1    
   203  102  103 2    
   204  102  104 am   BACKBONE|DICT|INTERRES
   205  104  105 1    
   206  104  225 1    
   207  105  106 1    
   208  105  107 1    
   209  105  226 1    
   210  106  227 1    
   211  106  228 1    
   212  106  229 1    
   213  107  108 2    
   214  107  109 am   BACKBONE|DICT|INTERRES
   215  109  110 1    
   216  109  230 1    
   217  110  111 1    
   218  110  112 1    
   219  110  231 1    
   220  111  232 1    
   221  111  233 1    
   222  111  234 1    
   223  112  113 2    
   224  112  114 am   BACKBONE|DICT|INTERRES
   225  114  115 1    
   226  114  235 1    
   227  115  116 1    
   228  115  117 1    
   229  115  236 1    
   230  116  237 1    
   231  116  238 1    
   232  116  239 1    
   233  117  118 2    
   234  117  119 am   BACKBONE|DICT|INTERRES
   235  119  120 1    
   236  119  240 1    
   237  120  121 1    
   238  120  124 1    
   239  120  241 1    
   240  121  122 am   BACKBONE|DICT|INTERRES
   241  121  123 2    
   242  122  242 1    
   243  122  243 1    
   244  124  125 1    
   245  124  244 1    
   246  124  245 1    
   247  125  126 1    
   248  126  246 1    
   249  126  247 1    
@<TRIPOS>SUBSTRUCTURE
     1 UNK         1 GROUP             0       ****    0 ROOT    
