@<TRIPOS>MOLECULE
3R540
247   249    1
SMALL
USER_CHARGES


@<TRIPOS>ATOM
      1 CA         -1.9250  -10.1565  -46.7283 C.3       0 UNK        -0.1800 
      2 C          -1.4887  -11.5926  -46.4811 C.2       0 UNK         0.5000 
      3 O          -1.4668  -12.0352  -45.3335 O.2       0 UNK        -0.5000 
      4 N          -1.1632  -12.3304  -47.5515 N.am      1 UNK        -0.5000 
      5 CA         -0.6796  -13.7200  -47.5313 C.3       1 UNK         0.1400 
      6 C6         -0.3164  -14.1886  -48.9630 C.3       23 UNK        -0.0398 
      7 S7          0.6020  -15.7599  -48.9852 S.3       23 UNK        -0.2404 
      8 C8          0.9832  -15.9506  -50.7489 C.3       23 UNK        -0.0205 
      9 C9          1.4522  -17.3667  -51.0441 C.ar      23 UNK        -0.0193 
     10 C10         0.6740  -18.2243  -51.8276 C.ar      23 UNK        -0.1150 
     11 C11         1.1150  -19.5207  -52.1089 C.ar      23 UNK        -0.0193 
     12 C12         2.3343  -19.9635  -51.5873 C.ar      23 UNK        -0.1150 
     13 C13         3.1137  -19.1205  -50.7907 C.ar      23 UNK        -0.0193 
     14 C14         2.6702  -17.8215  -50.5298 C.ar      23 UNK        -0.1150 
     15 C15         4.4468  -19.5929  -50.2315 C.3       23 UNK        -0.0205 
     16 S16         4.2674  -20.3647  -48.5922 S.3       23 UNK        -0.2404 
     17 C17         3.9125  -22.1076  -49.0274 C.3       23 UNK        -0.0398 
     18 CA          2.7347  -22.7337  -48.2395 C.3       11 UNK         0.1400 
     19 N           2.9354  -22.6112  -46.7909 N.am      11 UNK        -0.5000 
     20 C           2.2096  -23.2010  -45.8339 C.2       10 UNK         0.5000 
     21 O           1.1827  -23.8397  -46.0623 O.2       10 UNK        -0.5000 
     22 CA          2.7101  -23.0702  -44.3834 C.3       10 UNK         0.1400 
     23 CB          4.0722  -22.3604  -44.2382 C.3       10 UNK        -0.1800 
     24 N           1.7146  -22.3546  -43.5952 N.am      10 UNK        -0.5000 
     25 C           1.3266  -22.6724  -42.3530 C.2       9 UNK         0.5000 
     26 O           1.7618  -23.6473  -41.7378 O.2       9 UNK        -0.5000 
     27 CA          0.2897  -21.7530  -41.6723 C.3       9 UNK         0.1400 
     28 CB          0.6670  -21.4592  -40.2097 C.3       9 UNK        -0.1800 
     29 N           0.1400  -20.4853  -42.3912 N.am      9 UNK        -0.5000 
     30 C          -0.9330  -20.1369  -43.1131 C.2       8 UNK         0.5000 
     31 O          -1.9719  -20.7946  -43.1510 O.2       8 UNK        -0.5000 
     32 CA         -0.8447  -18.8477  -43.9506 C.3       8 UNK         0.1400 
     33 CB         -1.6328  -17.7163  -43.2731 C.3       8 UNK        -0.1800 
     34 N           0.5188  -18.3902  -44.2384 N.am      8 UNK        -0.5000 
     35 C           1.4115  -19.0415  -44.9985 C.2       7 UNK         0.5000 
     36 O           1.2200  -20.1723  -45.4449 O.2       7 UNK        -0.5000 
     37 CA          2.7375  -18.3315  -45.3085 C.3       7 UNK         0.1400 
     38 CB          2.5493  -17.3062  -46.4338 C.3       7 UNK        -0.1800 
     39 N           3.2553  -17.6599  -44.1204 N.am      7 UNK        -0.5000 
     40 C           4.3683  -18.0169  -43.4659 C.2       6 UNK         0.5000 
     41 O           5.1468  -18.8871  -43.8566 O.2       6 UNK        -0.5000 
     42 CA          4.6638  -17.2954  -42.1338 C.3       6 UNK         0.1400 
     43 CB          5.6440  -16.1341  -42.3598 C.3       6 UNK        -0.1800 
     44 N           3.4731  -16.7828  -41.4515 N.am      6 UNK        -0.5000 
     45 C           2.4334  -17.5227  -41.0418 C.2       5 UNK         0.5000 
     46 O           2.3711  -18.7454  -41.1645 O.2       5 UNK        -0.5000 
     47 CA          1.2326  -16.7645  -40.4468 C.3       5 UNK         0.1400 
     48 CB          1.3670  -16.6702  -38.9200 C.3       5 UNK        -0.1800 
     49 N           1.0034  -15.4194  -40.9921 N.am      5 UNK        -0.5000 
     50 C           0.8876  -15.0875  -42.2863 C.2       4 UNK         0.5000 
     51 O           1.0815  -15.8701  -43.2180 O.2       4 UNK        -0.5000 
     52 CA          0.4845  -13.6342  -42.5902 C.3       4 UNK         0.1400 
     53 CB          1.3464  -13.0457  -43.7195 C.3       4 UNK        -0.1800 
     54 N          -0.9246  -13.5314  -42.9676 N.am      4 UNK        -0.5000 
     55 C          -1.9710  -13.7950  -42.1720 C.2       3 UNK         0.5000 
     56 O          -1.8632  -14.1567  -40.9998 O.2       3 UNK        -0.5000 
     57 CA         -3.3765  -13.6036  -42.7673 C.3       3 UNK         0.1400 
     58 CB         -3.8360  -12.1485  -42.5835 C.3       3 UNK        -0.1800 
     59 N          -3.4263  -13.9370  -44.1914 N.am      3 UNK        -0.5000 
     60 C          -4.0217  -15.0231  -44.7048 C.2       2 UNK         0.5000 
     61 O          -4.5881  -15.8778  -44.0230 O.2       2 UNK        -0.5000 
     62 CA         -4.0117  -15.1851  -46.2403 C.3       2 UNK         0.1400 
     63 CB         -5.3663  -14.7630  -46.8288 C.3       2 UNK        -0.1800 
     64 N          -2.9577  -14.4224  -46.9091 N.am      2 UNK        -0.5000 
     65 C          -1.6499  -14.7021  -46.8285 C.2       1 UNK         0.5000 
     66 O          -1.2022  -15.6612  -46.2021 O.2       1 UNK        -0.5000 
     67 C           1.3687  -22.2392  -48.7663 C.2       11 UNK         0.5000 
     68 O           0.9123  -22.7407  -49.7947 O.2       11 UNK        -0.5000 
     69 N           0.7360  -21.2898  -48.0668 N.am      12 UNK        -0.5000 
     70 CA         -0.5508  -20.7088  -48.4467 C.3       12 UNK         0.1400 
     71 CB         -0.5014  -19.1990  -48.1778 C.3       12 UNK        -0.1800 
     72 C          -1.7368  -21.3526  -47.7052 C.2       12 UNK         0.5000 
     73 O          -2.8817  -21.0262  -48.0234 O.2       12 UNK        -0.5000 
     74 N          -1.4689  -22.2455  -46.7400 N.am      13 UNK        -0.5000 
     75 CA         -2.4622  -22.8323  -45.8319 C.3       13 UNK         0.1400 
     76 CB         -1.7361  -23.6489  -44.7527 C.3       13 UNK        -0.1800 
     77 C          -3.5277  -23.7144  -46.5083 C.2       13 UNK         0.5000 
     78 O          -4.5833  -23.9391  -45.9160 O.2       13 UNK        -0.5000 
     79 N          -3.2349  -24.2071  -47.7193 N.am      14 UNK        -0.5000 
     80 CA         -4.0771  -25.1286  -48.4830 C.3       14 UNK         0.1400 
     81 CB         -3.3020  -25.5995  -49.7224 C.3       14 UNK        -0.1800 
     82 C          -5.4602  -24.5683  -48.8733 C.2       14 UNK         0.5000 
     83 O          -6.4051  -25.3505  -48.9867 O.2       14 UNK        -0.5000 
     84 N          -5.5673  -23.2446  -49.0580 N.am      15 UNK        -0.5000 
     85 CA         -6.8246  -22.5661  -49.3952 C.3       15 UNK         0.1400 
     86 CB         -7.1348  -22.7301  -50.8956 C.3       15 UNK        -0.1800 
     87 C          -6.8402  -21.0837  -48.9748 C.2       15 UNK         0.5000 
     88 O          -7.6796  -20.3340  -49.4746 O.2       15 UNK        -0.5000 
     89 N          -5.9281  -20.6841  -48.0743 N.am      16 UNK        -0.5000 
     90 CA         -5.6850  -19.3082  -47.6229 C.3       16 UNK         0.1400 
     91 CB         -6.8972  -18.7406  -46.8542 C.3       16 UNK        -0.1800 
     92 C          -5.2075  -18.4048  -48.7796 C.2       16 UNK         0.5000 
     93 O          -5.8493  -17.4038  -49.1027 O.2       16 UNK        -0.5000 
     94 N          -4.0670  -18.7995  -49.3601 N.am      17 UNK        -0.5000 
     95 CA         -3.3334  -18.1482  -50.4497 C.3       17 UNK         0.1400 
     96 CB         -2.9350  -16.7067  -50.0569 C.3       17 UNK        -0.1800 
     97 C          -4.0375  -18.2250  -51.8203 C.2       17 UNK         0.5000 
     98 O          -5.0141  -18.9594  -51.9881 O.2       17 UNK        -0.5000 
     99 N          -3.4701  -17.4916  -52.7894 N.am      18 UNK        -0.5000 
    100 CA        -3.8463  -17.4155  -54.2037 C.3       18 UNK         0.1400 
    101 CB        -5.2854  -16.8728  -54.3543 C.3       18 UNK        -0.1800 
    102 C         -3.6283  -18.7377  -54.9714 C.2       18 UNK         0.5000 
    103 O         -3.0699  -19.7018  -54.4383 O.2       18 UNK        -0.5000 
    104 N         -4.0835  -18.7553  -56.2315 N.am      19 UNK        -0.5000 
    105 CA        -3.9946  -19.8830  -57.1648 C.3       19 UNK         0.1400 
    106 CB        -4.4758  -19.4160  -58.5475 C.3       19 UNK        -0.1800 
    107 C         -4.7678  -21.1415  -56.7203 C.2       19 UNK         0.5000 
    108 O         -4.5170  -22.2212  -57.2537 O.2       19 UNK        -0.5000 
    109 N         -5.6867  -20.9867  -55.7578 N.am      20 UNK        -0.5000 
    110 CA        -6.3889  -22.0840  -55.0988 C.3       20 UNK         0.1400 
    111 CB        -7.5956  -21.5190  -54.3336 C.3       20 UNK        -0.1800 
    112 C         -5.4718  -22.8824  -54.1525 C.2       20 UNK         0.5000 
    113 O         -5.6241  -24.1007  -54.0581 O.2       20 UNK        -0.5000 
    114 N         -4.5520  -22.1895  -53.4638 N.am      21 UNK        -0.5000 
    115 CA        -3.6096  -22.7986  -52.5266 C.3       21 UNK         0.1400 
    116 CB        -3.2757  -21.8061  -51.4024 C.3       21 UNK        -0.1800 
    117 C         -2.3251  -23.2538  -53.2341 C.2       21 UNK         0.5000 
    118 O         -1.8062  -24.3234  -52.9140 O.2       21 UNK        -0.5000 
    119 N         -1.8305  -22.4319  -54.1687 N.am      22 UNK        -0.5000 
    120 CA        -0.6343  -22.7159  -54.9739 C.3       22 UNK         0.1400 
    121 C         -0.8409  -23.8977  -55.9661 C.2       22 UNK         0.5000 
    122 N          0.2176  -24.6264  -56.2954 N.am      22 UNK        -0.7600 
    123 O         -1.9337  -24.1399  -56.4714 O.2       22 UNK        -0.5000 
    124 C124       -0.1391  -21.4539  -55.7283 C.3       23 UNK        -0.0398 
    125 S125        0.5941  -20.0844  -54.7517 S.3       23 UNK        -0.2404 
    126 C126        0.2859  -20.4389  -52.9905 C.3       23 UNK        -0.0205 
    127 H127       -2.9355  -10.0023  -46.3498 H         1 UNK         0.0600 
    128 H128       -1.9158   -9.9058  -47.7892 H         1 UNK         0.0600 
    129 H129       -1.2572   -9.4690  -46.2094 H         1 UNK         0.0600 
    130 H130       -1.2158  -11.9022  -48.4649 H         1 UNK         0.3000 
    131 H131        0.2386  -13.7142  -46.9403 H         1 UNK         0.0600 
    132 H132        0.3096  -13.4392  -49.4496 H         1 UNK         0.0800 
    133 H133       -1.2123  -14.2854  -49.5779 H         1 UNK         0.0800 
    134 H134        1.7615  -15.2403  -51.0311 H         1 UNK         0.0800 
    135 H135        0.1039  -15.7039  -51.3448 H         1 UNK         0.0800 
    136 H136       -0.2661  -17.8819  -52.2350 H         1 UNK         0.1150 
    137 H137        2.6774  -20.9639  -51.8080 H         1 UNK         0.1150 
    138 H138        3.2691  -17.1626  -49.9167 H         1 UNK         0.1150 
    139 H139        4.9314  -20.2829  -50.9239 H         1 UNK         0.0800 
    140 H140        5.1234  -18.7421  -50.1384 H         1 UNK         0.0800 
    141 H141        4.8191  -22.6799  -48.8266 H         1 UNK         0.0800 
    142 H142        3.7476  -22.2059  -50.1010 H         1 UNK         0.0800 
    143 H143        2.7515  -23.8052  -48.4503 H         1 UNK         0.0600 
    144 H144        3.7362  -22.0630  -46.5127 H         1 UNK         0.3000 
    145 H145        2.8174  -24.0912  -44.0120 H         1 UNK         0.0600 
    146 H146        4.0299  -21.3264  -44.5814 H         1 UNK         0.0600 
    147 H147        4.3922  -22.3442  -43.1961 H         1 UNK         0.0600 
    148 H148        4.8517  -22.8742  -44.8022 H         1 UNK         0.0600 
    149 H149        1.2871  -21.5617  -44.0637 H         1 UNK         0.3000 
    150 H150       -0.6541  -22.3013  -41.6661 H         1 UNK         0.0600 
    151 H151        0.6420  -22.3695  -39.6097 H         1 UNK         0.0600 
    152 H152       -0.0278  -20.7527  -39.7553 H         1 UNK         0.0600 
    153 H153        1.6714  -21.0438  -40.1274 H         1 UNK         0.0600 
    154 H154        0.9448  -19.8689  -42.3727 H         1 UNK         0.3000 
    155 H155       -1.3240  -19.0583  -44.9084 H         1 UNK         0.0600 
    156 H156       -1.2436  -17.4862  -42.2830 H         1 UNK         0.0600 
    157 H157       -2.6829  -17.9870  -43.1560 H         1 UNK         0.0600 
    158 H158       -1.6004  -16.8007  -43.8621 H         1 UNK         0.0600 
    159 H159        0.7384  -17.4472  -43.9222 H         1 UNK         0.3000 
    160 H160        3.4390  -19.0892  -45.6632 H         1 UNK         0.0600 
    161 H161        1.8227  -16.5376  -46.1652 H         1 UNK         0.0600 
    162 H162        2.1956  -17.7936  -47.3430 H         1 UNK         0.0600 
    163 H163        3.4886  -16.8106  -46.6781 H         1 UNK         0.0600 
    164 H164        2.6613  -16.9434  -43.7154 H         1 UNK         0.3000 
    165 H165        5.1368  -18.0211  -41.4692 H         1 UNK         0.0600 
    166 H166        5.9336  -15.6716  -41.4161 H         1 UNK         0.0600 
    167 H167        6.5578  -16.4823  -42.8432 H         1 UNK         0.0600 
    168 H168        5.2103  -15.3609  -42.9954 H         1 UNK         0.0600 
    169 H169        3.4229  -15.7835  -41.3206 H         1 UNK         0.3000 
    170 H170        0.3443  -17.3579  -40.6647 H         1 UNK         0.0600 
    171 H171        1.5142  -17.6568  -38.4781 H         1 UNK         0.0600 
    172 H172        2.2151  -16.0494  -38.6287 H         1 UNK         0.0600 
    173 H173        0.4690  -16.2463  -38.4700 H         1 UNK         0.0600 
    174 H174        0.7959  -14.7060  -40.3079 H         1 UNK         0.3000 
    175 H175        0.6428  -13.0290  -41.6954 H         1 UNK         0.0600 
    176 H176        1.1950  -13.5772  -44.6599 H         1 UNK         0.0600 
    177 H177        1.1094  -11.9952  -43.8896 H         1 UNK         0.0600 
    178 H178        2.4076  -13.1057  -43.4749 H         1 UNK         0.0600 
    179 H179       -1.1062  -13.1807  -43.9034 H         1 UNK         0.3000 
    180 H180       -4.0587  -14.2419  -42.2021 H         1 UNK         0.0600 
    181 H181       -3.1940  -11.4509  -43.1233 H         1 UNK         0.0600 
    182 H182       -3.8202  -11.8631  -41.5308 H         1 UNK         0.0600 
    183 H183       -4.8560  -12.0104  -42.9423 H         1 UNK         0.0600 
    184 H184       -2.9410  -13.3022  -44.8154 H         1 UNK         0.3000 
    185 H185       -3.8579  -16.2442  -46.4592 H         1 UNK         0.0600 
    186 H186       -6.1821  -15.3353  -46.3857 H         1 UNK         0.0600 
    187 H187       -5.5715  -13.7069  -46.6494 H         1 UNK         0.0600 
    188 H188       -5.3994  -14.9342  -47.9049 H         1 UNK         0.0600 
    189 H189       -3.2457  -13.6063  -47.4285 H         1 UNK         0.3000 
    190 H190        1.1470  -20.9459  -47.2031 H         1 UNK         0.3000 
    191 H191       -0.7238  -20.8452  -49.5162 H         1 UNK         0.0600 
    192 H192       -0.3960  -18.9707  -47.1210 H         1 UNK         0.0600 
    193 H193       -1.4105  -18.7042  -48.5051 H         1 UNK         0.0600 
    194 H194        0.3304  -18.7369  -48.7074 H         1 UNK         0.0600 
    195 H195       -0.5037  -22.5050  -46.5747 H         1 UNK         0.3000 
    196 H196       -2.9868  -22.0073  -45.3464 H         1 UNK         0.0600 
    197 H197       -2.4303  -23.9803  -43.9796 H         1 UNK         0.0600 
    198 H198       -0.9649  -23.0585  -44.2627 H         1 UNK         0.0600 
    199 H199       -1.2611  -24.5370  -45.1710 H         1 UNK         0.0600 
    200 H200       -2.3373  -23.9739  -48.1173 H         1 UNK         0.3000 
    201 H201       -4.2592  -26.0013  -47.8523 H         1 UNK         0.0600 
    202 H202       -2.4295  -26.1880  -49.4380 H         1 UNK         0.0600 
    203 H203       -2.9519  -24.7599  -50.3209 H         1 UNK         0.0600 
    204 H204       -3.9211  -26.2287  -50.3635 H         1 UNK         0.0600 
    205 H205       -4.7430  -22.6690  -48.9585 H         1 UNK         0.3000 
    206 H206       -7.6296  -23.0393  -48.8290 H         1 UNK         0.0600 
    207 H207       -7.0555  -23.7665  -51.2232 H         1 UNK         0.0600 
    208 H208       -8.1476  -22.3972  -51.1246 H         1 UNK         0.0600 
    209 H209       -6.4547  -22.1312  -51.4978 H         1 UNK         0.0600 
    210 H210       -5.2862  -21.3694  -47.7038 H         1 UNK         0.3000 
    211 H211       -4.8572  -19.3621  -46.9138 H         1 UNK         0.0600 
    212 H212       -7.7633  -18.5941  -47.4997 H         1 UNK         0.0600 
    213 H213       -6.6546  -17.7735  -46.4131 H         1 UNK         0.0600 
    214 H214       -7.1928  -19.4027  -46.0406 H         1 UNK         0.0600 
    215 H215       -3.6514  -19.6578  -49.0069 H         1 UNK         0.3000 
    216 H216       -2.4146  -18.7235  -50.5674 H         1 UNK         0.0600 
    217 H217       -2.1773  -16.3059  -50.7287 H         1 UNK         0.0600 
    218 H218       -2.5162  -16.6716  -49.0516 H         1 UNK         0.0600 
    219 H219       -3.7875  -16.0274  -50.0827 H         1 UNK         0.0600 
    220 H220       -2.6554  -16.9492  -52.5449 H         1 UNK         0.3000 
    221 H221       -3.1675  -16.6886  -54.6517 H         1 UNK         0.0600 
    222 H222       -6.0320  -17.6090  -54.0546 H         1 UNK         0.0600 
    223 H223       -5.4345  -15.9823  -53.7433 H         1 UNK         0.0600 
    224 H224       -5.5014  -16.5880  -55.3842 H         1 UNK         0.0600 
    225 H225       -4.5279  -17.9233  -56.5916 H         1 UNK         0.3000 
    226 H226       -2.9436  -20.1635  -57.2475 H         1 UNK         0.0600 
    227 H227       -3.8787  -18.5802  -58.9126 H         1 UNK         0.0600 
    228 H228       -4.3919  -20.2173  -59.2830 H         1 UNK         0.0600 
    229 H229       -5.5195  -19.1002  -58.5240 H         1 UNK         0.0600 
    230 H230       -5.8400  -20.0603  -55.3890 H         1 UNK         0.3000 
    231 H231       -6.7602  -22.7685  -55.8645 H         1 UNK         0.0600 
    232 H232       -8.1529  -22.3169  -53.8412 H         1 UNK         0.0600 
    233 H233       -8.2856  -21.0088  -55.0058 H         1 UNK         0.0600 
    234 H234       -7.2890  -20.8087  -53.5641 H         1 UNK         0.0600 
    235 H235       -4.4564  -21.1936  -53.6211 H         1 UNK         0.3000 
    236 H236       -4.0758  -23.6735  -52.0694 H         1 UNK         0.0600 
    237 H237       -2.7805  -20.9173  -51.7893 H         1 UNK         0.0600 
    238 H238       -4.1729  -21.4807  -50.8778 H         1 UNK         0.0600 
    239 H239       -2.6099  -22.2586  -50.6670 H         1 UNK         0.0600 
    240 H240       -2.3115  -21.5599  -54.3631 H         1 UNK         0.3000 
    241 H241        0.1540  -23.0337  -54.2903 H         1 UNK         0.0600 
    242 H242        0.1020  -25.3870  -56.9474 H         1 UNK         0.3800 
    243 H243        1.1294  -24.4493  -55.9026 H         1 UNK         0.3800 
    244 H244        0.6278  -21.7320  -56.4537 H         1 UNK         0.0800 
    245 H245       -0.9545  -21.0376  -56.3202 H         1 UNK         0.0800 
    246 H246        0.5229  -21.4749  -52.7498 H         1 UNK         0.0800 
    247 H247       -0.7722  -20.2942  -52.7750 H         1 UNK         0.0800 
@<TRIPOS>BOND
     1    1    2 1    
     2    1  127 1    
     3    1  128 1    
     4    1  129 1    
     5    2    3 2    
     6    2    4 am   BACKBONE|DICT|INTERRES
     7    4    5 1    
     8    4  130 1    
     9    5    6 1    
    10    5   65 1    
    11    5  131 1    
    12    6    7 1    
    13    6  132 1    
    14    6  133 1    
    15    7    8 1    
    16    8    9 1    
    17    8  134 1    
    18    8  135 1    
    19    9   10 ar   
    20    9   14 ar   
    21   10   11 ar   
    22   10  136 1    
    23   11   12 ar   
    24   11  126 1    
    25   12   13 ar   
    26   12  137 1    
    27   13   14 ar   
    28   13   15 1    
    29   14  138 1    
    30   15   16 1    
    31   15  139 1    
    32   15  140 1    
    33   16   17 1    
    34   17   18 1    
    35   17  141 1    
    36   17  142 1    
    37   18   19 1    
    38   18   67 1    
    39   18  143 1    
    40   19   20 am   BACKBONE|DICT|INTERRES
    41   19  144 1    
    42   20   21 2    
    43   20   22 1    
    44   22   23 1    
    45   22   24 1    
    46   22  145 1    
    47   23  146 1    
    48   23  147 1    
    49   23  148 1    
    50   24   25 am   BACKBONE|DICT|INTERRES
    51   24  149 1    
    52   25   26 2    
    53   25   27 1    
    54   27   28 1    
    55   27   29 1    
    56   27  150 1    
    57   28  151 1    
    58   28  152 1    
    59   28  153 1    
    60   29   30 am   BACKBONE|DICT|INTERRES
    61   29  154 1    
    62   30   31 2    
    63   30   32 1    
    64   32   33 1    
    65   32   34 1    
    66   32  155 1    
    67   33  156 1    
    68   33  157 1    
    69   33  158 1    
    70   34   35 am   BACKBONE|DICT|INTERRES
    71   34  159 1    
    72   35   36 2    
    73   35   37 1    
    74   37   38 1    
    75   37   39 1    
    76   37  160 1    
    77   38  161 1    
    78   38  162 1    
    79   38  163 1    
    80   39   40 am   BACKBONE|DICT|INTERRES
    81   39  164 1    
    82   40   41 2    
    83   40   42 1    
    84   42   43 1    
    85   42   44 1    
    86   42  165 1    
    87   43  166 1    
    88   43  167 1    
    89   43  168 1    
    90   44   45 am   BACKBONE|DICT|INTERRES
    91   44  169 1    
    92   45   46 2    
    93   45   47 1    
    94   47   48 1    
    95   47   49 1    
    96   47  170 1    
    97   48  171 1    
    98   48  172 1    
    99   48  173 1    
   100   49   50 am   BACKBONE|DICT|INTERRES
   101   49  174 1    
   102   50   51 2    
   103   50   52 1    
   104   52   53 1    
   105   52   54 1    
   106   52  175 1    
   107   53  176 1    
   108   53  177 1    
   109   53  178 1    
   110   54   55 am   BACKBONE|DICT|INTERRES
   111   54  179 1    
   112   55   56 2    
   113   55   57 1    
   114   57   58 1    
   115   57   59 1    
   116   57  180 1    
   117   58  181 1    
   118   58  182 1    
   119   58  183 1    
   120   59   60 am   BACKBONE|DICT|INTERRES
   121   59  184 1    
   122   60   61 2    
   123   60   62 1    
   124   62   63 1    
   125   62   64 1    
   126   62  185 1    
   127   63  186 1    
   128   63  187 1    
   129   63  188 1    
   130   64   65 am   BACKBONE|DICT|INTERRES
   131   64  189 1    
   132   65   66 2    
   133   67   68 2    
   134   67   69 am   BACKBONE|DICT|INTERRES
   135   69   70 1    
   136   69  190 1    
   137   70   71 1    
   138   70   72 1    
   139   70  191 1    
   140   71  192 1    
   141   71  193 1    
   142   71  194 1    
   143   72   73 2    
   144   72   74 am   BACKBONE|DICT|INTERRES
   145   74   75 1    
   146   74  195 1    
   147   75   76 1    
   148   75   77 1    
   149   75  196 1    
   150   76  197 1    
   151   76  198 1    
   152   76  199 1    
   153   77   78 2    
   154   77   79 am   BACKBONE|DICT|INTERRES
   155   79   80 1    
   156   79  200 1    
   157   80   81 1    
   158   80   82 1    
   159   80  201 1    
   160   81  202 1    
   161   81  203 1    
   162   81  204 1    
   163   82   83 2    
   164   82   84 am   BACKBONE|DICT|INTERRES
   165   84   85 1    
   166   84  205 1    
   167   85   86 1    
   168   85   87 1    
   169   85  206 1    
   170   86  207 1    
   171   86  208 1    
   172   86  209 1    
   173   87   88 2    
   174   87   89 am   BACKBONE|DICT|INTERRES
   175   89   90 1    
   176   89  210 1    
   177   90   91 1    
   178   90   92 1    
   179   90  211 1    
   180   91  212 1    
   181   91  213 1    
   182   91  214 1    
   183   92   93 2    
   184   92   94 am   BACKBONE|DICT|INTERRES
   185   94   95 1    
   186   94  215 1    
   187   95   96 1    
   188   95   97 1    
   189   95  216 1    
   190   96  217 1    
   191   96  218 1    
   192   96  219 1    
   193   97   98 2    
   194   97   99 am   BACKBONE|DICT|INTERRES
   195   99  100 1    
   196   99  220 1    
   197  100  101 1    
   198  100  102 1    
   199  100  221 1    
   200  101  222 1    
   201  101  223 1    
   202  101  224 1    
   203  102  103 2    
   204  102  104 am   BACKBONE|DICT|INTERRES
   205  104  105 1    
   206  104  225 1    
   207  105  106 1    
   208  105  107 1    
   209  105  226 1    
   210  106  227 1    
   211  106  228 1    
   212  106  229 1    
   213  107  108 2    
   214  107  109 am   BACKBONE|DICT|INTERRES
   215  109  110 1    
   216  109  230 1    
   217  110  111 1    
   218  110  112 1    
   219  110  231 1    
   220  111  232 1    
   221  111  233 1    
   222  111  234 1    
   223  112  113 2    
   224  112  114 am   BACKBONE|DICT|INTERRES
   225  114  115 1    
   226  114  235 1    
   227  115  116 1    
   228  115  117 1    
   229  115  236 1    
   230  116  237 1    
   231  116  238 1    
   232  116  239 1    
   233  117  118 2    
   234  117  119 am   BACKBONE|DICT|INTERRES
   235  119  120 1    
   236  119  240 1    
   237  120  121 1    
   238  120  124 1    
   239  120  241 1    
   240  121  122 am   BACKBONE|DICT|INTERRES
   241  121  123 2    
   242  122  242 1    
   243  122  243 1    
   244  124  125 1    
   245  124  244 1    
   246  124  245 1    
   247  125  126 1    
   248  126  246 1    
   249  126  247 1    
@<TRIPOS>SUBSTRUCTURE
     1 UNK         1 GROUP             0       ****    0 ROOT    
