@<TRIPOS>MOLECULE
3R540
247   249    1
SMALL
USER_CHARGES


@<TRIPOS>ATOM
      1 CA         -0.3276  -11.1611  -51.2838 C.3       0 UNK        -0.1800 
      2 C           0.4778  -12.1626  -50.4686 C.2       0 UNK         0.5000 
      3 O           1.3306  -11.7632  -49.6760 O.2       0 UNK        -0.5000 
      4 N           0.2078  -13.4609  -50.6596 N.am      1 UNK        -0.5000 
      5 CA          0.8835  -14.5772  -49.9800 C.3       1 UNK         0.1400 
      6 C6          0.5572  -15.9451  -50.6276 C.3       23 UNK        -0.0398 
      7 S7          0.8600  -15.9690  -52.4301 S.3       23 UNK        -0.2404 
      8 C8          2.4781  -16.7959  -52.5318 C.3       23 UNK        -0.0205 
      9 C9          2.3593  -18.2812  -52.2340 C.ar      23 UNK        -0.0193 
     10 C10         1.8634  -19.1521  -53.2063 C.ar      23 UNK        -0.1150 
     11 C11         1.7088  -20.5130  -52.9294 C.ar      23 UNK        -0.0193 
     12 C12         2.0587  -21.0006  -51.6652 C.ar      23 UNK        -0.1150 
     13 C13         2.5808  -20.1421  -50.6916 C.ar      23 UNK        -0.0193 
     14 C14         2.7376  -18.7854  -50.9881 C.ar      23 UNK        -0.1150 
     15 C15         3.0114  -20.6836  -49.3344 C.3       23 UNK        -0.0205 
     16 S16         2.2605  -19.7887  -47.9328 S.3       23 UNK        -0.2404 
     17 C17         0.5210  -20.3242  -48.0389 C.3       23 UNK        -0.0398 
     18 CA          0.2879  -21.6635  -47.3074 C.3       11 UNK         0.1400 
     19 N           0.5272  -21.5767  -45.8658 N.am      11 UNK        -0.5000 
     20 C           0.7656  -22.6426  -45.0920 C.2       10 UNK         0.5000 
     21 O           0.7917  -23.7972  -45.5170 O.2       10 UNK        -0.5000 
     22 CA          0.9638  -22.3858  -43.5896 C.3       10 UNK         0.1400 
     23 CB          2.3608  -21.8103  -43.3136 C.3       10 UNK        -0.1800 
     24 N          -0.0607  -21.5045  -43.0292 N.am      10 UNK        -0.5000 
     25 C          -1.3693  -21.7947  -42.9912 C.2       9 UNK         0.5000 
     26 O          -1.8482  -22.8480  -43.4119 O.2       9 UNK        -0.5000 
     27 CA         -2.3074  -20.7154  -42.4227 C.3       9 UNK         0.1400 
     28 CB         -2.2648  -20.7096  -40.8875 C.3       9 UNK        -0.1800 
     29 N          -2.0091  -19.3758  -42.9293 N.am      9 UNK        -0.5000 
     30 C          -2.0913  -19.0133  -44.2181 C.2       8 UNK         0.5000 
     31 O          -2.4453  -19.7665  -45.1227 O.2       8 UNK        -0.5000 
     32 CA         -1.6475  -17.5824  -44.5648 C.3       8 UNK         0.1400 
     33 CB         -2.7060  -16.5604  -44.1239 C.3       8 UNK        -0.1800 
     34 N          -0.3586  -17.2440  -43.9649 N.am      8 UNK        -0.5000 
     35 C           0.7874  -17.9042  -44.1856 C.2       7 UNK         0.5000 
     36 O           0.8952  -18.8572  -44.9557 O.2       7 UNK        -0.5000 
     37 CA          2.0010  -17.4624  -43.3528 C.3       7 UNK         0.1400 
     38 CB          2.6376  -16.1911  -43.9371 C.3       7 UNK        -0.1800 
     39 N           1.6442  -17.2451  -41.9496 N.am      7 UNK        -0.5000 
     40 C           1.2666  -18.2172  -41.1056 C.2       6 UNK         0.5000 
     41 O           1.2120  -19.4077  -41.4115 O.2       6 UNK        -0.5000 
     42 CA          0.8390  -17.7795  -39.6935 C.3       6 UNK         0.1400 
     43 CB          2.0667  -17.5641  -38.7960 C.3       6 UNK        -0.1800 
     44 N           0.0272  -16.5626  -39.7081 N.am      6 UNK        -0.5000 
     45 C          -1.2045  -16.4796  -40.2310 C.2       5 UNK         0.5000 
     46 O          -1.8054  -17.4339  -40.7236 O.2       5 UNK        -0.5000 
     47 CA         -1.8470  -15.0795  -40.2553 C.3       5 UNK         0.1400 
     48 CB         -2.5547  -14.7846  -38.9245 C.3       5 UNK        -0.1800 
     49 N          -0.8856  -14.0099  -40.5463 N.am      5 UNK        -0.5000 
     50 C          -0.1882  -13.9187  -41.6851 C.2       4 UNK         0.5000 
     51 O          -0.2791  -14.7348  -42.6079 O.2       4 UNK        -0.5000 
     52 CA          0.8046  -12.7554  -41.8036 C.3       4 UNK         0.1400 
     53 CB          2.0857  -13.0363  -40.9990 C.3       4 UNK        -0.1800 
     54 N           1.1305  -12.6189  -43.2142 N.am      4 UNK        -0.5000 
     55 C           1.5401  -11.5196  -43.8507 C.2       3 UNK         0.5000 
     56 O           1.7901  -10.4526  -43.2887 O.2       3 UNK        -0.5000 
     57 CA          1.6830  -11.6345  -45.3822 C.3       3 UNK         0.1400 
     58 CB          3.1530  -11.8547  -45.7702 C.3       3 UNK        -0.1800 
     59 N           0.8790  -12.7150  -45.9632 N.am      3 UNK        -0.5000 
     60 C          -0.4576  -12.7300  -46.0468 C.2       2 UNK         0.5000 
     61 O          -1.1724  -11.8097  -45.6468 O.2       2 UNK        -0.5000 
     62 CA         -1.0839  -13.9751  -46.7114 C.3       2 UNK         0.1400 
     63 CB         -2.6231  -13.9333  -46.7246 C.3       2 UNK        -0.1800 
     64 N          -0.6175  -14.1341  -48.0875 N.am      2 UNK        -0.5000 
     65 C           0.5720  -14.6197  -48.4681 C.2       1 UNK         0.5000 
     66 O           1.4107  -15.0568  -47.6791 O.2       1 UNK        -0.5000 
     67 C          -1.0883  -22.2733  -47.6404 C.2       11 UNK         0.5000 
     68 O          -1.2060  -22.9289  -48.6727 O.2       11 UNK        -0.5000 
     69 N          -2.0942  -22.1073  -46.7699 N.am      12 UNK        -0.5000 
     70 CA         -3.3818  -22.7955  -46.8863 C.3       12 UNK         0.1400 
     71 CB         -4.4208  -22.1439  -45.9641 C.3       12 UNK        -0.1800 
     72 C          -3.2651  -24.3055  -46.6120 C.2       12 UNK         0.5000 
     73 O          -3.9170  -25.0947  -47.2924 O.2       12 UNK        -0.5000 
     74 N          -2.4172  -24.6932  -45.6505 N.am      13 UNK        -0.5000 
     75 CA         -2.0988  -26.0928  -45.3696 C.3       13 UNK         0.1400 
     76 CB         -1.3632  -26.1981  -44.0248 C.3       13 UNK        -0.1800 
     77 C          -1.2821  -26.7425  -46.5034 C.2       13 UNK         0.5000 
     78 O          -1.5792  -27.8714  -46.8962 O.2       13 UNK        -0.5000 
     79 N          -0.2755  -26.0181  -47.0100 N.am      14 UNK        -0.5000 
     80 CA          0.6297  -26.4831  -48.0600 C.3       14 UNK         0.1400 
     81 CB          1.8953  -25.6117  -48.0590 C.3       14 UNK        -0.1800 
     82 C          -0.0006  -26.4977  -49.4645 C.2       14 UNK         0.5000 
     83 O           0.2973  -27.4050  -50.2428 O.2       14 UNK        -0.5000 
     84 N          -0.8252  -25.4911  -49.7791 N.am      15 UNK        -0.5000 
     85 CA         -1.3292  -25.2192  -51.1232 C.3       15 UNK         0.1400 
     86 CB         -0.3968  -24.2123  -51.8211 C.3       15 UNK        -0.1800 
     87 C          -2.7971  -24.7617  -51.0860 C.2       15 UNK         0.5000 
     88 O          -3.1433  -23.7297  -51.6619 O.2       15 UNK        -0.5000 
     89 N          -3.6376  -25.5655  -50.4227 N.am      16 UNK        -0.5000 
     90 CA         -5.1080  -25.5607  -50.3975 C.3       16 UNK         0.1400 
     91 CB         -5.6751  -25.8613  -51.7984 C.3       16 UNK        -0.1800 
     92 C          -5.7958  -24.3196  -49.7917 C.2       16 UNK         0.5000 
     93 O          -6.6812  -24.4812  -48.9503 O.2       16 UNK        -0.5000 
     94 N          -5.4205  -23.1167  -50.2374 N.am      17 UNK        -0.5000 
     95 CA         -6.0413  -21.8518  -49.8387 C.3       17 UNK         0.1400 
     96 CB         -7.3673  -21.6490  -50.6005 C.3       17 UNK        -0.1800 
     97 C          -5.0960  -20.6476  -49.9975 C.2       17 UNK         0.5000 
     98 O          -5.5743  -19.5121  -50.0173 O.2       17 UNK        -0.5000 
     99 N          -3.7808  -20.8945  -50.1109 N.am      18 UNK        -0.5000 
    100 CA        -2.7302  -19.8901  -50.3073 C.3       18 UNK         0.1400 
    101 CB        -2.5793  -19.0047  -49.0464 C.3       18 UNK        -0.1800 
    102 C         -2.9658  -19.0942  -51.6081 C.2       18 UNK         0.5000 
    103 O         -3.1822  -19.7116  -52.6504 O.2       18 UNK        -0.5000 
    104 N         -2.9714  -17.7553  -51.5338 N.am      19 UNK        -0.5000 
    105 CA        -3.1800  -16.8390  -52.6605 C.3       19 UNK         0.1400 
    106 CB        -3.1170  -15.3900  -52.1522 C.3       19 UNK        -0.1800 
    107 C         -4.4928  -17.0642  -53.4374 C.2       19 UNK         0.5000 
    108 O         -4.5225  -16.8312  -54.6457 O.2       19 UNK        -0.5000 
    109 N         -5.5417  -17.5405  -52.7510 N.am      20 UNK        -0.5000 
    110 CA        -6.8376  -17.8590  -53.3543 C.3       20 UNK         0.1400 
    111 CB        -7.8879  -18.0207  -52.2460 C.3       20 UNK        -0.1800 
    112 C         -6.8017  -19.1042  -54.2637 C.2       20 UNK         0.5000 
    113 O         -7.6522  -19.2224  -55.1468 O.2       20 UNK        -0.5000 
    114 N         -5.8255  -19.9956  -54.0471 N.am      21 UNK        -0.5000 
    115 CA        -5.5678  -21.1628  -54.8877 C.3       21 UNK         0.1400 
    116 CB        -5.2221  -22.3640  -53.9940 C.3       21 UNK        -0.1800 
    117 C         -4.4254  -20.8805  -55.8772 C.2       21 UNK         0.5000 
    118 O         -4.5476  -21.2087  -57.0581 O.2       21 UNK        -0.5000 
    119 N         -3.3352  -20.2901  -55.3744 N.am      22 UNK        -0.5000 
    120 CA        -2.0940  -20.0306  -56.1174 C.3       22 UNK         0.1400 
    121 C         -2.1603  -18.8288  -57.1021 C.2       22 UNK         0.5000 
    122 N         -3.0855  -17.8885  -56.9587 N.am      22 UNK        -0.7600 
    123 O         -1.3561  -18.7535  -58.0270 O.2       22 UNK        -0.5000 
    124 C124       -0.8830  -19.8911  -55.1604 C.3       23 UNK        -0.0398 
    125 S125       -0.6231  -21.3926  -54.1514 S.3       23 UNK        -0.2404 
    126 C126        1.1889  -21.4577  -54.0035 C.3       23 UNK        -0.0205 
    127 H127        0.3383  -10.5590  -51.9019 H         1 UNK         0.0600 
    128 H128       -1.0458  -11.6551  -51.9389 H         1 UNK         0.0600 
    129 H129       -0.8763  -10.4927  -50.6203 H         1 UNK         0.0600 
    130 H130       -0.4715  -13.7242  -51.3586 H         1 UNK         0.3000 
    131 H131        1.9588  -14.4124  -50.0773 H         1 UNK         0.0600 
    132 H132       -0.4877  -16.2093  -50.4628 H         1 UNK         0.0800 
    133 H133        1.1342  -16.7348  -50.1466 H         1 UNK         0.0800 
    134 H134        2.8826  -16.6593  -53.5357 H         1 UNK         0.0800 
    135 H135        3.1811  -16.3142  -51.8504 H         1 UNK         0.0800 
    136 H136        1.5901  -18.7637  -54.1765 H         1 UNK         0.1150 
    137 H137        1.9419  -22.0530  -51.4473 H         1 UNK         0.1150 
    138 H138        3.1431  -18.1197  -50.2391 H         1 UNK         0.1150 
    139 H139        2.7842  -21.7469  -49.2473 H         1 UNK         0.0800 
    140 H140        4.0959  -20.5971  -49.2585 H         1 UNK         0.0800 
    141 H141        0.2414  -20.3935  -49.0912 H         1 UNK         0.0800 
    142 H142       -0.0986  -19.5415  -47.5994 H         1 UNK         0.0800 
    143 H143        1.0185  -22.3681  -47.7082 H         1 UNK         0.0600 
    144 H144        0.5559  -20.6427  -45.4616 H         1 UNK         0.3000 
    145 H145        0.8885  -23.3477  -43.0783 H         1 UNK         0.0600 
    146 H146        2.5452  -21.7217  -42.2430 H         1 UNK         0.0600 
    147 H147        3.1379  -22.4556  -43.7250 H         1 UNK         0.0600 
    148 H148        2.4850  -20.8220  -43.7572 H         1 UNK         0.0600 
    149 H149        0.2637  -20.6284  -42.6306 H         1 UNK         0.3000 
    150 H150       -3.3242  -20.9662  -42.7316 H         1 UNK         0.0600 
    151 H151       -2.4909  -21.6981  -40.4857 H         1 UNK         0.0600 
    152 H152       -2.9983  -20.0158  -40.4764 H         1 UNK         0.0600 
    153 H153       -1.2832  -20.4177  -40.5126 H         1 UNK         0.0600 
    154 H154       -1.7370  -18.6812  -42.2398 H         1 UNK         0.3000 
    155 H155       -1.5332  -17.5148  -45.6487 H         1 UNK         0.0600 
    156 H156       -2.9356  -16.6456  -43.0619 H         1 UNK         0.0600 
    157 H157       -3.6370  -16.7036  -44.6733 H         1 UNK         0.0600 
    158 H158       -2.3711  -15.5403  -44.3027 H         1 UNK         0.0600 
    159 H159       -0.3479  -16.4498  -43.3300 H         1 UNK         0.3000 
    160 H160        2.7436  -18.2622  -43.3932 H         1 UNK         0.0600 
    161 H161        3.5232  -15.8971  -43.3737 H         1 UNK         0.0600 
    162 H162        1.9454  -15.3504  -43.9368 H         1 UNK         0.0600 
    163 H163        2.9479  -16.3537  -44.9703 H         1 UNK         0.0600 
    164 H164        1.6129  -16.2893  -41.6307 H         1 UNK         0.3000 
    165 H165        0.2382  -18.5837  -39.2632 H         1 UNK         0.0600 
    166 H166        1.7707  -17.3299  -37.7733 H         1 UNK         0.0600 
    167 H167        2.6832  -18.4632  -38.7569 H         1 UNK         0.0600 
    168 H168        2.6956  -16.7500  -39.1585 H         1 UNK         0.0600 
    169 H169        0.4444  -15.7282  -39.3235 H         1 UNK         0.3000 
    170 H170       -2.5980  -15.0769  -41.0480 H         1 UNK         0.0600 
    171 H171       -3.2886  -15.5580  -38.6935 H         1 UNK         0.0600 
    172 H172       -1.8502  -14.7415  -38.0930 H         1 UNK         0.0600 
    173 H173       -3.0877  -13.8345  -38.9634 H         1 UNK         0.0600 
    174 H174       -0.7582  -13.3086  -39.8308 H         1 UNK         0.3000 
    175 H175        0.3239  -11.8429  -41.4455 H         1 UNK         0.0600 
    176 H176        2.5822  -13.9466  -41.3377 H         1 UNK         0.0600 
    177 H177        2.7971  -12.2156  -41.0927 H         1 UNK         0.0600 
    178 H178        1.8673  -13.1539  -39.9371 H         1 UNK         0.0600 
    179 H179        0.8869  -13.4343  -43.7617 H         1 UNK         0.3000 
    180 H180        1.3496  -10.6899  -45.8169 H         1 UNK         0.0600 
    181 H181        3.5353  -12.7975  -45.3767 H         1 UNK         0.0600 
    182 H182        3.7847  -11.0550  -45.3813 H         1 UNK         0.0600 
    183 H183        3.2760  -11.8679  -46.8535 H         1 UNK         0.0600 
    184 H184        1.3835  -13.4992  -46.3632 H         1 UNK         0.3000 
    185 H185       -0.7750  -14.8446  -46.1269 H         1 UNK         0.0600 
    186 H186       -3.0248  -13.7824  -45.7222 H         1 UNK         0.0600 
    187 H187       -2.9983  -13.1219  -47.3495 H         1 UNK         0.0600 
    188 H188       -3.0383  -14.8677  -47.1027 H         1 UNK         0.0600 
    189 H189       -1.2150  -13.7483  -48.8037 H         1 UNK         0.3000 
    190 H190       -1.9762  -21.4883  -45.9735 H         1 UNK         0.3000 
    191 H191       -3.7341  -22.6816  -47.9118 H         1 UNK         0.0600 
    192 H192       -4.1121  -22.1812  -44.9192 H         1 UNK         0.0600 
    193 H193       -5.3838  -22.6500  -46.0429 H         1 UNK         0.0600 
    194 H194       -4.5809  -21.0991  -46.2310 H         1 UNK         0.0600 
    195 H195       -1.9597  -23.9910  -45.0779 H         1 UNK         0.3000 
    196 H196       -3.0380  -26.6428  -45.2792 H         1 UNK         0.0600 
    197 H197       -0.4191  -25.6536  -44.0335 H         1 UNK         0.0600 
    198 H198       -1.1403  -27.2378  -43.7827 H         1 UNK         0.0600 
    199 H199       -1.9702  -25.7973  -43.2128 H         1 UNK         0.0600 
    200 H200       -0.0534  -25.1246  -46.5784 H         1 UNK         0.3000 
    201 H201        0.9292  -27.5059  -47.8212 H         1 UNK         0.0600 
    202 H202        1.6672  -24.5724  -48.2954 H         1 UNK         0.0600 
    203 H203        2.6144  -25.9657  -48.7988 H         1 UNK         0.0600 
    204 H204        2.3900  -25.6340  -47.0878 H         1 UNK         0.0600 
    205 H205       -1.0111  -24.7579  -49.0994 H         1 UNK         0.3000 
    206 H206       -1.3242  -26.1380  -51.7128 H         1 UNK         0.0600 
    207 H207       -0.7062  -24.0559  -52.8544 H         1 UNK         0.0600 
    208 H208       -0.4055  -23.2422  -51.3225 H         1 UNK         0.0600 
    209 H209        0.6325  -24.5699  -51.8431 H         1 UNK         0.0600 
    210 H210       -3.2176  -26.3275  -49.9087 H         1 UNK         0.3000 
    211 H211       -5.3809  -26.3992  -49.7546 H         1 UNK         0.0600 
    212 H212       -5.4155  -25.0845  -52.5181 H         1 UNK         0.0600 
    213 H213       -6.7634  -25.9307  -51.7730 H         1 UNK         0.0600 
    214 H214       -5.2987  -26.8102  -52.1804 H         1 UNK         0.0600 
    215 H215       -4.6779  -23.0851  -50.9340 H         1 UNK         0.3000 
    216 H216       -6.2678  -21.9041  -48.7718 H         1 UNK         0.0600 
    217 H217       -7.9149  -20.7921  -50.2073 H         1 UNK         0.0600 
    218 H218       -8.0247  -22.5130  -50.5054 H         1 UNK         0.0600 
    219 H219       -7.1975  -21.4717  -51.6623 H         1 UNK         0.0600 
    220 H220       -3.4653  -21.8544  -50.1382 H         1 UNK         0.3000 
    221 H221       -1.8007  -20.4428  -50.4505 H         1 UNK         0.0600 
    222 H222       -3.4446  -18.3610  -48.8848 H         1 UNK         0.0600 
    223 H223       -2.4687  -19.6137  -48.1503 H         1 UNK         0.0600 
    224 H224       -1.6978  -18.3663  -49.1147 H         1 UNK         0.0600 
    225 H225       -2.8422  -17.3298  -50.6286 H         1 UNK         0.3000 
    226 H226       -2.3573  -16.9931  -53.3618 H         1 UNK         0.0600 
    227 H227       -2.1492  -15.1632  -51.7105 H         1 UNK         0.0600 
    228 H228       -3.2680  -14.6827  -52.9691 H         1 UNK         0.0600 
    229 H229       -3.8842  -15.1930  -51.4024 H         1 UNK         0.0600 
    230 H230       -5.4316  -17.7516  -51.7676 H         1 UNK         0.3000 
    231 H231       -7.1369  -17.0129  -53.9767 H         1 UNK         0.0600 
    232 H232       -7.9686  -17.1163  -51.6429 H         1 UNK         0.0600 
    233 H233       -7.6438  -18.8468  -51.5801 H         1 UNK         0.0600 
    234 H234       -8.8740  -18.2198  -52.6673 H         1 UNK         0.0600 
    235 H235       -5.1326  -19.7954  -53.3351 H         1 UNK         0.3000 
    236 H236       -6.4569  -21.4226  -55.4661 H         1 UNK         0.0600 
    237 H237       -4.9577  -23.2369  -54.5921 H         1 UNK         0.0600 
    238 H238       -4.3759  -22.1454  -53.3425 H         1 UNK         0.0600 
    239 H239       -6.0657  -22.6469  -53.3659 H         1 UNK         0.0600 
    240 H240       -3.2968  -20.0896  -54.3766 H         1 UNK         0.3000 
    241 H241       -1.9067  -20.9074  -56.7407 H         1 UNK         0.0600 
    242 H242       -3.1118  -17.1252  -57.6154 H         1 UNK         0.3800 
    243 H243       -3.7155  -17.8758  -56.1648 H         1 UNK         0.3800 
    244 H244        0.0236  -19.6934  -55.7342 H         1 UNK         0.0800 
    245 H245       -1.0181  -19.0410  -54.4895 H         1 UNK         0.0800 
    246 H246        1.4764  -22.4829  -53.7657 H         1 UNK         0.0800 
    247 H247        1.6549  -21.2319  -54.9636 H         1 UNK         0.0800 
@<TRIPOS>BOND
     1    1    2 1    
     2    1  127 1    
     3    1  128 1    
     4    1  129 1    
     5    2    3 2    
     6    2    4 am   BACKBONE|DICT|INTERRES
     7    4    5 1    
     8    4  130 1    
     9    5    6 1    
    10    5   65 1    
    11    5  131 1    
    12    6    7 1    
    13    6  132 1    
    14    6  133 1    
    15    7    8 1    
    16    8    9 1    
    17    8  134 1    
    18    8  135 1    
    19    9   10 ar   
    20    9   14 ar   
    21   10   11 ar   
    22   10  136 1    
    23   11   12 ar   
    24   11  126 1    
    25   12   13 ar   
    26   12  137 1    
    27   13   14 ar   
    28   13   15 1    
    29   14  138 1    
    30   15   16 1    
    31   15  139 1    
    32   15  140 1    
    33   16   17 1    
    34   17   18 1    
    35   17  141 1    
    36   17  142 1    
    37   18   19 1    
    38   18   67 1    
    39   18  143 1    
    40   19   20 am   BACKBONE|DICT|INTERRES
    41   19  144 1    
    42   20   21 2    
    43   20   22 1    
    44   22   23 1    
    45   22   24 1    
    46   22  145 1    
    47   23  146 1    
    48   23  147 1    
    49   23  148 1    
    50   24   25 am   BACKBONE|DICT|INTERRES
    51   24  149 1    
    52   25   26 2    
    53   25   27 1    
    54   27   28 1    
    55   27   29 1    
    56   27  150 1    
    57   28  151 1    
    58   28  152 1    
    59   28  153 1    
    60   29   30 am   BACKBONE|DICT|INTERRES
    61   29  154 1    
    62   30   31 2    
    63   30   32 1    
    64   32   33 1    
    65   32   34 1    
    66   32  155 1    
    67   33  156 1    
    68   33  157 1    
    69   33  158 1    
    70   34   35 am   BACKBONE|DICT|INTERRES
    71   34  159 1    
    72   35   36 2    
    73   35   37 1    
    74   37   38 1    
    75   37   39 1    
    76   37  160 1    
    77   38  161 1    
    78   38  162 1    
    79   38  163 1    
    80   39   40 am   BACKBONE|DICT|INTERRES
    81   39  164 1    
    82   40   41 2    
    83   40   42 1    
    84   42   43 1    
    85   42   44 1    
    86   42  165 1    
    87   43  166 1    
    88   43  167 1    
    89   43  168 1    
    90   44   45 am   BACKBONE|DICT|INTERRES
    91   44  169 1    
    92   45   46 2    
    93   45   47 1    
    94   47   48 1    
    95   47   49 1    
    96   47  170 1    
    97   48  171 1    
    98   48  172 1    
    99   48  173 1    
   100   49   50 am   BACKBONE|DICT|INTERRES
   101   49  174 1    
   102   50   51 2    
   103   50   52 1    
   104   52   53 1    
   105   52   54 1    
   106   52  175 1    
   107   53  176 1    
   108   53  177 1    
   109   53  178 1    
   110   54   55 am   BACKBONE|DICT|INTERRES
   111   54  179 1    
   112   55   56 2    
   113   55   57 1    
   114   57   58 1    
   115   57   59 1    
   116   57  180 1    
   117   58  181 1    
   118   58  182 1    
   119   58  183 1    
   120   59   60 am   BACKBONE|DICT|INTERRES
   121   59  184 1    
   122   60   61 2    
   123   60   62 1    
   124   62   63 1    
   125   62   64 1    
   126   62  185 1    
   127   63  186 1    
   128   63  187 1    
   129   63  188 1    
   130   64   65 am   BACKBONE|DICT|INTERRES
   131   64  189 1    
   132   65   66 2    
   133   67   68 2    
   134   67   69 am   BACKBONE|DICT|INTERRES
   135   69   70 1    
   136   69  190 1    
   137   70   71 1    
   138   70   72 1    
   139   70  191 1    
   140   71  192 1    
   141   71  193 1    
   142   71  194 1    
   143   72   73 2    
   144   72   74 am   BACKBONE|DICT|INTERRES
   145   74   75 1    
   146   74  195 1    
   147   75   76 1    
   148   75   77 1    
   149   75  196 1    
   150   76  197 1    
   151   76  198 1    
   152   76  199 1    
   153   77   78 2    
   154   77   79 am   BACKBONE|DICT|INTERRES
   155   79   80 1    
   156   79  200 1    
   157   80   81 1    
   158   80   82 1    
   159   80  201 1    
   160   81  202 1    
   161   81  203 1    
   162   81  204 1    
   163   82   83 2    
   164   82   84 am   BACKBONE|DICT|INTERRES
   165   84   85 1    
   166   84  205 1    
   167   85   86 1    
   168   85   87 1    
   169   85  206 1    
   170   86  207 1    
   171   86  208 1    
   172   86  209 1    
   173   87   88 2    
   174   87   89 am   BACKBONE|DICT|INTERRES
   175   89   90 1    
   176   89  210 1    
   177   90   91 1    
   178   90   92 1    
   179   90  211 1    
   180   91  212 1    
   181   91  213 1    
   182   91  214 1    
   183   92   93 2    
   184   92   94 am   BACKBONE|DICT|INTERRES
   185   94   95 1    
   186   94  215 1    
   187   95   96 1    
   188   95   97 1    
   189   95  216 1    
   190   96  217 1    
   191   96  218 1    
   192   96  219 1    
   193   97   98 2    
   194   97   99 am   BACKBONE|DICT|INTERRES
   195   99  100 1    
   196   99  220 1    
   197  100  101 1    
   198  100  102 1    
   199  100  221 1    
   200  101  222 1    
   201  101  223 1    
   202  101  224 1    
   203  102  103 2    
   204  102  104 am   BACKBONE|DICT|INTERRES
   205  104  105 1    
   206  104  225 1    
   207  105  106 1    
   208  105  107 1    
   209  105  226 1    
   210  106  227 1    
   211  106  228 1    
   212  106  229 1    
   213  107  108 2    
   214  107  109 am   BACKBONE|DICT|INTERRES
   215  109  110 1    
   216  109  230 1    
   217  110  111 1    
   218  110  112 1    
   219  110  231 1    
   220  111  232 1    
   221  111  233 1    
   222  111  234 1    
   223  112  113 2    
   224  112  114 am   BACKBONE|DICT|INTERRES
   225  114  115 1    
   226  114  235 1    
   227  115  116 1    
   228  115  117 1    
   229  115  236 1    
   230  116  237 1    
   231  116  238 1    
   232  116  239 1    
   233  117  118 2    
   234  117  119 am   BACKBONE|DICT|INTERRES
   235  119  120 1    
   236  119  240 1    
   237  120  121 1    
   238  120  124 1    
   239  120  241 1    
   240  121  122 am   BACKBONE|DICT|INTERRES
   241  121  123 2    
   242  122  242 1    
   243  122  243 1    
   244  124  125 1    
   245  124  244 1    
   246  124  245 1    
   247  125  126 1    
   248  126  246 1    
   249  126  247 1    
@<TRIPOS>SUBSTRUCTURE
     1 UNK         1 GROUP             0       ****    0 ROOT    
