@<TRIPOS>MOLECULE
3R540
247   249    1
SMALL
USER_CHARGES


@<TRIPOS>ATOM
      1 CA         -0.8014   -8.9934  -48.4798 C.3       0 UNK        -0.1800 
      2 C          -0.2924  -10.3298  -47.9585 C.2       0 UNK         0.5000 
      3 O           0.8955  -10.4618  -47.6647 O.2       0 UNK        -0.5000 
      4 N          -1.1873  -11.3184  -47.8340 N.am      1 UNK        -0.5000 
      5 CA         -0.8776  -12.6810  -47.3757 C.3       1 UNK         0.1400 
      6 C6         -1.9404  -13.7132  -47.8343 C.3       23 UNK        -0.0398 
      7 S7         -2.2949  -13.6707  -49.6256 S.3       23 UNK        -0.2404 
      8 C8         -2.9942  -15.3311  -49.9042 C.3       23 UNK        -0.0205 
      9 C9         -2.0032  -16.2437  -50.6109 C.ar      23 UNK        -0.0193 
     10 C10        -2.0905  -16.4404  -51.9929 C.ar      23 UNK        -0.1150 
     11 C11        -1.1878  -17.2822  -52.6501 C.ar      23 UNK        -0.0193 
     12 C12        -0.1788  -17.9117  -51.9155 C.ar      23 UNK        -0.1150 
     13 C13        -0.0677  -17.7069  -50.5386 C.ar      23 UNK        -0.0193 
     14 C14        -0.9988  -16.8916  -49.8874 C.ar      23 UNK        -0.1150 
     15 C15         1.0845  -18.3339  -49.7688 C.3       23 UNK        -0.0205 
     16 S16         0.8234  -20.0943  -49.4279 S.3       23 UNK        -0.2404 
     17 C17        -0.6488  -20.0386  -48.3579 C.3       23 UNK        -0.0398 
     18 CA         -0.7054  -21.2902  -47.4578 C.3       11 UNK         0.1400 
     19 N           0.2447  -21.2414  -46.3422 N.am      11 UNK        -0.5000 
     20 C           0.8043  -22.3338  -45.8053 C.2       10 UNK         0.5000 
     21 O           0.6024  -23.4770  -46.2163 O.2       10 UNK        -0.5000 
     22 CA          1.6834  -22.1194  -44.5607 C.3       10 UNK         0.1400 
     23 CB          3.0138  -21.4393  -44.9192 C.3       10 UNK        -0.1800 
     24 N           0.9991  -21.3593  -43.5117 N.am      10 UNK        -0.5000 
     25 C          -0.1062  -21.7720  -42.8743 C.2       9 UNK         0.5000 
     26 O          -0.6991  -22.8133  -43.1610 O.2       9 UNK        -0.5000 
     27 CA         -0.6922  -20.8666  -41.7731 C.3       9 UNK         0.1400 
     28 CB         -1.1342  -21.6667  -40.5306 C.3       9 UNK        -0.1800 
     29 N           0.1307  -19.7121  -41.4040 N.am      9 UNK        -0.5000 
     30 C           1.2809  -19.6860  -40.7145 C.2       8 UNK         0.5000 
     31 O           1.8777  -20.6969  -40.3442 O.2       8 UNK        -0.5000 
     32 CA          1.8733  -18.2957  -40.3875 C.3       8 UNK         0.1400 
     33 CB          3.2936  -18.1609  -40.9503 C.3       8 UNK        -0.1800 
     34 N           1.0573  -17.1847  -40.8895 N.am      8 UNK        -0.5000 
     35 C          -0.0592  -16.7299  -40.3052 C.2       7 UNK         0.5000 
     36 O          -0.4636  -17.1172  -39.2088 O.2       7 UNK        -0.5000 
     37 CA         -0.9027  -15.7290  -41.1161 C.3       7 UNK         0.1400 
     38 CB         -0.5436  -14.2795  -40.7580 C.3       7 UNK        -0.1800 
     39 N          -0.8153  -15.9552  -42.5685 N.am      7 UNK        -0.5000 
     40 C          -1.4075  -16.9950  -43.1775 C.2       6 UNK         0.5000 
     41 O          -2.0368  -17.8571  -42.5655 O.2       6 UNK        -0.5000 
     42 CA         -1.2834  -17.1345  -44.7022 C.3       6 UNK         0.1400 
     43 CB         -2.4715  -16.4531  -45.3968 C.3       6 UNK        -0.1800 
     44 N          -0.0288  -16.6012  -45.2383 N.am      6 UNK        -0.5000 
     45 C           0.9894  -17.3701  -45.6475 C.2       5 UNK         0.5000 
     46 O           0.9984  -18.5956  -45.5193 O.2       5 UNK        -0.5000 
     47 CA          2.1713  -16.6745  -46.3585 C.3       5 UNK         0.1400 
     48 CB          1.7358  -15.5733  -47.3448 C.3       5 UNK        -0.1800 
     49 N           3.1168  -16.0858  -45.4239 N.am      5 UNK        -0.5000 
     50 C           3.9343  -16.7365  -44.5901 C.2       4 UNK         0.5000 
     51 O           4.0747  -17.9586  -44.5764 O.2       4 UNK        -0.5000 
     52 CA          4.7411  -15.8624  -43.6033 C.3       4 UNK         0.1400 
     53 CB          6.2096  -15.7737  -44.0463 C.3       4 UNK        -0.1800 
     54 N           4.2226  -14.4988  -43.4209 N.am      4 UNK        -0.5000 
     55 C           2.9979  -14.1710  -42.9845 C.2       3 UNK         0.5000 
     56 O           2.1407  -15.0084  -42.6916 O.2       3 UNK        -0.5000 
     57 CA          2.6506  -12.6720  -42.9098 C.3       3 UNK         0.1400 
     58 CB          3.6054  -11.7602  -43.7117 C.3       3 UNK        -0.1800 
     59 N           1.2809  -12.4969  -43.3797 N.am      3 UNK        -0.5000 
     60 C           0.4512  -11.4989  -43.0674 C.2       2 UNK         0.5000 
     61 O           0.7744  -10.5442  -42.3581 O.2       2 UNK        -0.5000 
     62 CA         -0.9797  -11.5942  -43.6478 C.3       2 UNK         0.1400 
     63 CB         -1.8738  -10.4171  -43.2186 C.3       2 UNK        -0.1800 
     64 N          -1.0128  -11.6946  -45.1087 N.am      2 UNK        -0.5000 
     65 C          -0.6868  -12.7682  -45.8417 C.2       1 UNK         0.5000 
     66 O          -0.2671  -13.8152  -45.3433 O.2       1 UNK        -0.5000 
     67 C          -2.1421  -21.5820  -46.9888 C.2       11 UNK         0.5000 
     68 O          -2.9464  -22.0252  -47.8068 O.2       11 UNK        -0.5000 
     69 N          -2.4504  -21.3991  -45.6954 N.am      12 UNK        -0.5000 
     70 CA         -3.7368  -21.8076  -45.1186 C.3       12 UNK         0.1400 
     71 CB         -3.8820  -21.2862  -43.6827 C.3       12 UNK        -0.1800 
     72 C          -3.9157  -23.3365  -45.1772 C.2       12 UNK         0.5000 
     73 O          -4.9722  -23.8122  -45.5965 O.2       12 UNK        -0.5000 
     74 N          -2.8404  -24.0651  -44.8400 N.am      13 UNK        -0.5000 
     75 CA         -2.7252  -25.5171  -44.9800 C.3       13 UNK         0.1400 
     76 CB         -1.4319  -25.9853  -44.2971 C.3       13 UNK        -0.1800 
     77 C          -2.7702  -25.9984  -46.4447 C.2       13 UNK         0.5000 
     78 O          -3.2200  -27.1164  -46.6969 O.2       13 UNK        -0.5000 
     79 N          -2.3663  -25.1398  -47.3926 N.am      14 UNK        -0.5000 
     80 CA         -2.4501  -25.3569  -48.8407 C.3       14 UNK         0.1400 
     81 CB         -1.3640  -24.5218  -49.5463 C.3       14 UNK        -0.1800 
     82 C          -3.8667  -25.0648  -49.3858 C.2       14 UNK         0.5000 
     83 O          -4.0103  -24.3865  -50.4064 O.2       14 UNK        -0.5000 
     84 N          -4.8857  -25.5898  -48.6903 N.am      15 UNK        -0.5000 
     85 CA         -6.3170  -25.5095  -48.9909 C.3       15 UNK         0.1400 
     86 CB         -6.6403  -26.3650  -50.2344 C.3       15 UNK        -0.1800 
     87 C          -6.8284  -24.0592  -49.1083 C.2       15 UNK         0.5000 
     88 O          -7.5192  -23.7305  -50.0725 O.2       15 UNK        -0.5000 
     89 N          -6.4506  -23.2050  -48.1437 N.am      16 UNK        -0.5000 
     90 CA         -6.7365  -21.7628  -48.1090 C.3       16 UNK         0.1400 
     91 CB         -8.2373  -21.5060  -47.8599 C.3       16 UNK        -0.1800 
     92 C          -6.1902  -21.0325  -49.3561 C.2       16 UNK         0.5000 
     93 O          -6.9024  -20.2584  -49.9972 O.2       16 UNK        -0.5000 
     94 N          -4.9308  -21.3466  -49.6835 N.am      17 UNK        -0.5000 
     95 CA         -4.1321  -20.9042  -50.8261 C.3       17 UNK         0.1400 
     96 CB         -3.9604  -19.3731  -50.8316 C.3       17 UNK        -0.1800 
     97 C          -4.5929  -21.4415  -52.1965 C.2       17 UNK         0.5000 
     98 O          -3.9802  -21.0841  -53.2034 O.2       17 UNK        -0.5000 
     99 N          -5.6096  -22.3151  -52.2449 N.am      18 UNK        -0.5000 
    100 CA        -6.1065  -22.9113  -53.4879 C.3       18 UNK         0.1400 
    101 CB        -7.4621  -23.5892  -53.2467 C.3       18 UNK        -0.1800 
    102 C         -5.1128  -23.9014  -54.1219 C.2       18 UNK         0.5000 
    103 O         -5.0581  -23.9882  -55.3490 O.2       18 UNK        -0.5000 
    104 N         -4.3326  -24.6089  -53.2910 N.am      19 UNK        -0.5000 
    105 CA        -3.2679  -25.5038  -53.7499 C.3       19 UNK         0.1400 
    106 CB        -3.0585  -26.6315  -52.7281 C.3       19 UNK        -0.1800 
    107 C         -1.9537  -24.7459  -54.0183 C.2       19 UNK         0.5000 
    108 O         -1.1338  -25.2289  -54.7999 O.2       19 UNK        -0.5000 
    109 N         -1.7782  -23.5731  -53.3886 N.am      20 UNK        -0.5000 
    110 CA        -0.6736  -22.6492  -53.6599 C.3       20 UNK         0.1400 
    111 CB        -0.5531  -21.6251  -52.5202 C.3       20 UNK        -0.1800 
    112 C         -0.8566  -21.9530  -55.0216 C.2       20 UNK         0.5000 
    113 O          0.0933  -21.8787  -55.8018 O.2       20 UNK        -0.5000 
    114 N         -2.0919  -21.5028  -55.2874 N.am      21 UNK        -0.5000 
    115 CA        -2.6616  -20.9958  -56.5411 C.3       21 UNK         0.1400 
    116 CB        -2.6221  -22.0784  -57.6359 C.3       21 UNK        -0.1800 
    117 C         -2.0860  -19.6653  -57.0646 C.2       21 UNK         0.5000 
    118 O         -2.8588  -18.8368  -57.5470 O.2       21 UNK        -0.5000 
    119 N         -0.7628  -19.4812  -56.9757 N.am      22 UNK        -0.5000 
    120 CA         0.0006  -18.3265  -57.4884 C.3       22 UNK         0.1400 
    121 C          0.0026  -18.1951  -59.0456 C.2       22 UNK         0.5000 
    122 N         -0.3140  -19.2418  -59.7987 N.am      22 UNK        -0.7600 
    123 O          0.3293  -17.1429  -59.5889 O.2       22 UNK        -0.5000 
    124 C124       -0.3574  -16.9924  -56.7697 C.3       23 UNK        -0.0398 
    125 S125        0.1862  -16.9544  -55.0293 S.3       23 UNK        -0.2404 
    126 C126       -1.3043  -17.5169  -54.1489 C.3       23 UNK        -0.0205 
    127 H127       -1.8694   -9.0231  -48.6973 H         1 UNK         0.0600 
    128 H128       -0.6260   -8.2108  -47.7415 H         1 UNK         0.0600 
    129 H129       -0.2756   -8.7236  -49.3957 H         1 UNK         0.0600 
    130 H130       -2.1464  -11.1585  -48.1094 H         1 UNK         0.3000 
    131 H131        0.0736  -12.9730  -47.8253 H         1 UNK         0.0600 
    132 H132       -2.8819  -13.5635  -47.3023 H         1 UNK         0.0800 
    133 H133       -1.5990  -14.7177  -47.5838 H         1 UNK         0.0800 
    134 H134       -3.8995  -15.2292  -50.5046 H         1 UNK         0.0800 
    135 H135       -3.3117  -15.7801  -48.9619 H         1 UNK         0.0800 
    136 H136       -2.8678  -15.9425  -52.5554 H         1 UNK         0.1150 
    137 H137        0.5331  -18.5488  -52.4209 H         1 UNK         0.1150 
    138 H138       -0.9370  -16.7454  -48.8202 H         1 UNK         0.1150 
    139 H139        2.0072  -18.2174  -50.3390 H         1 UNK         0.0800 
    140 H140        1.2444  -17.8200  -48.8257 H         1 UNK         0.0800 
    141 H141       -0.6545  -19.1274  -47.7584 H         1 UNK         0.0800 
    142 H142       -1.5147  -19.9817  -49.0197 H         1 UNK         0.0800 
    143 H143       -0.4385  -22.1409  -48.0868 H         1 UNK         0.0600 
    144 H144        0.4923  -20.3231  -45.9775 H         1 UNK         0.3000 
    145 H145        1.9149  -23.1049  -44.1511 H         1 UNK         0.0600 
    146 H146        3.6644  -21.3621  -44.0480 H         1 UNK         0.0600 
    147 H147        3.5512  -22.0109  -45.6768 H         1 UNK         0.0600 
    148 H148        2.8666  -20.4339  -45.3132 H         1 UNK         0.0600 
    149 H149        1.4066  -20.4735  -43.2514 H         1 UNK         0.3000 
    150 H150       -1.5915  -20.4323  -42.2051 H         1 UNK         0.0600 
    151 H151       -1.8880  -22.4107  -40.7908 H         1 UNK         0.0600 
    152 H152       -1.5737  -21.0135  -39.7768 H         1 UNK         0.0600 
    153 H153       -0.3008  -22.1988  -40.0715 H         1 UNK         0.0600 
    154 H154       -0.2765  -18.8199  -41.6534 H         1 UNK         0.3000 
    155 H155        1.9354  -18.2212  -39.2999 H         1 UNK         0.0600 
    156 H156        3.9542  -18.9273  -40.5432 H         1 UNK         0.0600 
    157 H157        3.7245  -17.1935  -40.6932 H         1 UNK         0.0600 
    158 H158        3.2997  -18.2660  -42.0343 H         1 UNK         0.0600 
    159 H159        1.3513  -16.7476  -41.7563 H         1 UNK         0.3000 
    160 H160       -1.9428  -15.8797  -40.8180 H         1 UNK         0.0600 
    161 H161        0.4735  -14.0215  -41.0450 H         1 UNK         0.0600 
    162 H162       -1.2249  -13.5772  -41.2343 H         1 UNK         0.0600 
    163 H163       -0.6233  -14.1174  -39.6824 H         1 UNK         0.0600 
    164 H164       -0.2464  -15.3166  -43.1061 H         1 UNK         0.3000 
    165 H165       -1.3632  -18.2009  -44.9246 H         1 UNK         0.0600 
    166 H166       -2.4525  -16.6332  -46.4713 H         1 UNK         0.0600 
    167 H167       -3.4185  -16.8457  -45.0237 H         1 UNK         0.0600 
    168 H168       -2.4774  -15.3762  -45.2287 H         1 UNK         0.0600 
    169 H169        0.0214  -15.5906  -45.3486 H         1 UNK         0.3000 
    170 H170        2.6917  -17.4481  -46.9269 H         1 UNK         0.0600 
    171 H171        0.7817  -15.7918  -47.8183 H         1 UNK         0.0600 
    172 H172        1.6397  -14.6043  -46.8586 H         1 UNK         0.0600 
    173 H173        2.4720  -15.4582  -48.1405 H         1 UNK         0.0600 
    174 H174        3.0870  -15.0820  -45.3373 H         1 UNK         0.3000 
    175 H175        4.7133  -16.3559  -42.6327 H         1 UNK         0.0600 
    176 H176        6.3099  -15.2609  -45.0037 H         1 UNK         0.0600 
    177 H177        6.8126  -15.2387  -43.3124 H         1 UNK         0.0600 
    178 H178        6.6457  -16.7673  -44.1590 H         1 UNK         0.0600 
    179 H179        4.8586  -13.7501  -43.6546 H         1 UNK         0.3000 
    180 H180        2.6990  -12.3932  -41.8554 H         1 UNK         0.0600 
    181 H181        4.6262  -11.8161  -43.3323 H         1 UNK         0.0600 
    182 H182        3.6211  -12.0245  -44.7700 H         1 UNK         0.0600 
    183 H183        3.3037  -10.7151  -43.6403 H         1 UNK         0.0600 
    184 H184        0.9215  -13.2379  -43.9741 H         1 UNK         0.3000 
    185 H185       -1.4263  -12.5049  -43.2465 H         1 UNK         0.0600 
    186 H186       -1.9248  -10.3390  -42.1318 H         1 UNK         0.0600 
    187 H187       -1.4987   -9.4668  -43.6007 H         1 UNK         0.0600 
    188 H188       -2.8945  -10.5447  -43.5797 H         1 UNK         0.0600 
    189 H189       -1.3167  -10.8695  -45.6039 H         1 UNK         0.3000 
    190 H190       -1.7355  -21.0709  -45.0652 H         1 UNK         0.3000 
    191 H191       -4.5248  -21.3479  -45.7156 H         1 UNK         0.0600 
    192 H192       -4.9071  -21.4131  -43.3331 H         1 UNK         0.0600 
    193 H193       -3.6461  -20.2238  -43.6153 H         1 UNK         0.0600 
    194 H194       -3.2418  -21.8282  -42.9883 H         1 UNK         0.0600 
    195 H195       -2.0252  -23.5886  -44.4658 H         1 UNK         0.3000 
    196 H196       -3.5710  -25.9705  -44.4593 H         1 UNK         0.0600 
    197 H197       -1.3268  -27.0693  -44.3567 H         1 UNK         0.0600 
    198 H198       -1.4237  -25.7147  -43.2410 H         1 UNK         0.0600 
    199 H199       -0.5499  -25.5424  -44.7613 H         1 UNK         0.0600 
    200 H200       -2.0554  -24.2258  -47.0987 H         1 UNK         0.3000 
    201 H201       -2.2382  -26.4081  -49.0455 H         1 UNK         0.0600 
    202 H202       -0.3930  -24.6390  -49.0645 H         1 UNK         0.0600 
    203 H203       -1.6108  -23.4613  -49.5579 H         1 UNK         0.0600 
    204 H204       -1.2465  -24.8292  -50.5851 H         1 UNK         0.0600 
    205 H205       -4.6410  -26.1334  -47.8708 H         1 UNK         0.3000 
    206 H206       -6.8396  -25.9489  -48.1403 H         1 UNK         0.0600 
    207 H207       -6.3198  -27.3973  -50.0949 H         1 UNK         0.0600 
    208 H208       -7.7127  -26.3833  -50.4318 H         1 UNK         0.0600 
    209 H209       -6.1480  -25.9825  -51.1288 H         1 UNK         0.0600 
    210 H210       -5.8766  -23.5578  -47.3833 H         1 UNK         0.3000 
    211 H211       -6.1932  -21.3574  -47.2567 H         1 UNK         0.0600 
    212 H212       -8.8532  -21.8445  -48.6936 H         1 UNK         0.0600 
    213 H213       -8.4324  -20.4420  -47.7217 H         1 UNK         0.0600 
    214 H214       -8.5798  -22.0178  -46.9606 H         1 UNK         0.0600 
    215 H215       -4.4287  -21.9692  -49.0563 H         1 UNK         0.3000 
    216 H216       -3.1452  -21.3387  -50.6618 H         1 UNK         0.0600 
    217 H217       -4.8899  -18.8592  -51.0766 H         1 UNK         0.0600 
    218 H218       -3.2195  -19.0730  -51.5722 H         1 UNK         0.0600 
    219 H219       -3.6173  -19.0058  -49.8647 H         1 UNK         0.0600 
    220 H220       -6.0611  -22.6005  -51.3844 H         1 UNK         0.3000 
    221 H221       -6.2645  -22.1010  -54.2030 H         1 UNK         0.0600 
    222 H222       -7.3670  -24.4628  -52.6023 H         1 UNK         0.0600 
    223 H223       -8.1722  -22.9037  -52.7836 H         1 UNK         0.0600 
    224 H224       -7.8997  -23.9263  -54.1870 H         1 UNK         0.0600 
    225 H225       -4.4159  -24.4741  -52.2859 H         1 UNK         0.3000 
    226 H226       -3.5751  -25.9698  -54.6887 H         1 UNK         0.0600 
    227 H227       -3.9949  -27.1428  -52.5039 H         1 UNK         0.0600 
    228 H228       -2.3637  -27.3781  -53.1144 H         1 UNK         0.0600 
    229 H229       -2.6452  -26.2612  -51.7927 H         1 UNK         0.0600 
    230 H230       -2.5106  -23.2483  -52.7761 H         1 UNK         0.3000 
    231 H231        0.2543  -23.2240  -53.6943 H         1 UNK         0.0600 
    232 H232       -1.4095  -20.9530  -52.4747 H         1 UNK         0.0600 
    233 H233       -0.4608  -22.1180  -51.5523 H         1 UNK         0.0600 
    234 H234        0.3349  -21.0065  -52.6528 H         1 UNK         0.0600 
    235 H235       -2.7629  -21.5285  -54.5223 H         1 UNK         0.3000 
    236 H236       -3.7121  -20.8054  -56.3146 H         1 UNK         0.0600 
    237 H237       -3.1212  -22.9892  -57.3042 H         1 UNK         0.0600 
    238 H238       -3.1316  -21.7394  -58.5387 H         1 UNK         0.0600 
    239 H239       -1.6010  -22.3393  -57.9151 H         1 UNK         0.0600 
    240 H240       -0.2169  -20.2427  -56.5795 H         1 UNK         0.3000 
    241 H241        1.0418  -18.5466  -57.2504 H         1 UNK         0.0600 
    242 H242       -0.2988  -19.1533  -60.8028 H         1 UNK         0.3800 
    243 H243       -0.5633  -20.1212  -59.3759 H         1 UNK         0.3800 
    244 H244       -1.4227  -16.7722  -56.8396 H         1 UNK         0.0800 
    245 H245        0.1447  -16.1513  -57.2497 H         1 UNK         0.0800 
    246 H246       -2.1798  -17.0049  -54.5507 H         1 UNK         0.0800 
    247 H247       -1.4542  -18.5820  -54.3276 H         1 UNK         0.0800 
@<TRIPOS>BOND
     1    1    2 1    
     2    1  127 1    
     3    1  128 1    
     4    1  129 1    
     5    2    3 2    
     6    2    4 am   BACKBONE|DICT|INTERRES
     7    4    5 1    
     8    4  130 1    
     9    5    6 1    
    10    5   65 1    
    11    5  131 1    
    12    6    7 1    
    13    6  132 1    
    14    6  133 1    
    15    7    8 1    
    16    8    9 1    
    17    8  134 1    
    18    8  135 1    
    19    9   10 ar   
    20    9   14 ar   
    21   10   11 ar   
    22   10  136 1    
    23   11   12 ar   
    24   11  126 1    
    25   12   13 ar   
    26   12  137 1    
    27   13   14 ar   
    28   13   15 1    
    29   14  138 1    
    30   15   16 1    
    31   15  139 1    
    32   15  140 1    
    33   16   17 1    
    34   17   18 1    
    35   17  141 1    
    36   17  142 1    
    37   18   19 1    
    38   18   67 1    
    39   18  143 1    
    40   19   20 am   BACKBONE|DICT|INTERRES
    41   19  144 1    
    42   20   21 2    
    43   20   22 1    
    44   22   23 1    
    45   22   24 1    
    46   22  145 1    
    47   23  146 1    
    48   23  147 1    
    49   23  148 1    
    50   24   25 am   BACKBONE|DICT|INTERRES
    51   24  149 1    
    52   25   26 2    
    53   25   27 1    
    54   27   28 1    
    55   27   29 1    
    56   27  150 1    
    57   28  151 1    
    58   28  152 1    
    59   28  153 1    
    60   29   30 am   BACKBONE|DICT|INTERRES
    61   29  154 1    
    62   30   31 2    
    63   30   32 1    
    64   32   33 1    
    65   32   34 1    
    66   32  155 1    
    67   33  156 1    
    68   33  157 1    
    69   33  158 1    
    70   34   35 am   BACKBONE|DICT|INTERRES
    71   34  159 1    
    72   35   36 2    
    73   35   37 1    
    74   37   38 1    
    75   37   39 1    
    76   37  160 1    
    77   38  161 1    
    78   38  162 1    
    79   38  163 1    
    80   39   40 am   BACKBONE|DICT|INTERRES
    81   39  164 1    
    82   40   41 2    
    83   40   42 1    
    84   42   43 1    
    85   42   44 1    
    86   42  165 1    
    87   43  166 1    
    88   43  167 1    
    89   43  168 1    
    90   44   45 am   BACKBONE|DICT|INTERRES
    91   44  169 1    
    92   45   46 2    
    93   45   47 1    
    94   47   48 1    
    95   47   49 1    
    96   47  170 1    
    97   48  171 1    
    98   48  172 1    
    99   48  173 1    
   100   49   50 am   BACKBONE|DICT|INTERRES
   101   49  174 1    
   102   50   51 2    
   103   50   52 1    
   104   52   53 1    
   105   52   54 1    
   106   52  175 1    
   107   53  176 1    
   108   53  177 1    
   109   53  178 1    
   110   54   55 am   BACKBONE|DICT|INTERRES
   111   54  179 1    
   112   55   56 2    
   113   55   57 1    
   114   57   58 1    
   115   57   59 1    
   116   57  180 1    
   117   58  181 1    
   118   58  182 1    
   119   58  183 1    
   120   59   60 am   BACKBONE|DICT|INTERRES
   121   59  184 1    
   122   60   61 2    
   123   60   62 1    
   124   62   63 1    
   125   62   64 1    
   126   62  185 1    
   127   63  186 1    
   128   63  187 1    
   129   63  188 1    
   130   64   65 am   BACKBONE|DICT|INTERRES
   131   64  189 1    
   132   65   66 2    
   133   67   68 2    
   134   67   69 am   BACKBONE|DICT|INTERRES
   135   69   70 1    
   136   69  190 1    
   137   70   71 1    
   138   70   72 1    
   139   70  191 1    
   140   71  192 1    
   141   71  193 1    
   142   71  194 1    
   143   72   73 2    
   144   72   74 am   BACKBONE|DICT|INTERRES
   145   74   75 1    
   146   74  195 1    
   147   75   76 1    
   148   75   77 1    
   149   75  196 1    
   150   76  197 1    
   151   76  198 1    
   152   76  199 1    
   153   77   78 2    
   154   77   79 am   BACKBONE|DICT|INTERRES
   155   79   80 1    
   156   79  200 1    
   157   80   81 1    
   158   80   82 1    
   159   80  201 1    
   160   81  202 1    
   161   81  203 1    
   162   81  204 1    
   163   82   83 2    
   164   82   84 am   BACKBONE|DICT|INTERRES
   165   84   85 1    
   166   84  205 1    
   167   85   86 1    
   168   85   87 1    
   169   85  206 1    
   170   86  207 1    
   171   86  208 1    
   172   86  209 1    
   173   87   88 2    
   174   87   89 am   BACKBONE|DICT|INTERRES
   175   89   90 1    
   176   89  210 1    
   177   90   91 1    
   178   90   92 1    
   179   90  211 1    
   180   91  212 1    
   181   91  213 1    
   182   91  214 1    
   183   92   93 2    
   184   92   94 am   BACKBONE|DICT|INTERRES
   185   94   95 1    
   186   94  215 1    
   187   95   96 1    
   188   95   97 1    
   189   95  216 1    
   190   96  217 1    
   191   96  218 1    
   192   96  219 1    
   193   97   98 2    
   194   97   99 am   BACKBONE|DICT|INTERRES
   195   99  100 1    
   196   99  220 1    
   197  100  101 1    
   198  100  102 1    
   199  100  221 1    
   200  101  222 1    
   201  101  223 1    
   202  101  224 1    
   203  102  103 2    
   204  102  104 am   BACKBONE|DICT|INTERRES
   205  104  105 1    
   206  104  225 1    
   207  105  106 1    
   208  105  107 1    
   209  105  226 1    
   210  106  227 1    
   211  106  228 1    
   212  106  229 1    
   213  107  108 2    
   214  107  109 am   BACKBONE|DICT|INTERRES
   215  109  110 1    
   216  109  230 1    
   217  110  111 1    
   218  110  112 1    
   219  110  231 1    
   220  111  232 1    
   221  111  233 1    
   222  111  234 1    
   223  112  113 2    
   224  112  114 am   BACKBONE|DICT|INTERRES
   225  114  115 1    
   226  114  235 1    
   227  115  116 1    
   228  115  117 1    
   229  115  236 1    
   230  116  237 1    
   231  116  238 1    
   232  116  239 1    
   233  117  118 2    
   234  117  119 am   BACKBONE|DICT|INTERRES
   235  119  120 1    
   236  119  240 1    
   237  120  121 1    
   238  120  124 1    
   239  120  241 1    
   240  121  122 am   BACKBONE|DICT|INTERRES
   241  121  123 2    
   242  122  242 1    
   243  122  243 1    
   244  124  125 1    
   245  124  244 1    
   246  124  245 1    
   247  125  126 1    
   248  126  246 1    
   249  126  247 1    
@<TRIPOS>SUBSTRUCTURE
     1 UNK         1 GROUP             0       ****    0 ROOT    
