@<TRIPOS>MOLECULE
3R540
247   249    1
SMALL
USER_CHARGES


@<TRIPOS>ATOM
      1 CA          4.8999  -16.9735  -47.5382 C.3       0 UNK        -0.1800 
      2 C           3.7119  -16.0634  -47.8156 C.2       0 UNK         0.5000 
      3 O           3.8715  -15.0352  -48.4728 O.2       0 UNK        -0.5000 
      4 N           2.5262  -16.4473  -47.3216 N.am      1 UNK        -0.5000 
      5 CA          1.2379  -15.7536  -47.4955 C.3       1 UNK         0.1400 
      6 C6          0.7424  -15.7092  -48.9685 C.3       23 UNK        -0.0398 
      7 S7          0.6336  -17.3640  -49.7334 S.3       23 UNK        -0.2404 
      8 C8          1.9746  -17.2670  -50.9588 C.3       23 UNK        -0.0205 
      9 C9          2.0717  -18.5469  -51.7716 C.ar      23 UNK        -0.0193 
     10 C10         1.3052  -18.6976  -52.9298 C.ar      23 UNK        -0.1150 
     11 C11         1.3653  -19.8776  -53.6752 C.ar      23 UNK        -0.0193 
     12 C12         2.2221  -20.9041  -53.2660 C.ar      23 UNK        -0.1150 
     13 C13         3.0088  -20.7594  -52.1176 C.ar      23 UNK        -0.0193 
     14 C14         2.9261  -19.5791  -51.3716 C.ar      23 UNK        -0.1150 
     15 C15         3.9630  -21.8711  -51.7044 C.3       23 UNK        -0.0205 
     16 S16         3.1539  -23.1192  -50.6549 S.3       23 UNK        -0.2404 
     17 C17         3.4936  -22.4749  -48.9811 C.3       23 UNK        -0.0398 
     18 CA          2.6102  -23.1513  -47.9023 C.3       11 UNK         0.1400 
     19 N           3.2137  -23.0906  -46.5657 N.am      11 UNK        -0.5000 
     20 C           2.8223  -23.8588  -45.5377 C.2       10 UNK         0.5000 
     21 O           1.9520  -24.7250  -45.6244 O.2       10 UNK        -0.5000 
     22 CA          3.4945  -23.5999  -44.1774 C.3       10 UNK         0.1400 
     23 CB          4.8467  -24.3246  -44.0947 C.3       10 UNK        -0.1800 
     24 N           3.6838  -22.1793  -43.8688 N.am      10 UNK        -0.5000 
     25 C           2.6911  -21.2955  -43.7007 C.2       9 UNK         0.5000 
     26 O           1.5002  -21.5589  -43.8869 O.2       9 UNK        -0.5000 
     27 CA          3.1093  -19.8794  -43.2686 C.3       9 UNK         0.1400 
     28 CB          3.5048  -19.0246  -44.4832 C.3       9 UNK        -0.1800 
     29 N           2.0071  -19.2314  -42.5603 N.am      9 UNK        -0.5000 
     30 C           1.8782  -19.1783  -41.2304 C.2       8 UNK         0.5000 
     31 O           2.7425  -19.5704  -40.4444 O.2       8 UNK        -0.5000 
     32 CA          0.5525  -18.6243  -40.6714 C.3       8 UNK         0.1400 
     33 CB          0.4482  -17.0947  -40.8466 C.3       8 UNK        -0.1800 
     34 N          -0.6408  -19.3195  -41.1749 N.am      8 UNK        -0.5000 
     35 C          -1.1616  -19.2962  -42.4098 C.2       7 UNK         0.5000 
     36 O          -0.6718  -18.6584  -43.3427 O.2       7 UNK        -0.5000 
     37 CA         -2.4514  -20.0998  -42.6544 C.3       7 UNK         0.1400 
     38 CB         -3.0608  -20.7525  -41.3946 C.3       7 UNK        -0.1800 
     39 N          -3.4101  -19.1963  -43.2728 N.am      7 UNK        -0.5000 
     40 C          -4.4320  -19.5316  -44.0695 C.2       6 UNK         0.5000 
     41 O          -4.7778  -20.6933  -44.2849 O.2       6 UNK        -0.5000 
     42 CA         -5.2157  -18.3733  -44.7294 C.3       6 UNK         0.1400 
     43 CB         -6.5804  -18.1846  -44.0499 C.3       6 UNK        -0.1800 
     44 N          -4.4876  -17.1031  -44.6822 N.am      6 UNK        -0.5000 
     45 C          -3.4295  -16.8060  -45.4461 C.2       5 UNK         0.5000 
     46 O          -3.1175  -17.4625  -46.4388 O.2       5 UNK        -0.5000 
     47 CA         -2.5682  -15.5843  -45.0556 C.3       5 UNK         0.1400 
     48 CB         -2.5028  -14.5759  -46.2129 C.3       5 UNK        -0.1800 
     49 N          -2.9608  -14.8604  -43.8402 N.am      5 UNK        -0.5000 
     50 C          -2.9931  -15.3318  -42.5873 C.2       4 UNK         0.5000 
     51 O          -2.8501  -16.5188  -42.2986 O.2       4 UNK        -0.5000 
     52 CA         -3.1985  -14.2835  -41.4761 C.3       4 UNK         0.1400 
     53 CB         -3.5847  -14.9211  -40.1294 C.3       4 UNK        -0.1800 
     54 N          -1.9784  -13.4998  -41.2924 N.am      4 UNK        -0.5000 
     55 C          -1.5458  -12.5336  -42.1125 C.2       3 UNK         0.5000 
     56 O          -2.2033  -12.1094  -43.0660 O.2       3 UNK        -0.5000 
     57 CA         -0.1411  -11.9493  -41.8497 C.3       3 UNK         0.1400 
     58 CB          0.5655  -12.5236  -40.5993 C.3       3 UNK        -0.1800 
     59 N           0.7240  -12.0757  -43.0283 N.am      3 UNK        -0.5000 
     60 C           1.0676  -13.2096  -43.6570 C.2       2 UNK         0.5000 
     61 O           0.7025  -14.3350  -43.3078 O.2       2 UNK        -0.5000 
     62 CA          2.0184  -13.0528  -44.8556 C.3       2 UNK         0.1400 
     63 CB          3.4668  -12.8798  -44.3700 C.3       2 UNK        -0.1800 
     64 N           1.9591  -14.2385  -45.7058 N.am      2 UNK        -0.5000 
     65 C           1.2211  -14.3630  -46.8154 C.2       1 UNK         0.5000 
     66 O           0.5523  -13.4450  -47.2930 O.2       1 UNK        -0.5000 
     67 C           1.1873  -22.5608  -47.8886 C.2       11 UNK         0.5000 
     68 O           0.2677  -23.1570  -48.4481 O.2       11 UNK        -0.5000 
     69 N           1.0293  -21.4201  -47.2030 N.am      12 UNK        -0.5000 
     70 CA         -0.2050  -20.6379  -47.1043 C.3       12 UNK         0.1400 
     71 CB          0.1121  -19.3138  -46.4088 C.3       12 UNK        -0.1800 
     72 C          -1.3779  -21.3620  -46.4170 C.2       12 UNK         0.5000 
     73 O          -2.5229  -20.9669  -46.6152 O.2       12 UNK        -0.5000 
     74 N          -1.0928  -22.4366  -45.6688 N.am      13 UNK        -0.5000 
     75 CA         -2.0956  -23.3629  -45.1395 C.3       13 UNK         0.1400 
     76 CB         -1.4101  -24.3391  -44.1728 C.3       13 UNK        -0.1800 
     77 C          -2.8665  -24.1249  -46.2409 C.2       13 UNK         0.5000 
     78 O          -4.0125  -24.5124  -46.0108 O.2       13 UNK        -0.5000 
     79 N          -2.2398  -24.3113  -47.4114 N.am      14 UNK        -0.5000 
     80 CA         -2.8658  -24.8382  -48.6238 C.3       14 UNK         0.1400 
     81 CB         -1.9466  -25.8985  -49.2510 C.3       14 UNK        -0.1800 
     82 C          -3.1382  -23.6960  -49.6163 C.2       14 UNK         0.5000 
     83 O          -4.2417  -23.5973  -50.1539 O.2       14 UNK        -0.5000 
     84 N          -2.1374  -22.8314  -49.8217 N.am      15 UNK        -0.5000 
     85 CA         -2.1710  -21.6419  -50.6710 C.3       15 UNK         0.1400 
     86 CB         -0.7239  -21.2990  -51.0689 C.3       15 UNK        -0.1800 
     87 C          -2.8837  -20.4601  -49.9805 C.2       15 UNK         0.5000 
     88 O          -2.3038  -19.3804  -49.8529 O.2       15 UNK        -0.5000 
     89 N          -4.1133  -20.6957  -49.5039 N.am      16 UNK        -0.5000 
     90 CA         -4.9094  -19.7652  -48.7042 C.3       16 UNK         0.1400 
     91 CB         -6.2397  -20.4305  -48.3212 C.3       16 UNK        -0.1800 
     92 C          -5.1360  -18.4278  -49.4273 C.2       16 UNK         0.5000 
     93 O          -5.7661  -18.4072  -50.4859 O.2       16 UNK        -0.5000 
     94 N          -4.5644  -17.3543  -48.8647 N.am      17 UNK        -0.5000 
     95 CA         -4.5327  -15.9856  -49.3905 C.3       17 UNK         0.1400 
     96 CB         -5.9428  -15.3619  -49.3507 C.3       17 UNK        -0.1800 
     97 C          -3.8618  -15.8734  -50.7785 C.2       17 UNK         0.5000 
     98 O          -4.2200  -14.9907  -51.5597 O.2       17 UNK        -0.5000 
     99 N          -2.9164  -16.7838  -51.0633 N.am      18 UNK        -0.5000 
    100 CA        -2.2348  -16.9908  -52.3460 C.3       18 UNK         0.1400 
    101 CB        -1.3762  -15.7663  -52.7286 C.3       18 UNK        -0.1800 
    102 C         -3.1832  -17.4443  -53.4797 C.2       18 UNK         0.5000 
    103 O         -2.8685  -17.2547  -54.6560 O.2       18 UNK        -0.5000 
    104 N         -4.3195  -18.0443  -53.1068 N.am      19 UNK        -0.5000 
    105 CA        -5.2977  -18.6678  -53.9888 C.3       19 UNK         0.1400 
    106 CB        -6.6206  -17.8816  -53.9001 C.3       19 UNK        -0.1800 
    107 C         -5.4234  -20.1497  -53.5881 C.2       19 UNK         0.5000 
    108 O         -4.4165  -20.7598  -53.2222 O.2       19 UNK        -0.5000 
    109 N         -6.6380  -20.7138  -53.6717 N.am      20 UNK        -0.5000 
    110 CA        -6.9946  -22.0934  -53.3205 C.3       20 UNK         0.1400 
    111 CB        -6.9574  -22.2822  -51.7889 C.3       20 UNK        -0.1800 
    112 C         -6.1478  -23.1187  -54.1023 C.2       20 UNK         0.5000 
    113 O         -6.3875  -23.2996  -55.2982 O.2       20 UNK        -0.5000 
    114 N         -5.1490  -23.7279  -53.4450 N.am      21 UNK        -0.5000 
    115 CA        -4.1882  -24.6636  -54.0390 C.3       21 UNK         0.1400 
    116 CB        -3.2555  -25.1933  -52.9404 C.3       21 UNK        -0.1800 
    117 C         -3.3607  -24.0776  -55.2027 C.2       21 UNK         0.5000 
    118 O         -2.8895  -24.8429  -56.0452 O.2       21 UNK        -0.5000 
    119 N         -3.2153  -22.7464  -55.2470 N.am      22 UNK        -0.5000 
    120 CA        -2.5769  -22.0130  -56.3540 C.3       22 UNK         0.1400 
    121 C         -3.4327  -21.9509  -57.6551 C.2       22 UNK         0.5000 
    122 N         -4.7075  -22.3276  -57.6428 N.am      22 UNK        -0.7600 
    123 O         -2.9268  -21.5546  -58.7014 O.2       22 UNK        -0.5000 
    124 C124       -2.1295  -20.5871  -55.9393 C.3       23 UNK        -0.0398 
    125 S125       -1.1877  -20.5611  -54.3815 S.3       23 UNK        -0.2404 
    126 C126        0.4752  -20.0476  -54.8973 C.3       23 UNK        -0.0205 
    127 H127        5.3976  -17.2339  -48.4749 H         1 UNK         0.0600 
    128 H128        4.5964  -17.9010  -47.0475 H         1 UNK         0.0600 
    129 H129        5.6214  -16.4641  -46.8950 H         1 UNK         0.0600 
    130 H130        2.4786  -17.3069  -46.7967 H         1 UNK         0.3000 
    131 H131        0.5085  -16.3410  -46.9359 H         1 UNK         0.0600 
    132 H132       -0.2565  -15.2728  -49.0184 H         1 UNK         0.0800 
    133 H133        1.3813  -15.0620  -49.5709 H         1 UNK         0.0800 
    134 H134        2.9212  -17.0731  -50.4540 H         1 UNK         0.0800 
    135 H135        1.7989  -16.4193  -51.6229 H         1 UNK         0.0800 
    136 H136        0.6406  -17.9051  -53.2398 H         1 UNK         0.1150 
    137 H137        2.2708  -21.8209  -53.8366 H         1 UNK         0.1150 
    138 H138        3.5269  -19.4608  -50.4812 H         1 UNK         0.1150 
    139 H139        4.3472  -22.3669  -52.5971 H         1 UNK         0.0800 
    140 H140        4.8348  -21.4589  -51.1939 H         1 UNK         0.0800 
    141 H141        3.3834  -21.3892  -48.9671 H         1 UNK         0.0800 
    142 H142        4.5466  -22.6738  -48.7766 H         1 UNK         0.0800 
    143 H143        2.5194  -24.2095  -48.1594 H         1 UNK         0.0600 
    144 H144        3.9434  -22.4100  -46.4138 H         1 UNK         0.3000 
    145 H145        2.8410  -24.0180  -43.4085 H         1 UNK         0.0600 
    146 H146        5.2814  -24.2363  -43.0989 H         1 UNK         0.0600 
    147 H147        4.7327  -25.3893  -44.3039 H         1 UNK         0.0600 
    148 H148        5.5645  -23.9243  -44.8117 H         1 UNK         0.0600 
    149 H149        4.6353  -21.8811  -43.7079 H         1 UNK         0.3000 
    150 H150        3.9795  -19.9608  -42.6137 H         1 UNK         0.0600 
    151 H151        4.3460  -19.4692  -45.0164 H         1 UNK         0.0600 
    152 H152        3.8105  -18.0245  -44.1747 H         1 UNK         0.0600 
    153 H153        2.6872  -18.9170  -45.1924 H         1 UNK         0.0600 
    154 H154        1.1930  -18.9725  -43.1128 H         1 UNK         0.3000 
    155 H155        0.5645  -18.8184  -39.5976 H         1 UNK         0.0600 
    156 H156        0.4576  -16.7963  -41.8955 H         1 UNK         0.0600 
    157 H157        1.2839  -16.5894  -40.3611 H         1 UNK         0.0600 
    158 H158       -0.4696  -16.7093  -40.4019 H         1 UNK         0.0600 
    159 H159       -1.1168  -19.8873  -40.4881 H         1 UNK         0.3000 
    160 H160       -2.1943  -20.8830  -43.3685 H         1 UNK         0.0600 
    161 H161       -3.9591  -21.3185  -41.6423 H         1 UNK         0.0600 
    162 H162       -3.3380  -20.0073  -40.6472 H         1 UNK         0.0600 
    163 H163       -2.3645  -21.4549  -40.9350 H         1 UNK         0.0600 
    164 H164       -3.1935  -18.2109  -43.1374 H         1 UNK         0.3000 
    165 H165       -5.3884  -18.6428  -45.7726 H         1 UNK         0.0600 
    166 H166       -7.1620  -17.4051  -44.5426 H         1 UNK         0.0600 
    167 H167       -7.1676  -19.1028  -44.0922 H         1 UNK         0.0600 
    168 H168       -6.4720  -17.9119  -42.9994 H         1 UNK         0.0600 
    169 H169       -4.6688  -16.5101  -43.8858 H         1 UNK         0.3000 
    170 H170       -1.5591  -15.9646  -44.8822 H         1 UNK         0.0600 
    171 H171       -2.0915  -15.0345  -47.1128 H         1 UNK         0.0600 
    172 H172       -3.4903  -14.1845  -46.4596 H         1 UNK         0.0600 
    173 H173       -1.8614  -13.7304  -45.9628 H         1 UNK         0.0600 
    174 H174       -3.0427  -13.8553  -43.9417 H         1 UNK         0.3000 
    175 H175       -4.0116  -13.6209  -41.7802 H         1 UNK         0.0600 
    176 H176       -2.7998  -15.5776  -39.7513 H         1 UNK         0.0600 
    177 H177       -3.7763  -14.1591  -39.3738 H         1 UNK         0.0600 
    178 H178       -4.4929  -15.5173  -40.2266 H         1 UNK         0.0600 
    179 H179       -1.3562  -13.8135  -40.5622 H         1 UNK         0.3000 
    180 H180       -0.2854  -10.8807  -41.6839 H         1 UNK         0.0600 
    181 H181        0.7430  -13.5969  -40.6796 H         1 UNK         0.0600 
    182 H182       -0.0216  -12.3470  -39.6972 H         1 UNK         0.0600 
    183 H183        1.5323  -12.0435  -40.4467 H         1 UNK         0.0600 
    184 H184        1.0591  -11.2011  -43.4073 H         1 UNK         0.3000 
    185 H185        1.7290  -12.1653  -45.4224 H         1 UNK         0.0600 
    186 H186        3.5719  -11.9855  -43.7545 H         1 UNK         0.0600 
    187 H187        3.7961  -13.7305  -43.7718 H         1 UNK         0.0600 
    188 H188        4.1534  -12.7763  -45.2107 H         1 UNK         0.0600 
    189 H189        2.4358  -15.0560  -45.3552 H         1 UNK         0.3000 
    190 H190        1.8274  -21.0457  -46.7147 H         1 UNK         0.3000 
    191 H191       -0.5283  -20.4032  -48.1174 H         1 UNK         0.0600 
    192 H192       -0.7768  -18.6891  -46.3226 H         1 UNK         0.0600 
    193 H193        0.8559  -18.7510  -46.9690 H         1 UNK         0.0600 
    194 H194        0.4950  -19.4850  -45.4057 H         1 UNK         0.0600 
    195 H195       -0.1216  -22.6700  -45.5122 H         1 UNK         0.3000 
    196 H196       -2.8291  -22.7828  -44.5769 H         1 UNK         0.0600 
    197 H197       -2.1370  -25.0135  -43.7185 H         1 UNK         0.0600 
    198 H198       -0.9088  -23.8067  -43.3640 H         1 UNK         0.0600 
    199 H199       -0.6663  -24.9524  -44.6829 H         1 UNK         0.0600 
    200 H200       -1.3010  -23.9422  -47.5212 H         1 UNK         0.3000 
    201 H201       -3.8202  -25.3142  -48.3899 H         1 UNK         0.0600 
    202 H202       -1.7778  -26.7267  -48.5626 H         1 UNK         0.0600 
    203 H203       -0.9733  -25.4862  -49.5207 H         1 UNK         0.0600 
    204 H204       -2.3901  -26.3141  -50.1562 H         1 UNK         0.0600 
    205 H205       -1.2582  -22.9861  -49.3325 H         1 UNK         0.3000 
    206 H206       -2.7242  -21.8714  -51.5827 H         1 UNK         0.0600 
    207 H207       -0.6821  -20.3647  -51.6260 H         1 UNK         0.0600 
    208 H208       -0.0733  -21.1692  -50.2070 H         1 UNK         0.0600 
    209 H209       -0.2905  -22.0764  -51.6981 H         1 UNK         0.0600 
    210 H210       -4.5041  -21.6170  -49.6599 H         1 UNK         0.3000 
    211 H211       -4.3559  -19.5722  -47.7846 H         1 UNK         0.0600 
    212 H212       -6.8293  -20.6878  -49.2011 H         1 UNK         0.0600 
    213 H213       -6.8441  -19.7650  -47.7037 H         1 UNK         0.0600 
    214 H214       -6.0720  -21.3430  -47.7482 H         1 UNK         0.0600 
    215 H215       -4.0151  -17.4970  -48.0173 H         1 UNK         0.3000 
    216 H216       -3.9024  -15.4148  -48.7092 H         1 UNK         0.0600 
    217 H217       -5.9097  -14.3006  -49.5994 H         1 UNK         0.0600 
    218 H218       -6.3829  -15.4467  -48.3571 H         1 UNK         0.0600 
    219 H219       -6.6174  -15.8431  -50.0595 H         1 UNK         0.0600 
    220 H220       -2.7150  -17.4990  -50.3682 H         1 UNK         0.3000 
    221 H221       -1.5554  -17.8282  -52.1809 H         1 UNK         0.0600 
    222 H222       -1.9899  -14.9005  -52.9770 H         1 UNK         0.0600 
    223 H223       -0.7088  -15.4833  -51.9149 H         1 UNK         0.0600 
    224 H224       -0.7541  -15.9799  -53.5979 H         1 UNK         0.0600 
    225 H225       -4.5026  -18.1721  -52.1172 H         1 UNK         0.3000 
    226 H226       -4.9514  -18.6466  -55.0234 H         1 UNK         0.0600 
    227 H227       -7.3497  -18.2422  -54.6262 H         1 UNK         0.0600 
    228 H228       -7.0678  -17.9534  -52.9077 H         1 UNK         0.0600 
    229 H229       -6.4590  -16.8243  -54.1116 H         1 UNK         0.0600 
    230 H230       -7.4001  -20.1441  -54.0102 H         1 UNK         0.3000 
    231 H231       -8.0258  -22.2440  -53.6431 H         1 UNK         0.0600 
    232 H232       -7.7050  -21.6527  -51.3068 H         1 UNK         0.0600 
    233 H233       -5.9890  -22.0185  -51.3656 H         1 UNK         0.0600 
    234 H234       -7.1761  -23.3133  -51.5086 H         1 UNK         0.0600 
    235 H235       -4.9993  -23.4906  -52.4727 H         1 UNK         0.3000 
    236 H236       -4.7583  -25.5047  -54.4382 H         1 UNK         0.0600 
    237 H237       -3.8210  -25.6615  -52.1348 H         1 UNK         0.0600 
    238 H238       -2.5714  -25.9450  -53.3361 H         1 UNK         0.0600 
    239 H239       -2.6499  -24.3939  -52.5119 H         1 UNK         0.0600 
    240 H240       -3.6093  -22.1801  -54.5027 H         1 UNK         0.3000 
    241 H241       -1.6721  -22.5629  -56.6197 H         1 UNK         0.0600 
    242 H242       -5.1490  -22.6685  -56.7959 H         1 UNK         0.3800 
    243 H243       -5.2416  -22.2843  -58.4962 H         1 UNK         0.3800 
    244 H244       -2.9986  -19.9424  -55.8041 H         1 UNK         0.0800 
    245 H245       -1.5322  -20.1275  -56.7285 H         1 UNK         0.0800 
    246 H246        0.8931  -20.7890  -55.5799 H         1 UNK         0.0800 
    247 H247        0.4153  -19.1071  -55.4472 H         1 UNK         0.0800 
@<TRIPOS>BOND
     1    1    2 1    
     2    1  127 1    
     3    1  128 1    
     4    1  129 1    
     5    2    3 2    
     6    2    4 am   BACKBONE|DICT|INTERRES
     7    4    5 1    
     8    4  130 1    
     9    5    6 1    
    10    5   65 1    
    11    5  131 1    
    12    6    7 1    
    13    6  132 1    
    14    6  133 1    
    15    7    8 1    
    16    8    9 1    
    17    8  134 1    
    18    8  135 1    
    19    9   10 ar   
    20    9   14 ar   
    21   10   11 ar   
    22   10  136 1    
    23   11   12 ar   
    24   11  126 1    
    25   12   13 ar   
    26   12  137 1    
    27   13   14 ar   
    28   13   15 1    
    29   14  138 1    
    30   15   16 1    
    31   15  139 1    
    32   15  140 1    
    33   16   17 1    
    34   17   18 1    
    35   17  141 1    
    36   17  142 1    
    37   18   19 1    
    38   18   67 1    
    39   18  143 1    
    40   19   20 am   BACKBONE|DICT|INTERRES
    41   19  144 1    
    42   20   21 2    
    43   20   22 1    
    44   22   23 1    
    45   22   24 1    
    46   22  145 1    
    47   23  146 1    
    48   23  147 1    
    49   23  148 1    
    50   24   25 am   BACKBONE|DICT|INTERRES
    51   24  149 1    
    52   25   26 2    
    53   25   27 1    
    54   27   28 1    
    55   27   29 1    
    56   27  150 1    
    57   28  151 1    
    58   28  152 1    
    59   28  153 1    
    60   29   30 am   BACKBONE|DICT|INTERRES
    61   29  154 1    
    62   30   31 2    
    63   30   32 1    
    64   32   33 1    
    65   32   34 1    
    66   32  155 1    
    67   33  156 1    
    68   33  157 1    
    69   33  158 1    
    70   34   35 am   BACKBONE|DICT|INTERRES
    71   34  159 1    
    72   35   36 2    
    73   35   37 1    
    74   37   38 1    
    75   37   39 1    
    76   37  160 1    
    77   38  161 1    
    78   38  162 1    
    79   38  163 1    
    80   39   40 am   BACKBONE|DICT|INTERRES
    81   39  164 1    
    82   40   41 2    
    83   40   42 1    
    84   42   43 1    
    85   42   44 1    
    86   42  165 1    
    87   43  166 1    
    88   43  167 1    
    89   43  168 1    
    90   44   45 am   BACKBONE|DICT|INTERRES
    91   44  169 1    
    92   45   46 2    
    93   45   47 1    
    94   47   48 1    
    95   47   49 1    
    96   47  170 1    
    97   48  171 1    
    98   48  172 1    
    99   48  173 1    
   100   49   50 am   BACKBONE|DICT|INTERRES
   101   49  174 1    
   102   50   51 2    
   103   50   52 1    
   104   52   53 1    
   105   52   54 1    
   106   52  175 1    
   107   53  176 1    
   108   53  177 1    
   109   53  178 1    
   110   54   55 am   BACKBONE|DICT|INTERRES
   111   54  179 1    
   112   55   56 2    
   113   55   57 1    
   114   57   58 1    
   115   57   59 1    
   116   57  180 1    
   117   58  181 1    
   118   58  182 1    
   119   58  183 1    
   120   59   60 am   BACKBONE|DICT|INTERRES
   121   59  184 1    
   122   60   61 2    
   123   60   62 1    
   124   62   63 1    
   125   62   64 1    
   126   62  185 1    
   127   63  186 1    
   128   63  187 1    
   129   63  188 1    
   130   64   65 am   BACKBONE|DICT|INTERRES
   131   64  189 1    
   132   65   66 2    
   133   67   68 2    
   134   67   69 am   BACKBONE|DICT|INTERRES
   135   69   70 1    
   136   69  190 1    
   137   70   71 1    
   138   70   72 1    
   139   70  191 1    
   140   71  192 1    
   141   71  193 1    
   142   71  194 1    
   143   72   73 2    
   144   72   74 am   BACKBONE|DICT|INTERRES
   145   74   75 1    
   146   74  195 1    
   147   75   76 1    
   148   75   77 1    
   149   75  196 1    
   150   76  197 1    
   151   76  198 1    
   152   76  199 1    
   153   77   78 2    
   154   77   79 am   BACKBONE|DICT|INTERRES
   155   79   80 1    
   156   79  200 1    
   157   80   81 1    
   158   80   82 1    
   159   80  201 1    
   160   81  202 1    
   161   81  203 1    
   162   81  204 1    
   163   82   83 2    
   164   82   84 am   BACKBONE|DICT|INTERRES
   165   84   85 1    
   166   84  205 1    
   167   85   86 1    
   168   85   87 1    
   169   85  206 1    
   170   86  207 1    
   171   86  208 1    
   172   86  209 1    
   173   87   88 2    
   174   87   89 am   BACKBONE|DICT|INTERRES
   175   89   90 1    
   176   89  210 1    
   177   90   91 1    
   178   90   92 1    
   179   90  211 1    
   180   91  212 1    
   181   91  213 1    
   182   91  214 1    
   183   92   93 2    
   184   92   94 am   BACKBONE|DICT|INTERRES
   185   94   95 1    
   186   94  215 1    
   187   95   96 1    
   188   95   97 1    
   189   95  216 1    
   190   96  217 1    
   191   96  218 1    
   192   96  219 1    
   193   97   98 2    
   194   97   99 am   BACKBONE|DICT|INTERRES
   195   99  100 1    
   196   99  220 1    
   197  100  101 1    
   198  100  102 1    
   199  100  221 1    
   200  101  222 1    
   201  101  223 1    
   202  101  224 1    
   203  102  103 2    
   204  102  104 am   BACKBONE|DICT|INTERRES
   205  104  105 1    
   206  104  225 1    
   207  105  106 1    
   208  105  107 1    
   209  105  226 1    
   210  106  227 1    
   211  106  228 1    
   212  106  229 1    
   213  107  108 2    
   214  107  109 am   BACKBONE|DICT|INTERRES
   215  109  110 1    
   216  109  230 1    
   217  110  111 1    
   218  110  112 1    
   219  110  231 1    
   220  111  232 1    
   221  111  233 1    
   222  111  234 1    
   223  112  113 2    
   224  112  114 am   BACKBONE|DICT|INTERRES
   225  114  115 1    
   226  114  235 1    
   227  115  116 1    
   228  115  117 1    
   229  115  236 1    
   230  116  237 1    
   231  116  238 1    
   232  116  239 1    
   233  117  118 2    
   234  117  119 am   BACKBONE|DICT|INTERRES
   235  119  120 1    
   236  119  240 1    
   237  120  121 1    
   238  120  124 1    
   239  120  241 1    
   240  121  122 am   BACKBONE|DICT|INTERRES
   241  121  123 2    
   242  122  242 1    
   243  122  243 1    
   244  124  125 1    
   245  124  244 1    
   246  124  245 1    
   247  125  126 1    
   248  126  246 1    
   249  126  247 1    
@<TRIPOS>SUBSTRUCTURE
     1 UNK         1 GROUP             0       ****    0 ROOT    
